MODEL 1
REMARK VINA RESULT:      -7.4      0.000      0.000
REMARK  Name = 
REMARK  6 active torsions:
REMARK  status: ('A' for Active; 'I' for Inactive)
REMARK    1  A    between atoms: C_1  and  O_2
REMARK    2  A    between atoms: O_2  and  C_3
REMARK    3  A    between atoms: C_6  and  N_7
REMARK    4  A    between atoms: C_8  and  C_9
REMARK    5  A    between atoms: C_10  and  O_11
REMARK    6  A    between atoms: C_21  and  O_22
REMARK                            x       y       z     vdW  Elec       q    Type
REMARK                         _______ _______ _______ _____ _____    ______ ____
ROOT
ATOM      1  C   UNL     1       0.159  10.219  19.900  0.00  0.00    +0.000 A 
ATOM      2  C   UNL     1      -0.259  10.219  21.247  0.00  0.00    +0.000 A 
ATOM      3  C   UNL     1       0.249   9.313  22.174  0.00  0.00    +0.000 A 
ATOM      4  C   UNL     1       1.083   8.274  21.763  0.00  0.00    +0.000 A 
ATOM      5  C   UNL     1       1.494   8.223  20.419  0.00  0.00    +0.000 A 
ATOM      6  C   UNL     1       1.117   9.256  19.556  0.00  0.00    +0.000 A 
ATOM      7  O   UNL     1       1.789   9.120  18.375  0.00  0.00    +0.000 OA
ATOM      8  C   UNL     1       2.494   7.956  18.436  0.00  0.00    +0.000 A 
ATOM      9  C   UNL     1       3.353   7.474  17.450  0.00  0.00    +0.000 A 
ATOM     10  C   UNL     1       3.787   6.153  17.602  0.00  0.00    +0.000 A 
ATOM     11 CL   UNL     1       4.833   5.479  16.405  0.00  0.00    +0.000 Cl
ATOM     12  C   UNL     1       3.359   5.363  18.675  0.00  0.00    +0.000 A 
ATOM     13  C   UNL     1       2.596   5.933  19.696  0.00  0.00    +0.000 A 
ATOM     14 CL   UNL     1       1.958   5.031  21.004  0.00  0.00    +0.000 Cl
ATOM     15  C   UNL     1       2.189   7.276  19.609  0.00  0.00    +0.000 A 
ENDROOT
BRANCH   1  17
ATOM     16  N   UNL     1      -0.423  12.130  18.325  0.00  0.00    +0.000 NA
ATOM     17  C   UNL     1      -0.593  10.992  18.907  0.00  0.00    +0.000 C 
BRANCH  16  21
ATOM     18  C   UNL     1       2.743  14.882  18.681  0.00  0.00    +0.000 A 
ATOM     19  C   UNL     1       2.959  13.573  18.258  0.00  0.00    +0.000 A 
ATOM     20  C   UNL     1       1.895  12.669  18.200  0.00  0.00    +0.000 A 
ATOM     21  C   UNL     1       0.605  13.047  18.575  0.00  0.00    +0.000 A 
ATOM     22  C   UNL     1       0.396  14.355  19.003  0.00  0.00    +0.000 A 
ATOM     23  C   UNL     1       1.458  15.268  19.078  0.00  0.00    +0.000 A 
BRANCH  18  25
ATOM     24  C   UNL     1       5.013  15.128  18.112  0.00  0.00    +0.000 C 
ATOM     25  O   UNL     1       3.841  15.699  18.687  0.00  0.00    +0.000 OA
ENDBRANCH  18  25
ENDBRANCH  16  21
ENDBRANCH   1  17
BRANCH   2  26
ATOM     26  O   UNL     1      -1.198  11.075  21.761  0.00  0.00    +0.000 OA
ATOM     27  H   UNL     1      -1.555  11.667  21.081  0.00  0.00    +0.000 HD
ENDBRANCH   2  26
BRANCH  12  28
ATOM     28  O   UNL     1       3.653   4.024  18.728  0.00  0.00    +0.000 OA
ATOM     29  H   UNL     1       3.797   3.785  19.663  0.00  0.00    +0.000 HD
ENDBRANCH  12  28
TORSDOF 5
ENDMDL
MODEL 2
REMARK VINA RESULT:      -7.4      3.972      8.350
REMARK  Name = 
REMARK  6 active torsions:
REMARK  status: ('A' for Active; 'I' for Inactive)
REMARK    1  A    between atoms: C_1  and  O_2
REMARK    2  A    between atoms: O_2  and  C_3
REMARK    3  A    between atoms: C_6  and  N_7
REMARK    4  A    between atoms: C_8  and  C_9
REMARK    5  A    between atoms: C_10  and  O_11
REMARK    6  A    between atoms: C_21  and  O_22
REMARK                            x       y       z     vdW  Elec       q    Type
REMARK                         _______ _______ _______ _____ _____    ______ ____
ROOT
ATOM      1  C   UNL     1       5.065   5.837  17.984  0.00  0.00    +0.000 A 
ATOM      2  C   UNL     1       4.973   4.584  18.621  0.00  0.00    +0.000 A 
ATOM      3  C   UNL     1       3.859   4.221  19.374  0.00  0.00    +0.000 A 
ATOM      4  C   UNL     1       2.857   5.152  19.645  0.00  0.00    +0.000 A 
ATOM      5  C   UNL     1       2.933   6.425  19.053  0.00  0.00    +0.000 A 
ATOM      6  C   UNL     1       3.968   6.692  18.153  0.00  0.00    +0.000 A 
ATOM      7  O   UNL     1       3.733   7.893  17.545  0.00  0.00    +0.000 OA
ATOM      8  C   UNL     1       2.632   8.440  18.132  0.00  0.00    +0.000 A 
ATOM      9  C   UNL     1       2.030   9.642  17.765  0.00  0.00    +0.000 A 
ATOM     10  C   UNL     1       1.063  10.141  18.644  0.00  0.00    +0.000 A 
ATOM     11 CL   UNL     1       0.292  11.641  18.269  0.00  0.00    +0.000 Cl
ATOM     12  C   UNL     1       0.741   9.474  19.831  0.00  0.00    +0.000 A 
ATOM     13  C   UNL     1       1.287   8.214  20.089  0.00  0.00    +0.000 A 
ATOM     14 CL   UNL     1       1.019   7.357  21.547  0.00  0.00    +0.000 Cl
ATOM     15  C   UNL     1       2.219   7.652  19.199  0.00  0.00    +0.000 A 
ENDROOT
BRANCH   1  17
ATOM     16  N   UNL     1       6.951   6.159  16.308  0.00  0.00    +0.000 NA
ATOM     17  C   UNL     1       6.353   6.284  17.443  0.00  0.00    +0.000 C 
BRANCH  16  21
ATOM     18  C   UNL     1       5.901   3.698  13.058  0.00  0.00    +0.000 A 
ATOM     19  C   UNL     1       7.102   4.402  13.081  0.00  0.00    +0.000 A 
ATOM     20  C   UNL     1       7.398   5.251  14.151  0.00  0.00    +0.000 A 
ATOM     21  C   UNL     1       6.500   5.424  15.205  0.00  0.00    +0.000 A 
ATOM     22  C   UNL     1       5.298   4.723  15.174  0.00  0.00    +0.000 A 
ATOM     23  C   UNL     1       4.984   3.878  14.099  0.00  0.00    +0.000 A 
BRANCH  18  25
ATOM     24  C   UNL     1       4.428   2.988  11.365  0.00  0.00    +0.000 C 
ATOM     25  O   UNL     1       5.709   2.878  11.979  0.00  0.00    +0.000 OA
ENDBRANCH  18  25
ENDBRANCH  16  21
ENDBRANCH   1  17
BRANCH   2  26
ATOM     26  O   UNL     1       5.955   3.627  18.582  0.00  0.00    +0.000 OA
ATOM     27  H   UNL     1       6.592   3.737  19.305  0.00  0.00    +0.000 HD
ENDBRANCH   2  26
BRANCH  12  28
ATOM     28  O   UNL     1      -0.082  10.049  20.765  0.00  0.00    +0.000 OA
ATOM     29  H   UNL     1      -0.822  10.474  20.292  0.00  0.00    +0.000 HD
ENDBRANCH  12  28
TORSDOF 5
ENDMDL
MODEL 3
REMARK VINA RESULT:      -7.3      2.400      4.287
REMARK  Name = 
REMARK  6 active torsions:
REMARK  status: ('A' for Active; 'I' for Inactive)
REMARK    1  A    between atoms: C_1  and  O_2
REMARK    2  A    between atoms: O_2  and  C_3
REMARK    3  A    between atoms: C_6  and  N_7
REMARK    4  A    between atoms: C_8  and  C_9
REMARK    5  A    between atoms: C_10  and  O_11
REMARK    6  A    between atoms: C_21  and  O_22
REMARK                            x       y       z     vdW  Elec       q    Type
REMARK                         _______ _______ _______ _____ _____    ______ ____
ROOT
ATOM      1  C   UNL     1       1.172  10.084  19.686  0.00  0.00    +0.000 A 
ATOM      2  C   UNL     1       0.474  10.121  20.910  0.00  0.00    +0.000 A 
ATOM      3  C   UNL     1       0.433   9.024  21.767  0.00  0.00    +0.000 A 
ATOM      4  C   UNL     1       0.962   7.797  21.369  0.00  0.00    +0.000 A 
ATOM      5  C   UNL     1       1.638   7.715  20.139  0.00  0.00    +0.000 A 
ATOM      6  C   UNL     1       1.824   8.879  19.389  0.00  0.00    +0.000 A 
ATOM      7  O   UNL     1       2.673   8.614  18.353  0.00  0.00    +0.000 OA
ATOM      8  C   UNL     1       2.933   7.276  18.370  0.00  0.00    +0.000 A 
ATOM      9  C   UNL     1       3.799   6.607  17.506  0.00  0.00    +0.000 A 
ATOM     10  C   UNL     1       3.739   5.210  17.534  0.00  0.00    +0.000 A 
ATOM     11 CL   UNL     1       4.764   4.312  16.472  0.00  0.00    +0.000 Cl
ATOM     12  C   UNL     1       2.842   4.533  18.368  0.00  0.00    +0.000 A 
ATOM     13  C   UNL     1       2.085   5.249  19.298  0.00  0.00    +0.000 A 
ATOM     14 CL   UNL     1       0.904   4.523  20.304  0.00  0.00    +0.000 Cl
ATOM     15  C   UNL     1       2.161   6.653  19.342  0.00  0.00    +0.000 A 
ENDROOT
BRANCH   1  17
ATOM     16  N   UNL     1      -0.070  11.631  18.095  0.00  0.00    +0.000 NA
ATOM     17  C   UNL     1       0.961  11.146  18.697  0.00  0.00    +0.000 C 
BRANCH  16  21
ATOM     18  C   UNL     1      -4.142  10.566  18.186  0.00  0.00    +0.000 A 
ATOM     19  C   UNL     1      -3.676  11.718  18.814  0.00  0.00    +0.000 A 
ATOM     20  C   UNL     1      -2.310  12.017  18.809  0.00  0.00    +0.000 A 
ATOM     21  C   UNL     1      -1.388  11.169  18.195  0.00  0.00    +0.000 A 
ATOM     22  C   UNL     1      -1.859  10.015  17.575  0.00  0.00    +0.000 A 
ATOM     23  C   UNL     1      -3.225   9.698  17.584  0.00  0.00    +0.000 A 
BRANCH  18  25
ATOM     24  C   UNL     1      -6.277  11.512  17.896  0.00  0.00    +0.000 C 
ATOM     25  O   UNL     1      -5.496  10.368  18.227  0.00  0.00    +0.000 OA
ENDBRANCH  18  25
ENDBRANCH  16  21
ENDBRANCH   1  17
BRANCH   2  26
ATOM     26  O   UNL     1      -0.235  11.206  21.358  0.00  0.00    +0.000 OA
ATOM     27  H   UNL     1       0.342  11.964  21.533  0.00  0.00    +0.000 HD
ENDBRANCH   2  26
BRANCH  12  28
ATOM     28  O   UNL     1       2.671   3.176  18.271  0.00  0.00    +0.000 OA
ATOM     29  H   UNL     1       2.693   2.938  17.325  0.00  0.00    +0.000 HD
ENDBRANCH  12  28
TORSDOF 5
ENDMDL
MODEL 4
REMARK VINA RESULT:      -7.2      0.505      1.043
REMARK  Name = 
REMARK  6 active torsions:
REMARK  status: ('A' for Active; 'I' for Inactive)
REMARK    1  A    between atoms: C_1  and  O_2
REMARK    2  A    between atoms: O_2  and  C_3
REMARK    3  A    between atoms: C_6  and  N_7
REMARK    4  A    between atoms: C_8  and  C_9
REMARK    5  A    between atoms: C_10  and  O_11
REMARK    6  A    between atoms: C_21  and  O_22
REMARK                            x       y       z     vdW  Elec       q    Type
REMARK                         _______ _______ _______ _____ _____    ______ ____
ROOT
ATOM      1  C   UNL     1       0.157  10.374  19.964  0.00  0.00    +0.000 A 
ATOM      2  C   UNL     1      -0.252  10.368  21.312  0.00  0.00    +0.000 A 
ATOM      3  C   UNL     1       0.254   9.452  22.231  0.00  0.00    +0.000 A 
ATOM      4  C   UNL     1       1.077   8.409  21.807  0.00  0.00    +0.000 A 
ATOM      5  C   UNL     1       1.479   8.364  20.460  0.00  0.00    +0.000 A 
ATOM      6  C   UNL     1       1.105   9.405  19.607  0.00  0.00    +0.000 A 
ATOM      7  O   UNL     1       1.769   9.272  18.421  0.00  0.00    +0.000 OA
ATOM      8  C   UNL     1       2.464   8.102  18.470  0.00  0.00    +0.000 A 
ATOM      9  C   UNL     1       3.313   7.620  17.475  0.00  0.00    +0.000 A 
ATOM     10  C   UNL     1       3.737   6.294  17.616  0.00  0.00    +0.000 A 
ATOM     11 CL   UNL     1       4.771   5.619  16.408  0.00  0.00    +0.000 Cl
ATOM     12  C   UNL     1       3.309   5.499  18.686  0.00  0.00    +0.000 A 
ATOM     13  C   UNL     1       2.557   6.069  19.715  0.00  0.00    +0.000 A 
ATOM     14 CL   UNL     1       1.919   5.164  21.022  0.00  0.00    +0.000 Cl
ATOM     15  C   UNL     1       2.160   7.416  19.639  0.00  0.00    +0.000 A 
ENDROOT
BRANCH   1  17
ATOM     16  N   UNL     1      -0.407  12.290  18.389  0.00  0.00    +0.000 NA
ATOM     17  C   UNL     1      -0.595  11.160  18.980  0.00  0.00    +0.000 C 
BRANCH  16  21
ATOM     18  C   UNL     1       2.716  14.903  19.456  0.00  0.00    +0.000 A 
ATOM     19  C   UNL     1       1.398  15.149  19.834  0.00  0.00    +0.000 A 
ATOM     20  C   UNL     1       0.377  14.289  19.420  0.00  0.00    +0.000 A 
ATOM     21  C   UNL     1       0.647  13.183  18.613  0.00  0.00    +0.000 A 
ATOM     22  C   UNL     1       1.965  12.946  18.234  0.00  0.00    +0.000 A 
ATOM     23  C   UNL     1       2.996  13.808  18.632  0.00  0.00    +0.000 A 
BRANCH  18  25
ATOM     24  C   UNL     1       4.309  16.550  18.920  0.00  0.00    +0.000 C 
ATOM     25  O   UNL     1       3.648  15.789  19.926  0.00  0.00    +0.000 OA
ENDBRANCH  18  25
ENDBRANCH  16  21
ENDBRANCH   1  17
BRANCH   2  26
ATOM     26  O   UNL     1      -1.182  11.228  21.838  0.00  0.00    +0.000 OA
ATOM     27  H   UNL     1      -1.403  11.939  21.218  0.00  0.00    +0.000 HD
ENDBRANCH   2  26
BRANCH  12  28
ATOM     28  O   UNL     1       3.592   4.158  18.728  0.00  0.00    +0.000 OA
ATOM     29  H   UNL     1       4.551   4.049  18.583  0.00  0.00    +0.000 HD
ENDBRANCH  12  28
TORSDOF 5
ENDMDL
MODEL 5
REMARK VINA RESULT:      -7.2      5.325      8.583
REMARK  Name = 
REMARK  6 active torsions:
REMARK  status: ('A' for Active; 'I' for Inactive)
REMARK    1  A    between atoms: C_1  and  O_2
REMARK    2  A    between atoms: O_2  and  C_3
REMARK    3  A    between atoms: C_6  and  N_7
REMARK    4  A    between atoms: C_8  and  C_9
REMARK    5  A    between atoms: C_10  and  O_11
REMARK    6  A    between atoms: C_21  and  O_22
REMARK                            x       y       z     vdW  Elec       q    Type
REMARK                         _______ _______ _______ _____ _____    ______ ____
ROOT
ATOM      1  C   UNL     1      -3.736  11.216  17.338  0.00  0.00    +0.000 A 
ATOM      2  C   UNL     1      -3.002  10.265  16.599  0.00  0.00    +0.000 A 
ATOM      3  C   UNL     1      -1.777   9.776  17.043  0.00  0.00    +0.000 A 
ATOM      4  C   UNL     1      -1.162  10.325  18.167  0.00  0.00    +0.000 A 
ATOM      5  C   UNL     1      -1.850  11.300  18.910  0.00  0.00    +0.000 A 
ATOM      6  C   UNL     1      -3.157  11.633  18.544  0.00  0.00    +0.000 A 
ATOM      7  O   UNL     1      -3.703  12.430  19.510  0.00  0.00    +0.000 OA
ATOM      8  C   UNL     1      -2.726  12.699  20.419  0.00  0.00    +0.000 A 
ATOM      9  C   UNL     1      -2.887  13.439  21.589  0.00  0.00    +0.000 A 
ATOM     10  C   UNL     1      -1.712  13.802  22.256  0.00  0.00    +0.000 A 
ATOM     11 CL   UNL     1      -1.832  14.743  23.700  0.00  0.00    +0.000 Cl
ATOM     12  C   UNL     1      -0.452  13.455  21.758  0.00  0.00    +0.000 A 
ATOM     13  C   UNL     1      -0.353  12.611  20.649  0.00  0.00    +0.000 A 
ATOM     14 CL   UNL     1       1.139  12.196  19.917  0.00  0.00    +0.000 Cl
ATOM     15  C   UNL     1      -1.514  12.177  19.985  0.00  0.00    +0.000 A 
ENDROOT
BRANCH   1  17
ATOM     16  N   UNL     1      -6.049  12.245  17.100  0.00  0.00    +0.000 NA
ATOM     17  C   UNL     1      -4.868  11.906  16.711  0.00  0.00    +0.000 C 
BRANCH  16  21
ATOM     18  C   UNL     1      -7.476  11.165  20.910  0.00  0.00    +0.000 A 
ATOM     19  C   UNL     1      -7.150  10.206  19.956  0.00  0.00    +0.000 A 
ATOM     20  C   UNL     1      -6.728  10.597  18.682  0.00  0.00    +0.000 A 
ATOM     21  C   UNL     1      -6.638  11.946  18.334  0.00  0.00    +0.000 A 
ATOM     22  C   UNL     1      -6.972  12.901  19.291  0.00  0.00    +0.000 A 
ATOM     23  C   UNL     1      -7.409  12.519  20.568  0.00  0.00    +0.000 A 
BRANCH  18  25
ATOM     24  C   UNL     1      -7.912  11.661  23.169  0.00  0.00    +0.000 C 
ATOM     25  O   UNL     1      -7.860  10.685  22.134  0.00  0.00    +0.000 OA
ENDBRANCH  18  25
ENDBRANCH  16  21
ENDBRANCH   1  17
BRANCH   2  26
ATOM     26  O   UNL     1      -3.402   9.756  15.390  0.00  0.00    +0.000 OA
ATOM     27  H   UNL     1      -2.869  10.105  14.660  0.00  0.00    +0.000 HD
ENDBRANCH   2  26
BRANCH  12  28
ATOM     28  O   UNL     1       0.694  13.953  22.323  0.00  0.00    +0.000 OA
ATOM     29  H   UNL     1       1.326  13.215  22.420  0.00  0.00    +0.000 HD
ENDBRANCH  12  28
TORSDOF 5
ENDMDL
MODEL 6
REMARK VINA RESULT:      -7.1      0.766      1.051
REMARK  Name = 
REMARK  6 active torsions:
REMARK  status: ('A' for Active; 'I' for Inactive)
REMARK    1  A    between atoms: C_1  and  O_2
REMARK    2  A    between atoms: O_2  and  C_3
REMARK    3  A    between atoms: C_6  and  N_7
REMARK    4  A    between atoms: C_8  and  C_9
REMARK    5  A    between atoms: C_10  and  O_11
REMARK    6  A    between atoms: C_21  and  O_22
REMARK                            x       y       z     vdW  Elec       q    Type
REMARK                         _______ _______ _______ _____ _____    ______ ____
ROOT
ATOM      1  C   UNL     1       0.348  10.070  19.659  0.00  0.00    +0.000 A 
ATOM      2  C   UNL     1      -0.080  10.146  21.000  0.00  0.00    +0.000 A 
ATOM      3  C   UNL     1       0.416   9.290  21.980  0.00  0.00    +0.000 A 
ATOM      4  C   UNL     1       1.248   8.226  21.633  0.00  0.00    +0.000 A 
ATOM      5  C   UNL     1       1.669   8.100  20.298  0.00  0.00    +0.000 A 
ATOM      6  C   UNL     1       1.304   9.085  19.377  0.00  0.00    +0.000 A 
ATOM      7  O   UNL     1       1.985   8.881  18.210  0.00  0.00    +0.000 OA
ATOM      8  C   UNL     1       2.683   7.719  18.341  0.00  0.00    +0.000 A 
ATOM      9  C   UNL     1       3.548   7.180  17.390  0.00  0.00    +0.000 A 
ATOM     10  C   UNL     1       3.974   5.867  17.618  0.00  0.00    +0.000 A 
ATOM     11 CL   UNL     1       5.027   5.123  16.469  0.00  0.00    +0.000 Cl
ATOM     12  C   UNL     1       3.534   5.139  18.729  0.00  0.00    +0.000 A 
ATOM     13  C   UNL     1       2.765   5.768  19.711  0.00  0.00    +0.000 A 
ATOM     14 CL   UNL     1       2.113   4.943  21.062  0.00  0.00    +0.000 Cl
ATOM     15  C   UNL     1       2.365   7.106  19.547  0.00  0.00    +0.000 A 
ENDROOT
BRANCH   1  17
ATOM     16  N   UNL     1      -0.413  12.010  18.201  0.00  0.00    +0.000 NA
ATOM     17  C   UNL     1      -0.392  10.791  18.619  0.00  0.00    +0.000 C 
BRANCH  16  21
ATOM     18  C   UNL     1       1.803  15.364  19.450  0.00  0.00    +0.000 A 
ATOM     19  C   UNL     1       2.400  14.311  18.761  0.00  0.00    +0.000 A 
ATOM     20  C   UNL     1       1.648  13.188  18.405  0.00  0.00    +0.000 A 
ATOM     21  C   UNL     1       0.297  13.088  18.741  0.00  0.00    +0.000 A 
ATOM     22  C   UNL     1      -0.293  14.141  19.435  0.00  0.00    +0.000 A 
ATOM     23  C   UNL     1       0.455  15.267  19.809  0.00  0.00    +0.000 A 
BRANCH  18  25
ATOM     24  C   UNL     1       1.932  17.652  19.987  0.00  0.00    +0.000 C 
ATOM     25  O   UNL     1       2.616  16.428  19.737  0.00  0.00    +0.000 OA
ENDBRANCH  18  25
ENDBRANCH  16  21
ENDBRANCH   1  17
BRANCH   2  26
ATOM     26  O   UNL     1      -1.019  11.033  21.458  0.00  0.00    +0.000 OA
ATOM     27  H   UNL     1      -0.701  11.526  22.230  0.00  0.00    +0.000 HD
ENDBRANCH   2  26
BRANCH  12  28
ATOM     28  O   UNL     1       3.821   3.804  18.858  0.00  0.00    +0.000 OA
ATOM     29  H   UNL     1       3.825   3.410  17.966  0.00  0.00    +0.000 HD
ENDBRANCH  12  28
TORSDOF 5
ENDMDL
MODEL 7
REMARK VINA RESULT:      -7.1      4.004      8.376
REMARK  Name = 
REMARK  6 active torsions:
REMARK  status: ('A' for Active; 'I' for Inactive)
REMARK    1  A    between atoms: C_1  and  O_2
REMARK    2  A    between atoms: O_2  and  C_3
REMARK    3  A    between atoms: C_6  and  N_7
REMARK    4  A    between atoms: C_8  and  C_9
REMARK    5  A    between atoms: C_10  and  O_11
REMARK    6  A    between atoms: C_21  and  O_22
REMARK                            x       y       z     vdW  Elec       q    Type
REMARK                         _______ _______ _______ _____ _____    ______ ____
ROOT
ATOM      1  C   UNL     1       4.994   4.659  18.792  0.00  0.00    +0.000 A 
ATOM      2  C   UNL     1       4.522   3.513  19.464  0.00  0.00    +0.000 A 
ATOM      3  C   UNL     1       3.231   3.442  19.981  0.00  0.00    +0.000 A 
ATOM      4  C   UNL     1       2.408   4.568  19.981  0.00  0.00    +0.000 A 
ATOM      5  C   UNL     1       2.859   5.740  19.349  0.00  0.00    +0.000 A 
ATOM      6  C   UNL     1       4.083   5.718  18.676  0.00  0.00    +0.000 A 
ATOM      7  O   UNL     1       4.225   6.877  17.966  0.00  0.00    +0.000 OA
ATOM      8  C   UNL     1       3.166   7.677  18.274  0.00  0.00    +0.000 A 
ATOM      9  C   UNL     1       2.908   8.930  17.721  0.00  0.00    +0.000 A 
ATOM     10  C   UNL     1       1.910   9.686  18.345  0.00  0.00    +0.000 A 
ATOM     11 CL   UNL     1       1.553  11.261  17.732  0.00  0.00    +0.000 Cl
ATOM     12  C   UNL     1       1.230   9.209  19.472  0.00  0.00    +0.000 A 
ATOM     13  C   UNL     1       1.444   7.901  19.909  0.00  0.00    +0.000 A 
ATOM     14 CL   UNL     1       0.723   7.254  21.322  0.00  0.00    +0.000 Cl
ATOM     15  C   UNL     1       2.398   7.088  19.271  0.00  0.00    +0.000 A 
ENDROOT
BRANCH   1  17
ATOM     16  N   UNL     1       7.146   4.800  17.444  0.00  0.00    +0.000 NA
ATOM     17  C   UNL     1       6.427   4.800  18.513  0.00  0.00    +0.000 C 
BRANCH  16  21
ATOM     18  C   UNL     1       6.150   3.943  13.444  0.00  0.00    +0.000 A 
ATOM     19  C   UNL     1       7.180   4.823  13.766  0.00  0.00    +0.000 A 
ATOM     20  C   UNL     1       7.452   5.125  15.103  0.00  0.00    +0.000 A 
ATOM     21  C   UNL     1       6.696   4.572  16.138  0.00  0.00    +0.000 A 
ATOM     22  C   UNL     1       5.663   3.698  15.809  0.00  0.00    +0.000 A 
ATOM     23  C   UNL     1       5.373   3.397  14.471  0.00  0.00    +0.000 A 
BRANCH  18  25
ATOM     24  C   UNL     1       4.717   3.108  11.774  0.00  0.00    +0.000 C 
ATOM     25  O   UNL     1       5.971   3.693  12.110  0.00  0.00    +0.000 OA
ENDBRANCH  18  25
ENDBRANCH  16  21
ENDBRANCH   1  17
BRANCH   2  26
ATOM     26  O   UNL     1       5.275   2.389  19.688  0.00  0.00    +0.000 OA
ATOM     27  H   UNL     1       5.271   2.135  20.623  0.00  0.00    +0.000 HD
ENDBRANCH   2  26
BRANCH  12  28
ATOM     28  O   UNL     1       0.375  10.018  20.176  0.00  0.00    +0.000 OA
ATOM     29  H   UNL     1       0.334  10.880  19.722  0.00  0.00    +0.000 HD
ENDBRANCH  12  28
TORSDOF 5
ENDMDL
MODEL 8
REMARK VINA RESULT:      -7.1      4.052      8.474
REMARK  Name = 
REMARK  6 active torsions:
REMARK  status: ('A' for Active; 'I' for Inactive)
REMARK    1  A    between atoms: C_1  and  O_2
REMARK    2  A    between atoms: O_2  and  C_3
REMARK    3  A    between atoms: C_6  and  N_7
REMARK    4  A    between atoms: C_8  and  C_9
REMARK    5  A    between atoms: C_10  and  O_11
REMARK    6  A    between atoms: C_21  and  O_22
REMARK                            x       y       z     vdW  Elec       q    Type
REMARK                         _______ _______ _______ _____ _____    ______ ____
ROOT
ATOM      1  C   UNL     1       5.261   5.922  17.819  0.00  0.00    +0.000 A 
ATOM      2  C   UNL     1       5.286   4.677  18.480  0.00  0.00    +0.000 A 
ATOM      3  C   UNL     1       4.241   4.256  19.298  0.00  0.00    +0.000 A 
ATOM      4  C   UNL     1       3.195   5.124  19.609  0.00  0.00    +0.000 A 
ATOM      5  C   UNL     1       3.154   6.388  18.994  0.00  0.00    +0.000 A 
ATOM      6  C   UNL     1       4.119   6.705  18.034  0.00  0.00    +0.000 A 
ATOM      7  O   UNL     1       3.772   7.876  17.422  0.00  0.00    +0.000 OA
ATOM      8  C   UNL     1       2.670   8.360  18.059  0.00  0.00    +0.000 A 
ATOM      9  C   UNL     1       1.970   9.514  17.707  0.00  0.00    +0.000 A 
ATOM     10  C   UNL     1       1.020   9.964  18.630  0.00  0.00    +0.000 A 
ATOM     11 CL   UNL     1       0.132  11.402  18.274  0.00  0.00    +0.000 Cl
ATOM     12  C   UNL     1       0.808   9.300  19.843  0.00  0.00    +0.000 A 
ATOM     13  C   UNL     1       1.449   8.084  20.089  0.00  0.00    +0.000 A 
ATOM     14 CL   UNL     1       1.317   7.239  21.573  0.00  0.00    +0.000 Cl
ATOM     15  C   UNL     1       2.368   7.568  19.159  0.00  0.00    +0.000 A 
ENDROOT
BRANCH   1  17
ATOM     16  N   UNL     1       7.091   6.241  16.083  0.00  0.00    +0.000 NA
ATOM     17  C   UNL     1       6.485   6.442  17.202  0.00  0.00    +0.000 C 
BRANCH  16  21
ATOM     18  C   UNL     1       5.721   3.737  12.988  0.00  0.00    +0.000 A 
ATOM     19  C   UNL     1       4.906   4.080  14.063  0.00  0.00    +0.000 A 
ATOM     20  C   UNL     1       5.406   4.871  15.100  0.00  0.00    +0.000 A 
ATOM     21  C   UNL     1       6.728   5.320  15.092  0.00  0.00    +0.000 A 
ATOM     22  C   UNL     1       7.541   4.969  14.018  0.00  0.00    +0.000 A 
ATOM     23  C   UNL     1       7.053   4.165  12.978  0.00  0.00    +0.000 A 
BRANCH  18  25
ATOM     24  C   UNL     1       5.977   1.971  11.453  0.00  0.00    +0.000 C 
ATOM     25  O   UNL     1       5.136   2.976  12.012  0.00  0.00    +0.000 OA
ENDBRANCH  18  25
ENDBRANCH  16  21
ENDBRANCH   1  17
BRANCH   2  26
ATOM     26  O   UNL     1       6.327   3.787  18.402  0.00  0.00    +0.000 OA
ATOM     27  H   UNL     1       7.185   4.228  18.494  0.00  0.00    +0.000 HD
ENDBRANCH   2  26
BRANCH  12  28
ATOM     28  O   UNL     1      -0.001   9.837  20.811  0.00  0.00    +0.000 OA
ATOM     29  H   UNL     1      -0.138   9.158  21.499  0.00  0.00    +0.000 HD
ENDBRANCH  12  28
TORSDOF 5
ENDMDL
MODEL 9
REMARK VINA RESULT:      -7.0      1.489      1.790
REMARK  Name = 
REMARK  6 active torsions:
REMARK  status: ('A' for Active; 'I' for Inactive)
REMARK    1  A    between atoms: C_1  and  O_2
REMARK    2  A    between atoms: O_2  and  C_3
REMARK    3  A    between atoms: C_6  and  N_7
REMARK    4  A    between atoms: C_8  and  C_9
REMARK    5  A    between atoms: C_10  and  O_11
REMARK    6  A    between atoms: C_21  and  O_22
REMARK                            x       y       z     vdW  Elec       q    Type
REMARK                         _______ _______ _______ _____ _____    ______ ____
ROOT
ATOM      1  C   UNL     1       1.212   9.162  19.272  0.00  0.00    +0.000 A 
ATOM      2  C   UNL     1       0.660   8.913  20.545  0.00  0.00    +0.000 A 
ATOM      3  C   UNL     1       1.043   7.814  21.311  0.00  0.00    +0.000 A 
ATOM      4  C   UNL     1       1.881   6.838  20.775  0.00  0.00    +0.000 A 
ATOM      5  C   UNL     1       2.425   7.037  19.493  0.00  0.00    +0.000 A 
ATOM      6  C   UNL     1       2.169   8.240  18.829  0.00  0.00    +0.000 A 
ATOM      7  O   UNL     1       2.953   8.309  17.712  0.00  0.00    +0.000 OA
ATOM      8  C   UNL     1       3.611   7.122  17.600  0.00  0.00    +0.000 A 
ATOM      9  C   UNL     1       4.551   6.804  16.620  0.00  0.00    +0.000 A 
ATOM     10  C   UNL     1       4.925   5.459  16.538  0.00  0.00    +0.000 A 
ATOM     11 CL   UNL     1       6.066   4.986  15.331  0.00  0.00    +0.000 Cl
ATOM     12  C   UNL     1       4.366   4.492  17.382  0.00  0.00    +0.000 A 
ATOM     13  C   UNL     1       3.522   4.884  18.422  0.00  0.00    +0.000 A 
ATOM     14 CL   UNL     1       2.726   3.773  19.454  0.00  0.00    +0.000 Cl
ATOM     15  C   UNL     1       3.168   6.237  18.574  0.00  0.00    +0.000 A 
ENDROOT
BRANCH   1  17
ATOM     16  N   UNL     1       0.745  11.421  18.201  0.00  0.00    +0.000 NA
ATOM     17  C   UNL     1       0.589  10.156  18.393  0.00  0.00    +0.000 C 
BRANCH  16  21
ATOM     18  C   UNL     1       3.186  14.277  20.101  0.00  0.00    +0.000 A 
ATOM     19  C   UNL     1       3.387  13.914  18.771  0.00  0.00    +0.000 A 
ATOM     20  C   UNL     1       2.592  12.926  18.185  0.00  0.00    +0.000 A 
ATOM     21  C   UNL     1       1.597  12.273  18.914  0.00  0.00    +0.000 A 
ATOM     22  C   UNL     1       1.404  12.635  20.244  0.00  0.00    +0.000 A 
ATOM     23  C   UNL     1       2.204  13.617  20.847  0.00  0.00    +0.000 A 
BRANCH  18  25
ATOM     24  C   UNL     1       5.366  14.896  20.736  0.00  0.00    +0.000 C 
ATOM     25  O   UNL     1       4.000  15.267  20.581  0.00  0.00    +0.000 OA
ENDBRANCH  18  25
ENDBRANCH  16  21
ENDBRANCH   1  17
BRANCH   2  26
ATOM     26  O   UNL     1      -0.300   9.696  21.134  0.00  0.00    +0.000 OA
ATOM     27  H   UNL     1       0.081  10.293  21.795  0.00  0.00    +0.000 HD
ENDBRANCH   2  26
BRANCH  12  28
ATOM     28  O   UNL     1       4.611   3.157  17.187  0.00  0.00    +0.000 OA
ATOM     29  H   UNL     1       5.310   3.076  16.510  0.00  0.00    +0.000 HD
ENDBRANCH  12  28
TORSDOF 5
ENDMDL
