MODEL 1
REMARK VINA RESULT:      -8.2      0.000      0.000
REMARK  Name = 
REMARK  8 active torsions:
REMARK  status: ('A' for Active; 'I' for Inactive)
REMARK    1  A    between atoms: C_1  and  N_2
REMARK    2  A    between atoms: C_3  and  C_5
REMARK    3  A    between atoms: C_5  and  N_6
REMARK    4  A    between atoms: C_9  and  N_10
REMARK    5  A    between atoms: C_12  and  C_13
REMARK    6  A    between atoms: C_14  and  N_15
REMARK    7  A    between atoms: C_21  and  C_22
REMARK    8  A    between atoms: C_32  and  C_33
REMARK                            x       y       z     vdW  Elec       q    Type
REMARK                         _______ _______ _______ _____ _____    ______ ____
ROOT
ATOM      1  N   UNL     1      -1.962  12.709  20.590  0.00  0.00    +0.000 N 
ATOM      2  N   UNL     1      -2.879  12.096  19.461  0.00  0.00    +0.000 NA
ATOM      3  C   UNL     1      -1.974  11.211  18.726  0.00  0.00    +0.000 A 
ATOM      4  C   UNL     1      -2.160  10.258  17.468  0.00  0.00    +0.000 C 
ATOM      5  C   UNL     1      -0.689  11.269  19.323  0.00  0.00    +0.000 A 
ATOM      6  C   UNL     1      -0.713  12.144  20.367  0.00  0.00    +0.000 A 
ATOM      7  C   UNL     1       0.477  12.384  21.102  0.00  0.00    +0.000 C 
ENDROOT
BRANCH   5   8
ATOM      8  N   UNL     1       0.461  10.607  18.957  0.00  0.00    +0.000 N 
ATOM      9  C   UNL     1       0.862   9.309  19.352  0.00  0.00    +0.000 A 
ATOM     10  N   UNL     1       0.426   8.887  20.617  0.00  0.00    +0.000 NA
ATOM     11  C   UNL     1       1.042   7.807  21.136  0.00  0.00    +0.000 A 
ATOM     12  C   UNL     1       1.912   7.034  20.416  0.00  0.00    +0.000 A 
ATOM     13 CL   UNL     1       2.497   5.562  21.071  0.00  0.00    +0.000 Cl
ATOM     14  C   UNL     1       2.263   7.483  19.156  0.00  0.00    +0.000 A 
ATOM     15  N   UNL     1       1.806   8.646  18.636  0.00  0.00    +0.000 NA
ATOM     16  H   UNL     1       1.128  11.003  18.307  0.00  0.00    +0.000 HD
BRANCH  14  17
ATOM     17  C   UNL     1       3.176   6.727  18.320  0.00  0.00    +0.000 A 
ATOM     18  C   UNL     1       4.142   7.237  17.406  0.00  0.00    +0.000 A 
ATOM     19  N   UNL     1       4.754   6.272  16.741  0.00  0.00    +0.000 NA
ATOM     20  N   UNL     1       4.253   5.129  17.155  0.00  0.00    +0.000 N 
ATOM     21  C   UNL     1       4.612   3.879  16.705  0.00  0.00    +0.000 A 
ATOM     22  C   UNL     1       3.904   2.900  17.319  0.00  0.00    +0.000 A 
ATOM     23  C   UNL     1       3.244   1.941  17.888  0.00  0.00    +0.000 A 
ATOM     24  C   UNL     1       2.719   3.611  18.511  0.00  0.00    +0.000 A 
ATOM     25  C   UNL     1       3.284   5.252  18.102  0.00  0.00    +0.000 A 
ENDBRANCH  14  17
ENDBRANCH   5   8
BRANCH   1  29
ATOM     26  N   UNL     1      -5.160  14.022  21.994  0.00  0.00    +0.000 NA
ATOM     27  C   UNL     1      -4.513  12.851  22.521  0.00  0.00    +0.000 C 
ATOM     28  C   UNL     1      -3.089  13.026  22.890  0.00  0.00    +0.000 C 
ATOM     29  C   UNL     1      -2.246  13.673  21.773  0.00  0.00    +0.000 C 
ATOM     30  C   UNL     1      -2.966  14.944  21.326  0.00  0.00    +0.000 C 
ATOM     31  C   UNL     1      -4.357  14.672  20.969  0.00  0.00    +0.000 C 
BRANCH  26  32
ATOM     32  C   UNL     1      -6.549  13.791  21.529  0.00  0.00    +0.000 C 
BRANCH  32  35
ATOM     33  C   UNL     1      -6.425  10.732  19.112  0.00  0.00    +0.000 C 
ATOM     34  N   UNL     1      -6.308  12.089  19.651  0.00  0.00    +0.000 N 
ATOM     35  C   UNL     1      -6.700  12.356  20.949  0.00  0.00    +0.000 C 
ATOM     36  O   UNL     1      -7.139  11.413  21.604  0.00  0.00    +0.000 OA
ATOM     37  H   UNL     1      -5.907  12.798  19.050  0.00  0.00    +0.000 HD
ENDBRANCH  32  35
ENDBRANCH  26  32
ENDBRANCH   1  29
TORSDOF 5
ENDMDL
MODEL 2
REMARK VINA RESULT:      -8.2      1.449      2.088
REMARK  Name = 
REMARK  8 active torsions:
REMARK  status: ('A' for Active; 'I' for Inactive)
REMARK    1  A    between atoms: C_1  and  N_2
REMARK    2  A    between atoms: C_3  and  C_5
REMARK    3  A    between atoms: C_5  and  N_6
REMARK    4  A    between atoms: C_9  and  N_10
REMARK    5  A    between atoms: C_12  and  C_13
REMARK    6  A    between atoms: C_14  and  N_15
REMARK    7  A    between atoms: C_21  and  C_22
REMARK    8  A    between atoms: C_32  and  C_33
REMARK                            x       y       z     vdW  Elec       q    Type
REMARK                         _______ _______ _______ _____ _____    ______ ____
ROOT
ATOM      1  N   UNL     1      -0.480  13.149  20.110  0.00  0.00    +0.000 N 
ATOM      2  N   UNL     1      -1.671  12.587  19.239  0.00  0.00    +0.000 NA
ATOM      3  C   UNL     1      -1.089  11.424  18.569  0.00  0.00    +0.000 A 
ATOM      4  C   UNL     1      -1.660  10.354  17.541  0.00  0.00    +0.000 C 
ATOM      5  C   UNL     1       0.264  11.289  18.974  0.00  0.00    +0.000 A 
ATOM      6  C   UNL     1       0.582  12.296  19.834  0.00  0.00    +0.000 A 
ATOM      7  C   UNL     1       1.900  12.379  20.353  0.00  0.00    +0.000 C 
ENDROOT
BRANCH   5   8
ATOM      8  N   UNL     1       1.188  10.343  18.590  0.00  0.00    +0.000 N 
ATOM      9  C   UNL     1       1.329   9.030  19.100  0.00  0.00    +0.000 A 
ATOM     10  N   UNL     1       0.953   8.846  20.439  0.00  0.00    +0.000 NA
ATOM     11  C   UNL     1       1.365   7.705  21.027  0.00  0.00    +0.000 A 
ATOM     12  C   UNL     1       1.953   6.684  20.331  0.00  0.00    +0.000 A 
ATOM     13 CL   UNL     1       2.263   5.185  21.101  0.00  0.00    +0.000 Cl
ATOM     14  C   UNL     1       2.253   6.916  19.000  0.00  0.00    +0.000 A 
ATOM     15  N   UNL     1       2.013   8.099  18.388  0.00  0.00    +0.000 NA
ATOM     16  H   UNL     1       1.850  10.507  17.842  0.00  0.00    +0.000 HD
BRANCH  14  17
ATOM     17  C   UNL     1       2.873   5.890  18.183  0.00  0.00    +0.000 A 
ATOM     18  C   UNL     1       2.314   4.644  17.782  0.00  0.00    +0.000 A 
ATOM     19  N   UNL     1       3.179   3.906  17.107  0.00  0.00    +0.000 NA
ATOM     20  N   UNL     1       4.301   4.586  17.031  0.00  0.00    +0.000 N 
ATOM     21  C   UNL     1       5.460   4.167  16.418  0.00  0.00    +0.000 A 
ATOM     22  C   UNL     1       6.447   5.091  16.520  0.00  0.00    +0.000 A 
ATOM     23  C   UNL     1       7.410   5.954  16.601  0.00  0.00    +0.000 A 
ATOM     24  C   UNL     1       5.870   6.550  17.454  0.00  0.00    +0.000 A 
ATOM     25  C   UNL     1       4.265   5.799  17.645  0.00  0.00    +0.000 A 
ENDBRANCH  14  17
ENDBRANCH   5   8
BRANCH   1  29
ATOM     26  N   UNL     1      -3.084  14.966  22.068  0.00  0.00    +0.000 NA
ATOM     27  C   UNL     1      -2.359  13.846  22.606  0.00  0.00    +0.000 C 
ATOM     28  C   UNL     1      -0.884  13.950  22.529  0.00  0.00    +0.000 C 
ATOM     29  C   UNL     1      -0.373  14.320  21.122  0.00  0.00    +0.000 C 
ATOM     30  C   UNL     1      -1.139  15.558  20.661  0.00  0.00    +0.000 C 
ATOM     31  C   UNL     1      -2.585  15.358  20.759  0.00  0.00    +0.000 C 
BRANCH  26  32
ATOM     32  C   UNL     1      -4.556  14.788  22.056  0.00  0.00    +0.000 C 
BRANCH  32  35
ATOM     33  C   UNL     1      -5.170  12.064  19.332  0.00  0.00    +0.000 C 
ATOM     34  N   UNL     1      -4.835  13.331  19.987  0.00  0.00    +0.000 N 
ATOM     35  C   UNL     1      -4.940  13.451  21.359  0.00  0.00    +0.000 C 
ATOM     36  O   UNL     1      -5.320  12.460  21.979  0.00  0.00    +0.000 OA
ATOM     37  H   UNL     1      -4.501  14.086  19.401  0.00  0.00    +0.000 HD
ENDBRANCH  32  35
ENDBRANCH  26  32
ENDBRANCH   1  29
TORSDOF 5
ENDMDL
MODEL 3
REMARK VINA RESULT:      -8.2      2.125      3.109
REMARK  Name = 
REMARK  8 active torsions:
REMARK  status: ('A' for Active; 'I' for Inactive)
REMARK    1  A    between atoms: C_1  and  N_2
REMARK    2  A    between atoms: C_3  and  C_5
REMARK    3  A    between atoms: C_5  and  N_6
REMARK    4  A    between atoms: C_9  and  N_10
REMARK    5  A    between atoms: C_12  and  C_13
REMARK    6  A    between atoms: C_14  and  N_15
REMARK    7  A    between atoms: C_21  and  C_22
REMARK    8  A    between atoms: C_32  and  C_33
REMARK                            x       y       z     vdW  Elec       q    Type
REMARK                         _______ _______ _______ _____ _____    ______ ____
ROOT
ATOM      1  N   UNL     1      -0.521  13.316  19.586  0.00  0.00    +0.000 N 
ATOM      2  N   UNL     1      -1.802  12.577  19.034  0.00  0.00    +0.000 NA
ATOM      3  C   UNL     1      -1.268  11.337  18.471  0.00  0.00    +0.000 A 
ATOM      4  C   UNL     1      -1.935  10.091  17.742  0.00  0.00    +0.000 C 
ATOM      5  C   UNL     1       0.138  11.315  18.656  0.00  0.00    +0.000 A 
ATOM      6  C   UNL     1       0.531  12.462  19.275  0.00  0.00    +0.000 A 
ATOM      7  C   UNL     1       1.909  12.673  19.542  0.00  0.00    +0.000 C 
ENDROOT
BRANCH   5   8
ATOM      8  N   UNL     1       1.041  10.346  18.279  0.00  0.00    +0.000 N 
ATOM      9  C   UNL     1       1.236   9.080  18.878  0.00  0.00    +0.000 A 
ATOM     10  N   UNL     1       0.966   9.000  20.253  0.00  0.00    +0.000 NA
ATOM     11  C   UNL     1       1.435   7.913  20.896  0.00  0.00    +0.000 A 
ATOM     12  C   UNL     1       1.981   6.843  20.240  0.00  0.00    +0.000 A 
ATOM     13 CL   UNL     1       2.366   5.413  21.101  0.00  0.00    +0.000 Cl
ATOM     14  C   UNL     1       2.176   6.970  18.876  0.00  0.00    +0.000 A 
ATOM     15  N   UNL     1       1.876   8.099  18.193  0.00  0.00    +0.000 NA
ATOM     16  H   UNL     1       1.643  10.455  17.472  0.00  0.00    +0.000 HD
BRANCH  14  17
ATOM     17  C   UNL     1       2.745   5.886  18.098  0.00  0.00    +0.000 A 
ATOM     18  C   UNL     1       2.138   4.641  17.770  0.00  0.00    +0.000 A 
ATOM     19  N   UNL     1       2.964   3.843  17.115  0.00  0.00    +0.000 NA
ATOM     20  N   UNL     1       4.105   4.482  16.981  0.00  0.00    +0.000 N 
ATOM     21  C   UNL     1       5.236   3.997  16.365  0.00  0.00    +0.000 A 
ATOM     22  C   UNL     1       6.253   4.892  16.400  0.00  0.00    +0.000 A 
ATOM     23  C   UNL     1       7.244   5.726  16.418  0.00  0.00    +0.000 A 
ATOM     24  C   UNL     1       5.744   6.412  17.272  0.00  0.00    +0.000 A 
ATOM     25  C   UNL     1       4.121   5.724  17.535  0.00  0.00    +0.000 A 
ENDBRANCH  14  17
ENDBRANCH   5   8
BRANCH   1  29
ATOM     26  N   UNL     1      -2.017  14.569  22.765  0.00  0.00    +0.000 NA
ATOM     27  C   UNL     1      -0.755  13.881  22.728  0.00  0.00    +0.000 C 
ATOM     28  C   UNL     1       0.241  14.434  21.782  0.00  0.00    +0.000 C 
ATOM     29  C   UNL     1      -0.320  14.644  20.362  0.00  0.00    +0.000 C 
ATOM     30  C   UNL     1      -1.615  15.444  20.488  0.00  0.00    +0.000 C 
ATOM     31  C   UNL     1      -2.541  14.816  21.430  0.00  0.00    +0.000 C 
BRANCH  26  32
ATOM     32  C   UNL     1      -3.033  13.929  23.635  0.00  0.00    +0.000 C 
BRANCH  32  35
ATOM     33  C   UNL     1      -4.879  17.083  24.998  0.00  0.00    +0.000 C 
ATOM     34  N   UNL     1      -3.831  16.113  24.669  0.00  0.00    +0.000 N 
ATOM     35  C   UNL     1      -4.151  14.943  24.009  0.00  0.00    +0.000 C 
ATOM     36  O   UNL     1      -5.334  14.770  23.723  0.00  0.00    +0.000 OA
ATOM     37  H   UNL     1      -2.879  16.353  24.917  0.00  0.00    +0.000 HD
ENDBRANCH  32  35
ENDBRANCH  26  32
ENDBRANCH   1  29
TORSDOF 5
ENDMDL
MODEL 4
REMARK VINA RESULT:      -8.1      1.734      2.655
REMARK  Name = 
REMARK  8 active torsions:
REMARK  status: ('A' for Active; 'I' for Inactive)
REMARK    1  A    between atoms: C_1  and  N_2
REMARK    2  A    between atoms: C_3  and  C_5
REMARK    3  A    between atoms: C_5  and  N_6
REMARK    4  A    between atoms: C_9  and  N_10
REMARK    5  A    between atoms: C_12  and  C_13
REMARK    6  A    between atoms: C_14  and  N_15
REMARK    7  A    between atoms: C_21  and  C_22
REMARK    8  A    between atoms: C_32  and  C_33
REMARK                            x       y       z     vdW  Elec       q    Type
REMARK                         _______ _______ _______ _____ _____    ______ ____
ROOT
ATOM      1  N   UNL     1      -0.138  13.432  19.381  0.00  0.00    +0.000 N 
ATOM      2  N   UNL     1      -1.466  12.693  18.952  0.00  0.00    +0.000 NA
ATOM      3  C   UNL     1      -0.994  11.404  18.446  0.00  0.00    +0.000 A 
ATOM      4  C   UNL     1      -1.730  10.131  17.842  0.00  0.00    +0.000 C 
ATOM      5  C   UNL     1       0.420  11.356  18.555  0.00  0.00    +0.000 A 
ATOM      6  C   UNL     1       0.874  12.531  19.072  0.00  0.00    +0.000 A 
ATOM      7  C   UNL     1       2.269  12.721  19.247  0.00  0.00    +0.000 C 
ENDROOT
BRANCH   5   8
ATOM      8  N   UNL     1       1.277  10.340  18.195  0.00  0.00    +0.000 N 
ATOM      9  C   UNL     1       1.398   9.069  18.803  0.00  0.00    +0.000 A 
ATOM     10  N   UNL     1       1.104   9.011  20.175  0.00  0.00    +0.000 NA
ATOM     11  C   UNL     1       1.507   7.905  20.829  0.00  0.00    +0.000 A 
ATOM     12  C   UNL     1       2.007   6.804  20.186  0.00  0.00    +0.000 A 
ATOM     13 CL   UNL     1       2.305   5.361  21.059  0.00  0.00    +0.000 Cl
ATOM     14  C   UNL     1       2.227   6.914  18.825  0.00  0.00    +0.000 A 
ATOM     15  N   UNL     1       1.995   8.052  18.132  0.00  0.00    +0.000 NA
ATOM     16  H   UNL     1       1.894  10.413  17.396  0.00  0.00    +0.000 HD
BRANCH  14  17
ATOM     17  C   UNL     1       2.750   5.797  18.060  0.00  0.00    +0.000 A 
ATOM     18  C   UNL     1       2.113   4.553  17.793  0.00  0.00    +0.000 A 
ATOM     19  N   UNL     1       2.902   3.722  17.132  0.00  0.00    +0.000 NA
ATOM     20  N   UNL     1       4.046   4.338  16.938  0.00  0.00    +0.000 N 
ATOM     21  C   UNL     1       5.146   3.815  16.296  0.00  0.00    +0.000 A 
ATOM     22  C   UNL     1       6.177   4.695  16.267  0.00  0.00    +0.000 A 
ATOM     23  C   UNL     1       7.182   5.512  16.223  0.00  0.00    +0.000 A 
ATOM     24  C   UNL     1       5.725   6.249  17.110  0.00  0.00    +0.000 A 
ATOM     25  C   UNL     1       4.101   5.596  17.452  0.00  0.00    +0.000 A 
ENDBRANCH  14  17
ENDBRANCH   5   8
BRANCH   1  29
ATOM     26  N   UNL     1      -1.714  15.103  22.320  0.00  0.00    +0.000 NA
ATOM     27  C   UNL     1      -0.524  14.304  22.437  0.00  0.00    +0.000 C 
ATOM     28  C   UNL     1       0.581  14.676  21.524  0.00  0.00    +0.000 C 
ATOM     29  C   UNL     1       0.137  14.803  20.053  0.00  0.00    +0.000 C 
ATOM     30  C   UNL     1      -1.080  15.724  20.013  0.00  0.00    +0.000 C 
ATOM     31  C   UNL     1      -2.122  15.272  20.934  0.00  0.00    +0.000 C 
BRANCH  26  32
ATOM     32  C   UNL     1      -2.842  14.640  23.165  0.00  0.00    +0.000 C 
BRANCH  32  35
ATOM     33  C   UNL     1      -5.591  12.644  21.248  0.00  0.00    +0.000 C 
ATOM     34  N   UNL     1      -4.872  13.720  21.935  0.00  0.00    +0.000 N 
ATOM     35  C   UNL     1      -3.616  13.488  22.461  0.00  0.00    +0.000 C 
ATOM     36  O   UNL     1      -3.152  12.359  22.322  0.00  0.00    +0.000 OA
ATOM     37  H   UNL     1      -5.318  14.628  21.976  0.00  0.00    +0.000 HD
ENDBRANCH  32  35
ENDBRANCH  26  32
ENDBRANCH   1  29
TORSDOF 5
ENDMDL
MODEL 5
REMARK VINA RESULT:      -8.1      2.619      3.491
REMARK  Name = 
REMARK  8 active torsions:
REMARK  status: ('A' for Active; 'I' for Inactive)
REMARK    1  A    between atoms: C_1  and  N_2
REMARK    2  A    between atoms: C_3  and  C_5
REMARK    3  A    between atoms: C_5  and  N_6
REMARK    4  A    between atoms: C_9  and  N_10
REMARK    5  A    between atoms: C_12  and  C_13
REMARK    6  A    between atoms: C_14  and  N_15
REMARK    7  A    between atoms: C_21  and  C_22
REMARK    8  A    between atoms: C_32  and  C_33
REMARK                            x       y       z     vdW  Elec       q    Type
REMARK                         _______ _______ _______ _____ _____    ______ ____
ROOT
ATOM      1  N   UNL     1       0.336  13.757  18.847  0.00  0.00    +0.000 N 
ATOM      2  N   UNL     1      -1.037  12.978  18.815  0.00  0.00    +0.000 NA
ATOM      3  C   UNL     1      -0.646  11.607  18.485  0.00  0.00    +0.000 A 
ATOM      4  C   UNL     1      -1.460  10.258  18.277  0.00  0.00    +0.000 C 
ATOM      5  C   UNL     1       0.765  11.552  18.342  0.00  0.00    +0.000 A 
ATOM      6  C   UNL     1       1.287  12.795  18.535  0.00  0.00    +0.000 A 
ATOM      7  C   UNL     1       2.688  12.987  18.414  0.00  0.00    +0.000 C 
ENDROOT
BRANCH   5   8
ATOM      8  N   UNL     1       1.557  10.470  18.031  0.00  0.00    +0.000 N 
ATOM      9  C   UNL     1       1.569   9.208  18.670  0.00  0.00    +0.000 A 
ATOM     10  N   UNL     1       1.233   9.205  20.033  0.00  0.00    +0.000 NA
ATOM     11  C   UNL     1       1.537   8.089  20.723  0.00  0.00    +0.000 A 
ATOM     12  C   UNL     1       1.975   6.940  20.120  0.00  0.00    +0.000 A 
ATOM     13 CL   UNL     1       2.144   5.501  21.034  0.00  0.00    +0.000 Cl
ATOM     14  C   UNL     1       2.241   7.001  18.764  0.00  0.00    +0.000 A 
ATOM     15  N   UNL     1       2.112   8.136  18.040  0.00  0.00    +0.000 NA
ATOM     16  H   UNL     1       2.201  10.480  17.249  0.00  0.00    +0.000 HD
BRANCH  14  17
ATOM     17  C   UNL     1       2.706   5.832  18.041  0.00  0.00    +0.000 A 
ATOM     18  C   UNL     1       2.018   4.601  17.848  0.00  0.00    +0.000 A 
ATOM     19  N   UNL     1       2.760   3.712  17.209  0.00  0.00    +0.000 NA
ATOM     20  N   UNL     1       3.920   4.276  16.957  0.00  0.00    +0.000 N 
ATOM     21  C   UNL     1       4.984   3.686  16.314  0.00  0.00    +0.000 A 
ATOM     22  C   UNL     1       6.044   4.525  16.219  0.00  0.00    +0.000 A 
ATOM     23  C   UNL     1       7.075   5.303  16.112  0.00  0.00    +0.000 A 
ATOM     24  C   UNL     1       5.668   6.132  16.998  0.00  0.00    +0.000 A 
ATOM     25  C   UNL     1       4.032   5.554  17.410  0.00  0.00    +0.000 A 
ENDBRANCH  14  17
ENDBRANCH   5   8
BRANCH   1  29
ATOM     26  N   UNL     1      -0.820  16.035  21.567  0.00  0.00    +0.000 NA
ATOM     27  C   UNL     1       0.369  15.235  21.687  0.00  0.00    +0.000 C 
ATOM     28  C   UNL     1       1.345  15.380  20.582  0.00  0.00    +0.000 C 
ATOM     29  C   UNL     1       0.708  15.225  19.186  0.00  0.00    +0.000 C 
ATOM     30  C   UNL     1      -0.497  16.161  19.120  0.00  0.00    +0.000 C 
ATOM     31  C   UNL     1      -1.409  15.937  20.241  0.00  0.00    +0.000 C 
BRANCH  26  32
ATOM     32  C   UNL     1      -1.827  15.788  22.627  0.00  0.00    +0.000 C 
BRANCH  32  35
ATOM     33  C   UNL     1      -2.201  11.936  23.112  0.00  0.00    +0.000 C 
ATOM     34  N   UNL     1      -2.356  13.298  22.596  0.00  0.00    +0.000 N 
ATOM     35  C   UNL     1      -1.683  14.346  23.194  0.00  0.00    +0.000 C 
ATOM     36  O   UNL     1      -0.968  14.074  24.155  0.00  0.00    +0.000 OA
ATOM     37  H   UNL     1      -2.943  13.425  21.781  0.00  0.00    +0.000 HD
ENDBRANCH  32  35
ENDBRANCH  26  32
ENDBRANCH   1  29
TORSDOF 5
ENDMDL
MODEL 6
REMARK VINA RESULT:      -8.0      1.467      2.901
REMARK  Name = 
REMARK  8 active torsions:
REMARK  status: ('A' for Active; 'I' for Inactive)
REMARK    1  A    between atoms: C_1  and  N_2
REMARK    2  A    between atoms: C_3  and  C_5
REMARK    3  A    between atoms: C_5  and  N_6
REMARK    4  A    between atoms: C_9  and  N_10
REMARK    5  A    between atoms: C_12  and  C_13
REMARK    6  A    between atoms: C_14  and  N_15
REMARK    7  A    between atoms: C_21  and  C_22
REMARK    8  A    between atoms: C_32  and  C_33
REMARK                            x       y       z     vdW  Elec       q    Type
REMARK                         _______ _______ _______ _____ _____    ______ ____
ROOT
ATOM      1  N   UNL     1      -3.930  12.097  18.777  0.00  0.00    +0.000 N 
ATOM      2  N   UNL     1      -3.416  12.910  20.029  0.00  0.00    +0.000 NA
ATOM      3  C   UNL     1      -1.995  12.568  20.102  0.00  0.00    +0.000 A 
ATOM      4  C   UNL     1      -0.818  12.989  21.083  0.00  0.00    +0.000 C 
ATOM      5  C   UNL     1      -1.681  11.677  19.043  0.00  0.00    +0.000 A 
ATOM      6  C   UNL     1      -2.807  11.416  18.322  0.00  0.00    +0.000 A 
ATOM      7  C   UNL     1      -2.737  10.523  17.222  0.00  0.00    +0.000 C 
ENDROOT
BRANCH   5   8
ATOM      8  N   UNL     1      -0.471  11.098  18.735  0.00  0.00    +0.000 N 
ATOM      9  C   UNL     1       0.051   9.886  19.246  0.00  0.00    +0.000 A 
ATOM     10  N   UNL     1      -0.351   9.541  20.546  0.00  0.00    +0.000 NA
ATOM     11  C   UNL     1       0.362   8.577  21.159  0.00  0.00    +0.000 A 
ATOM     12  C   UNL     1       1.308   7.829  20.511  0.00  0.00    +0.000 A 
ATOM     13 CL   UNL     1       2.028   6.487  21.296  0.00  0.00    +0.000 Cl
ATOM     14  C   UNL     1       1.622   8.194  19.214  0.00  0.00    +0.000 A 
ATOM     15  N   UNL     1       1.058   9.255  18.592  0.00  0.00    +0.000 NA
ATOM     16  H   UNL     1       0.159  11.496  18.050  0.00  0.00    +0.000 HD
BRANCH  14  17
ATOM     17  C   UNL     1       2.609   7.456  18.448  0.00  0.00    +0.000 A 
ATOM     18  C   UNL     1       3.697   7.984  17.697  0.00  0.00    +0.000 A 
ATOM     19  N   UNL     1       4.358   7.040  17.049  0.00  0.00    +0.000 NA
ATOM     20  N   UNL     1       3.774   5.894  17.320  0.00  0.00    +0.000 N 
ATOM     21  C   UNL     1       4.148   4.662  16.835  0.00  0.00    +0.000 A 
ATOM     22  C   UNL     1       3.338   3.674  17.290  0.00  0.00    +0.000 A 
ATOM     23  C   UNL     1       2.582   2.708  17.707  0.00  0.00    +0.000 A 
ATOM     24  C   UNL     1       2.035   4.355  18.372  0.00  0.00    +0.000 A 
ATOM     25  C   UNL     1       2.698   5.995  18.146  0.00  0.00    +0.000 A 
ENDBRANCH  14  17
ENDBRANCH   5   8
BRANCH   1  29
ATOM     26  N   UNL     1      -7.404  11.921  20.123  0.00  0.00    +0.000 NA
ATOM     27  C   UNL     1      -6.785  13.165  19.753  0.00  0.00    +0.000 C 
ATOM     28  C   UNL     1      -6.223  13.211  18.384  0.00  0.00    +0.000 C 
ATOM     29  C   UNL     1      -5.305  12.015  18.063  0.00  0.00    +0.000 C 
ATOM     30  C   UNL     1      -6.067  10.738  18.414  0.00  0.00    +0.000 C 
ATOM     31  C   UNL     1      -6.571  10.778  19.786  0.00  0.00    +0.000 C 
BRANCH  26  32
ATOM     32  C   UNL     1      -7.858  11.864  21.534  0.00  0.00    +0.000 C 
BRANCH  32  35
ATOM     33  C   UNL     1      -6.511  14.770  23.761  0.00  0.00    +0.000 C 
ATOM     34  N   UNL     1      -7.366  13.965  22.884  0.00  0.00    +0.000 N 
ATOM     35  C   UNL     1      -6.936  12.730  22.440  0.00  0.00    +0.000 C 
ATOM     36  O   UNL     1      -5.826  12.358  22.814  0.00  0.00    +0.000 OA
ATOM     37  H   UNL     1      -8.279  14.338  22.652  0.00  0.00    +0.000 HD
ENDBRANCH  32  35
ENDBRANCH  26  32
ENDBRANCH   1  29
TORSDOF 5
ENDMDL
MODEL 7
REMARK VINA RESULT:      -8.0      2.135      2.992
REMARK  Name = 
REMARK  8 active torsions:
REMARK  status: ('A' for Active; 'I' for Inactive)
REMARK    1  A    between atoms: C_1  and  N_2
REMARK    2  A    between atoms: C_3  and  C_5
REMARK    3  A    between atoms: C_5  and  N_6
REMARK    4  A    between atoms: C_9  and  N_10
REMARK    5  A    between atoms: C_12  and  C_13
REMARK    6  A    between atoms: C_14  and  N_15
REMARK    7  A    between atoms: C_21  and  C_22
REMARK    8  A    between atoms: C_32  and  C_33
REMARK                            x       y       z     vdW  Elec       q    Type
REMARK                         _______ _______ _______ _____ _____    ______ ____
ROOT
ATOM      1  N   UNL     1       0.372  13.816  19.066  0.00  0.00    +0.000 N 
ATOM      2  N   UNL     1      -1.016  13.093  18.856  0.00  0.00    +0.000 NA
ATOM      3  C   UNL     1      -0.640  11.735  18.462  0.00  0.00    +0.000 A 
ATOM      4  C   UNL     1      -1.475  10.436  18.084  0.00  0.00    +0.000 C 
ATOM      5  C   UNL     1       0.775  11.637  18.440  0.00  0.00    +0.000 A 
ATOM      6  C   UNL     1       1.317  12.842  18.770  0.00  0.00    +0.000 A 
ATOM      7  C   UNL     1       2.729  12.988  18.787  0.00  0.00    +0.000 C 
ENDROOT
BRANCH   5   8
ATOM      8  N   UNL     1       1.558  10.550  18.122  0.00  0.00    +0.000 N 
ATOM      9  C   UNL     1       1.553   9.282  18.748  0.00  0.00    +0.000 A 
ATOM     10  N   UNL     1       1.210   9.267  20.109  0.00  0.00    +0.000 NA
ATOM     11  C   UNL     1       1.499   8.141  20.789  0.00  0.00    +0.000 A 
ATOM     12  C   UNL     1       1.928   6.995  20.177  0.00  0.00    +0.000 A 
ATOM     13 CL   UNL     1       2.078   5.544  21.076  0.00  0.00    +0.000 Cl
ATOM     14  C   UNL     1       2.202   7.067  18.823  0.00  0.00    +0.000 A 
ATOM     15  N   UNL     1       2.088   8.210  18.109  0.00  0.00    +0.000 NA
ATOM     16  H   UNL     1       2.206  10.561  17.344  0.00  0.00    +0.000 HD
BRANCH  14  17
ATOM     17  C   UNL     1       2.658   5.900  18.089  0.00  0.00    +0.000 A 
ATOM     18  C   UNL     1       1.938   4.699  17.835  0.00  0.00    +0.000 A 
ATOM     19  N   UNL     1       2.678   3.801  17.205  0.00  0.00    +0.000 NA
ATOM     20  N   UNL     1       3.866   4.330  17.019  0.00  0.00    +0.000 N 
ATOM     21  C   UNL     1       4.936   3.719  16.407  0.00  0.00    +0.000 A 
ATOM     22  C   UNL     1       6.028   4.523  16.380  0.00  0.00    +0.000 A 
ATOM     23  C   UNL     1       7.088   5.267  16.338  0.00  0.00    +0.000 A 
ATOM     24  C   UNL     1       5.672   6.122  17.185  0.00  0.00    +0.000 A 
ATOM     25  C   UNL     1       4.001   5.592  17.510  0.00  0.00    +0.000 A 
ENDBRANCH  14  17
ENDBRANCH   5   8
BRANCH   1  29
ATOM     26  N   UNL     1      -1.569  16.415  20.909  0.00  0.00    +0.000 NA
ATOM     27  C   UNL     1      -0.713  15.474  21.580  0.00  0.00    +0.000 C 
ATOM     28  C   UNL     1       0.677  15.408  21.074  0.00  0.00    +0.000 C 
ATOM     29  C   UNL     1       0.758  15.241  19.543  0.00  0.00    +0.000 C 
ATOM     30  C   UNL     1      -0.116  16.322  18.911  0.00  0.00    +0.000 C 
ATOM     31  C   UNL     1      -1.471  16.303  19.462  0.00  0.00    +0.000 C 
BRANCH  26  32
ATOM     32  C   UNL     1      -2.981  16.381  21.361  0.00  0.00    +0.000 C 
BRANCH  32  35
ATOM     33  C   UNL     1      -4.190  12.771  20.515  0.00  0.00    +0.000 C 
ATOM     34  N   UNL     1      -3.751  14.162  20.381  0.00  0.00    +0.000 N 
ATOM     35  C   UNL     1      -3.474  14.913  21.506  0.00  0.00    +0.000 C 
ATOM     36  O   UNL     1      -3.614  14.360  22.595  0.00  0.00    +0.000 OA
ATOM     37  H   UNL     1      -3.634  14.526  19.443  0.00  0.00    +0.000 HD
ENDBRANCH  32  35
ENDBRANCH  26  32
ENDBRANCH   1  29
TORSDOF 5
ENDMDL
MODEL 8
REMARK VINA RESULT:      -8.0      1.460      2.290
REMARK  Name = 
REMARK  8 active torsions:
REMARK  status: ('A' for Active; 'I' for Inactive)
REMARK    1  A    between atoms: C_1  and  N_2
REMARK    2  A    between atoms: C_3  and  C_5
REMARK    3  A    between atoms: C_5  and  N_6
REMARK    4  A    between atoms: C_9  and  N_10
REMARK    5  A    between atoms: C_12  and  C_13
REMARK    6  A    between atoms: C_14  and  N_15
REMARK    7  A    between atoms: C_21  and  C_22
REMARK    8  A    between atoms: C_32  and  C_33
REMARK                            x       y       z     vdW  Elec       q    Type
REMARK                         _______ _______ _______ _____ _____    ______ ____
ROOT
ATOM      1  N   UNL     1      -0.829  13.143  20.020  0.00  0.00    +0.000 N 
ATOM      2  N   UNL     1      -1.968  12.485  19.147  0.00  0.00    +0.000 NA
ATOM      3  C   UNL     1      -1.300  11.351  18.508  0.00  0.00    +0.000 A 
ATOM      4  C   UNL     1      -1.784  10.225  17.496  0.00  0.00    +0.000 C 
ATOM      5  C   UNL     1       0.053  11.315  18.934  0.00  0.00    +0.000 A 
ATOM      6  C   UNL     1       0.291  12.358  19.777  0.00  0.00    +0.000 A 
ATOM      7  C   UNL     1       1.593  12.539  20.310  0.00  0.00    +0.000 C 
ENDROOT
BRANCH   5   8
ATOM      8  N   UNL     1       1.043  10.425  18.582  0.00  0.00    +0.000 N 
ATOM      9  C   UNL     1       1.237   9.118  19.090  0.00  0.00    +0.000 A 
ATOM     10  N   UNL     1       0.821   8.903  20.413  0.00  0.00    +0.000 NA
ATOM     11  C   UNL     1       1.272   7.783  21.010  0.00  0.00    +0.000 A 
ATOM     12  C   UNL     1       1.944   6.801  20.332  0.00  0.00    +0.000 A 
ATOM     13 CL   UNL     1       2.307   5.317  21.107  0.00  0.00    +0.000 Cl
ATOM     14  C   UNL     1       2.282   7.060  19.016  0.00  0.00    +0.000 A 
ATOM     15  N   UNL     1       2.001   8.232  18.401  0.00  0.00    +0.000 NA
ATOM     16  H   UNL     1       1.724  10.632  17.862  0.00  0.00    +0.000 HD
BRANCH  14  17
ATOM     17  C   UNL     1       2.992   6.077  18.219  0.00  0.00    +0.000 A 
ATOM     18  C   UNL     1       2.515   4.810  17.778  0.00  0.00    +0.000 A 
ATOM     19  N   UNL     1       3.447   4.124  17.138  0.00  0.00    +0.000 NA
ATOM     20  N   UNL     1       4.536   4.860  17.122  0.00  0.00    +0.000 N 
ATOM     21  C   UNL     1       5.742   4.507  16.561  0.00  0.00    +0.000 A 
ATOM     22  C   UNL     1       6.675   5.478  16.720  0.00  0.00    +0.000 A 
ATOM     23  C   UNL     1       7.589   6.386  16.857  0.00  0.00    +0.000 A 
ATOM     24  C   UNL     1       5.983   6.894  17.641  0.00  0.00    +0.000 A 
ATOM     25  C   UNL     1       4.410   6.062  17.747  0.00  0.00    +0.000 A 
ENDBRANCH  14  17
ENDBRANCH   5   8
BRANCH   1  29
ATOM     26  N   UNL     1      -2.794  13.808  23.121  0.00  0.00    +0.000 NA
ATOM     27  C   UNL     1      -1.495  13.191  23.151  0.00  0.00    +0.000 C 
ATOM     28  C   UNL     1      -0.425  13.931  22.443  0.00  0.00    +0.000 C 
ATOM     29  C   UNL     1      -0.815  14.339  21.009  0.00  0.00    +0.000 C 
ATOM     30  C   UNL     1      -2.165  15.051  21.079  0.00  0.00    +0.000 C 
ATOM     31  C   UNL     1      -3.159  14.240  21.781  0.00  0.00    +0.000 C 
BRANCH  26  32
ATOM     32  C   UNL     1      -3.868  12.993  23.739  0.00  0.00    +0.000 C 
BRANCH  32  35
ATOM     33  C   UNL     1      -6.985  12.592  21.429  0.00  0.00    +0.000 C 
ATOM     34  N   UNL     1      -5.691  12.365  22.078  0.00  0.00    +0.000 N 
ATOM     35  C   UNL     1      -5.228  13.252  23.030  0.00  0.00    +0.000 C 
ATOM     36  O   UNL     1      -5.946  14.214  23.292  0.00  0.00    +0.000 OA
ATOM     37  H   UNL     1      -5.181  11.529  21.822  0.00  0.00    +0.000 HD
ENDBRANCH  32  35
ENDBRANCH  26  32
ENDBRANCH   1  29
TORSDOF 5
ENDMDL
MODEL 9
REMARK VINA RESULT:      -7.9      2.985      4.072
REMARK  Name = 
REMARK  8 active torsions:
REMARK  status: ('A' for Active; 'I' for Inactive)
REMARK    1  A    between atoms: C_1  and  N_2
REMARK    2  A    between atoms: C_3  and  C_5
REMARK    3  A    between atoms: C_5  and  N_6
REMARK    4  A    between atoms: C_9  and  N_10
REMARK    5  A    between atoms: C_12  and  C_13
REMARK    6  A    between atoms: C_14  and  N_15
REMARK    7  A    between atoms: C_21  and  C_22
REMARK    8  A    between atoms: C_32  and  C_33
REMARK                            x       y       z     vdW  Elec       q    Type
REMARK                         _______ _______ _______ _____ _____    ______ ____
ROOT
ATOM      1  N   UNL     1       0.243  13.708  18.889  0.00  0.00    +0.000 N 
ATOM      2  N   UNL     1      -1.127  12.927  18.797  0.00  0.00    +0.000 NA
ATOM      3  C   UNL     1      -0.723  11.566  18.443  0.00  0.00    +0.000 A 
ATOM      4  C   UNL     1      -1.528  10.221  18.177  0.00  0.00    +0.000 C 
ATOM      5  C   UNL     1       0.691  11.517  18.340  0.00  0.00    +0.000 A 
ATOM      6  C   UNL     1       1.206  12.755  18.580  0.00  0.00    +0.000 A 
ATOM      7  C   UNL     1       2.609  12.952  18.504  0.00  0.00    +0.000 C 
ENDROOT
BRANCH   5   8
ATOM      8  N   UNL     1       1.495  10.444  18.024  0.00  0.00    +0.000 N 
ATOM      9  C   UNL     1       1.530   9.185  18.668  0.00  0.00    +0.000 A 
ATOM     10  N   UNL     1       1.208   9.182  20.034  0.00  0.00    +0.000 NA
ATOM     11  C   UNL     1       1.533   8.072  20.725  0.00  0.00    +0.000 A 
ATOM     12  C   UNL     1       1.980   6.928  20.122  0.00  0.00    +0.000 A 
ATOM     13 CL   UNL     1       2.178   5.494  21.039  0.00  0.00    +0.000 Cl
ATOM     14  C   UNL     1       2.232   6.987  18.763  0.00  0.00    +0.000 A 
ATOM     15  N   UNL     1       2.080   8.118  18.036  0.00  0.00    +0.000 NA
ATOM     16  H   UNL     1       2.130  10.460  17.237  0.00  0.00    +0.000 HD
BRANCH  14  17
ATOM     17  C   UNL     1       2.705   5.822  18.039  0.00  0.00    +0.000 A 
ATOM     18  C   UNL     1       2.024   4.587  17.843  0.00  0.00    +0.000 A 
ATOM     19  N   UNL     1       2.772   3.703  17.204  0.00  0.00    +0.000 NA
ATOM     20  N   UNL     1       3.930   4.274  16.956  0.00  0.00    +0.000 N 
ATOM     21  C   UNL     1       4.999   3.690  16.315  0.00  0.00    +0.000 A 
ATOM     22  C   UNL     1       6.055   4.535  16.224  0.00  0.00    +0.000 A 
ATOM     23  C   UNL     1       7.082   5.318  16.121  0.00  0.00    +0.000 A 
ATOM     24  C   UNL     1       5.668   6.138  17.005  0.00  0.00    +0.000 A 
ATOM     25  C   UNL     1       4.035   5.552  17.412  0.00  0.00    +0.000 A 
ENDBRANCH  14  17
ENDBRANCH   5   8
BRANCH   1  29
ATOM     26  N   UNL     1      -0.877  15.859  21.723  0.00  0.00    +0.000 NA
ATOM     27  C   UNL     1       0.326  15.075  21.782  0.00  0.00    +0.000 C 
ATOM     28  C   UNL     1       1.271  15.277  20.660  0.00  0.00    +0.000 C 
ATOM     29  C   UNL     1       0.602  15.167  19.275  0.00  0.00    +0.000 C 
ATOM     30  C   UNL     1      -0.618  16.085  19.275  0.00  0.00    +0.000 C 
ATOM     31  C   UNL     1      -1.498  15.804  20.408  0.00  0.00    +0.000 C 
BRANCH  26  32
ATOM     32  C   UNL     1      -1.854  15.556  22.797  0.00  0.00    +0.000 C 
BRANCH  32  35
ATOM     33  C   UNL     1      -0.909  15.884  26.567  0.00  0.00    +0.000 C 
ATOM     34  N   UNL     1      -1.390  15.348  25.291  0.00  0.00    +0.000 N 
ATOM     35  C   UNL     1      -1.370  16.136  24.156  0.00  0.00    +0.000 C 
ATOM     36  O   UNL     1      -0.938  17.280  24.279  0.00  0.00    +0.000 OA
ATOM     37  H   UNL     1      -1.700  14.385  25.276  0.00  0.00    +0.000 HD
ENDBRANCH  32  35
ENDBRANCH  26  32
ENDBRANCH   1  29
TORSDOF 5
ENDMDL
