MODEL 1
REMARK VINA RESULT:      -7.6      0.000      0.000
REMARK  Name = 
REMARK  5 active torsions:
REMARK  status: ('A' for Active; 'I' for Inactive)
REMARK    1  A    between atoms: C_5  and  C_6
REMARK    2  A    between atoms: C_6  and  C_7
REMARK    3  A    between atoms: C_7  and  O_8
REMARK    4  A    between atoms: O_8  and  C_9
REMARK    5  A    between atoms: C_14  and  N_15
REMARK                            x       y       z     vdW  Elec       q    Type
REMARK                         _______ _______ _______ _____ _____    ______ ____
ROOT
ATOM      1  C   UNL     1       2.714   5.218  18.559  0.00  0.00    +0.000 C 
ATOM      2  C   UNL     1       1.589   4.383  17.924  0.00  0.00    +0.000 C 
ATOM      3  C   UNL     1       1.753   2.871  18.072  0.00  0.00    +0.000 C 
ATOM      4  C   UNL     1       3.167   2.342  17.858  0.00  0.00    +0.000 C 
ATOM      5  C   UNL     1       4.237   3.212  18.496  0.00  0.00    +0.000 C 
ATOM      6  C   UNL     1       4.137   4.712  18.138  0.00  0.00    +0.000 C 
ENDROOT
BRANCH   6   7
ATOM      7  N   UNL     1       4.688   5.161  16.841  0.00  0.00    +0.000 NA
ATOM      8  C   UNL     1       5.591   4.359  16.014  0.00  0.00    +0.000 C 
ATOM      9  C   UNL     1       7.093   4.631  16.209  0.00  0.00    +0.000 C 
ATOM     10  O   UNL     1       7.405   6.028  16.139  0.00  0.00    +0.000 OA
ATOM     11  C   UNL     1       6.601   6.786  17.051  0.00  0.00    +0.000 C 
ATOM     12  C   UNL     1       5.101   6.575  16.784  0.00  0.00    +0.000 C 
ENDBRANCH   6   7
BRANCH   1  13
ATOM     13  O   UNL     1       2.653   5.141  20.011  0.00  0.00    +0.000 OA
BRANCH  13  14
ATOM     14  C   UNL     1       1.768   6.081  20.629  0.00  0.00    +0.000 C 
BRANCH  14  15
ATOM     15  C   UNL     1       1.926   7.496  20.031  0.00  0.00    +0.000 C 
BRANCH  15  20
ATOM     16 BR   UNL     1      -1.298  12.126  22.658  0.00  0.00    +0.000 Br
ATOM     17  C   UNL     1      -0.288  10.733  21.877  0.00  0.00    +0.000 A 
ATOM     18  C   UNL     1       0.014  10.779  20.522  0.00  0.00    +0.000 A 
ATOM     19  C   UNL     1       0.750   9.739  19.941  0.00  0.00    +0.000 A 
ATOM     20  C   UNL     1       1.196   8.643  20.708  0.00  0.00    +0.000 A 
ATOM     21  C   UNL     1       0.872   8.621  22.071  0.00  0.00    +0.000 A 
ATOM     22  C   UNL     1       0.138   9.662  22.657  0.00  0.00    +0.000 A 
ENDBRANCH  15  20
ENDBRANCH  14  15
ENDBRANCH  13  14
ENDBRANCH   1  13
TORSDOF 5
ENDMDL
MODEL 2
REMARK VINA RESULT:      -7.5      4.324      7.026
REMARK  Name = 
REMARK  5 active torsions:
REMARK  status: ('A' for Active; 'I' for Inactive)
REMARK    1  A    between atoms: C_5  and  C_6
REMARK    2  A    between atoms: C_6  and  C_7
REMARK    3  A    between atoms: C_7  and  O_8
REMARK    4  A    between atoms: O_8  and  C_9
REMARK    5  A    between atoms: C_14  and  N_15
REMARK                            x       y       z     vdW  Elec       q    Type
REMARK                         _______ _______ _______ _____ _____    ______ ____
ROOT
ATOM      1  C   UNL     1       7.071   6.113  17.524  0.00  0.00    +0.000 C 
ATOM      2  C   UNL     1       7.547   4.820  16.840  0.00  0.00    +0.000 C 
ATOM      3  C   UNL     1       7.014   4.614  15.423  0.00  0.00    +0.000 C 
ATOM      4  C   UNL     1       5.544   4.963  15.219  0.00  0.00    +0.000 C 
ATOM      5  C   UNL     1       5.127   6.242  15.927  0.00  0.00    +0.000 C 
ATOM      6  C   UNL     1       5.518   6.301  17.421  0.00  0.00    +0.000 C 
ENDROOT
BRANCH   6   7
ATOM      7  N   UNL     1       4.658   5.599  18.399  0.00  0.00    +0.000 NA
ATOM      8  C   UNL     1       4.284   4.187  18.295  0.00  0.00    +0.000 C 
ATOM      9  C   UNL     1       2.933   3.902  17.616  0.00  0.00    +0.000 C 
ATOM     10  O   UNL     1       1.873   4.696  18.163  0.00  0.00    +0.000 OA
ATOM     11  C   UNL     1       2.201   6.090  18.138  0.00  0.00    +0.000 C 
ATOM     12  C   UNL     1       3.508   6.372  18.900  0.00  0.00    +0.000 C 
ENDBRANCH   6   7
BRANCH   1  13
ATOM     13  O   UNL     1       7.678   7.279  16.898  0.00  0.00    +0.000 OA
BRANCH  13  14
ATOM     14  C   UNL     1       7.523   8.503  17.624  0.00  0.00    +0.000 C 
BRANCH  14  15
ATOM     15  C   UNL     1       8.693   8.739  18.604  0.00  0.00    +0.000 C 
BRANCH  15  20
ATOM     16 BR   UNL     1      10.541  14.524  19.963  0.00  0.00    +0.000 Br
ATOM     17  C   UNL     1       9.944  12.779  19.549  0.00  0.00    +0.000 A 
ATOM     18  C   UNL     1       9.929  11.806  20.539  0.00  0.00    +0.000 A 
ATOM     19  C   UNL     1       9.500  10.509  20.228  0.00  0.00    +0.000 A 
ATOM     20  C   UNL     1       9.079  10.173  18.925  0.00  0.00    +0.000 A 
ATOM     21  C   UNL     1       9.109  11.174  17.946  0.00  0.00    +0.000 A 
ATOM     22  C   UNL     1       9.535  12.474  18.254  0.00  0.00    +0.000 A 
ENDBRANCH  15  20
ENDBRANCH  14  15
ENDBRANCH  13  14
ENDBRANCH   1  13
TORSDOF 5
ENDMDL
MODEL 3
REMARK VINA RESULT:      -7.3      4.452      7.103
REMARK  Name = 
REMARK  5 active torsions:
REMARK  status: ('A' for Active; 'I' for Inactive)
REMARK    1  A    between atoms: C_5  and  C_6
REMARK    2  A    between atoms: C_6  and  C_7
REMARK    3  A    between atoms: C_7  and  O_8
REMARK    4  A    between atoms: O_8  and  C_9
REMARK    5  A    between atoms: C_14  and  N_15
REMARK                            x       y       z     vdW  Elec       q    Type
REMARK                         _______ _______ _______ _____ _____    ______ ____
ROOT
ATOM      1  C   UNL     1       7.061   6.141  17.722  0.00  0.00    +0.000 C 
ATOM      2  C   UNL     1       7.452   4.754  17.184  0.00  0.00    +0.000 C 
ATOM      3  C   UNL     1       6.998   4.473  15.753  0.00  0.00    +0.000 C 
ATOM      4  C   UNL     1       5.586   4.938  15.410  0.00  0.00    +0.000 C 
ATOM      5  C   UNL     1       5.251   6.307  15.978  0.00  0.00    +0.000 C 
ATOM      6  C   UNL     1       5.544   6.461  17.487  0.00  0.00    +0.000 C 
ENDROOT
BRANCH   6   7
ATOM      7  N   UNL     1       4.555   5.932  18.451  0.00  0.00    +0.000 NA
ATOM      8  C   UNL     1       4.862   4.923  19.467  0.00  0.00    +0.000 C 
ATOM      9  C   UNL     1       4.555   3.467  19.076  0.00  0.00    +0.000 C 
ATOM     10  O   UNL     1       3.229   3.313  18.555  0.00  0.00    +0.000 OA
ATOM     11  C   UNL     1       2.987   4.220  17.473  0.00  0.00    +0.000 C 
ATOM     12  C   UNL     1       3.210   5.680  17.905  0.00  0.00    +0.000 C 
ENDBRANCH   6   7
BRANCH   1  13
ATOM     13  O   UNL     1       7.820   7.185  17.051  0.00  0.00    +0.000 OA
BRANCH  13  14
ATOM     14  C   UNL     1       7.533   8.517  17.489  0.00  0.00    +0.000 C 
BRANCH  14  15
ATOM     15  C   UNL     1       8.598   9.038  18.478  0.00  0.00    +0.000 C 
BRANCH  15  20
ATOM     16 BR   UNL     1      10.401  14.975  17.995  0.00  0.00    +0.000 Br
ATOM     17  C   UNL     1       9.877  13.163  18.114  0.00  0.00    +0.000 A 
ATOM     18  C   UNL     1       8.640  12.771  17.619  0.00  0.00    +0.000 A 
ATOM     19  C   UNL     1       8.247  11.431  17.721  0.00  0.00    +0.000 A 
ATOM     20  C   UNL     1       9.088  10.466  18.315  0.00  0.00    +0.000 A 
ATOM     21  C   UNL     1      10.328  10.892  18.810  0.00  0.00    +0.000 A 
ATOM     22  C   UNL     1      10.726  12.232  18.707  0.00  0.00    +0.000 A 
ENDBRANCH  15  20
ENDBRANCH  14  15
ENDBRANCH  13  14
ENDBRANCH   1  13
TORSDOF 5
ENDMDL
MODEL 4
REMARK VINA RESULT:      -7.3      1.728      3.948
REMARK  Name = 
REMARK  5 active torsions:
REMARK  status: ('A' for Active; 'I' for Inactive)
REMARK    1  A    between atoms: C_5  and  C_6
REMARK    2  A    between atoms: C_6  and  C_7
REMARK    3  A    between atoms: C_7  and  O_8
REMARK    4  A    between atoms: O_8  and  C_9
REMARK    5  A    between atoms: C_14  and  N_15
REMARK                            x       y       z     vdW  Elec       q    Type
REMARK                         _______ _______ _______ _____ _____    ______ ____
ROOT
ATOM      1  C   UNL     1       4.874   5.489  18.608  0.00  0.00    +0.000 C 
ATOM      2  C   UNL     1       6.407   5.409  18.716  0.00  0.00    +0.000 C 
ATOM      3  C   UNL     1       7.134   5.261  17.380  0.00  0.00    +0.000 C 
ATOM      4  C   UNL     1       6.493   4.296  16.389  0.00  0.00    +0.000 C 
ATOM      5  C   UNL     1       4.978   4.410  16.334  0.00  0.00    +0.000 C 
ATOM      6  C   UNL     1       4.283   4.346  17.713  0.00  0.00    +0.000 C 
ENDROOT
BRANCH   6   7
ATOM      7  N   UNL     1       4.060   3.017  18.324  0.00  0.00    +0.000 NA
ATOM      8  C   UNL     1       3.044   2.067  17.868  0.00  0.00    +0.000 C 
ATOM      9  C   UNL     1       1.701   2.113  18.618  0.00  0.00    +0.000 C 
ATOM     10  O   UNL     1       1.873   2.068  20.040  0.00  0.00    +0.000 OA
ATOM     11  C   UNL     1       2.773   3.090  20.488  0.00  0.00    +0.000 C 
ATOM     12  C   UNL     1       4.141   2.975  19.795  0.00  0.00    +0.000 C 
ENDBRANCH   6   7
BRANCH   1  13
ATOM     13  O   UNL     1       4.466   6.749  18.006  0.00  0.00    +0.000 OA
BRANCH  13  14
ATOM     14  C   UNL     1       3.064   6.868  17.745  0.00  0.00    +0.000 C 
BRANCH  14  15
ATOM     15  C   UNL     1       2.585   8.333  17.848  0.00  0.00    +0.000 C 
BRANCH  15  20
ATOM     16 BR   UNL     1      -0.554  10.003  22.956  0.00  0.00    +0.000 Br
ATOM     17  C   UNL     1       0.367   9.486  21.388  0.00  0.00    +0.000 A 
ATOM     18  C   UNL     1       1.078   8.294  21.370  0.00  0.00    +0.000 A 
ATOM     19  C   UNL     1       1.772   7.920  20.213  0.00  0.00    +0.000 A 
ATOM     20  C   UNL     1       1.759   8.731  19.059  0.00  0.00    +0.000 A 
ATOM     21  C   UNL     1       1.037   9.930  19.109  0.00  0.00    +0.000 A 
ATOM     22  C   UNL     1       0.339  10.307  20.264  0.00  0.00    +0.000 A 
ENDBRANCH  15  20
ENDBRANCH  14  15
ENDBRANCH  13  14
ENDBRANCH   1  13
TORSDOF 5
ENDMDL
MODEL 5
REMARK VINA RESULT:      -7.3      0.337      1.055
REMARK  Name = 
REMARK  5 active torsions:
REMARK  status: ('A' for Active; 'I' for Inactive)
REMARK    1  A    between atoms: C_5  and  C_6
REMARK    2  A    between atoms: C_6  and  C_7
REMARK    3  A    between atoms: C_7  and  O_8
REMARK    4  A    between atoms: O_8  and  C_9
REMARK    5  A    between atoms: C_14  and  N_15
REMARK                            x       y       z     vdW  Elec       q    Type
REMARK                         _______ _______ _______ _____ _____    ______ ____
ROOT
ATOM      1  C   UNL     1       2.688   5.296  18.533  0.00  0.00    +0.000 C 
ATOM      2  C   UNL     1       1.693   4.386  17.793  0.00  0.00    +0.000 C 
ATOM      3  C   UNL     1       2.037   2.898  17.831  0.00  0.00    +0.000 C 
ATOM      4  C   UNL     1       3.510   2.561  17.631  0.00  0.00    +0.000 C 
ATOM      5  C   UNL     1       4.447   3.499  18.374  0.00  0.00    +0.000 C 
ATOM      6  C   UNL     1       4.174   5.000  18.129  0.00  0.00    +0.000 C 
ENDROOT
BRANCH   6   7
ATOM      7  N   UNL     1       4.703   5.616  16.892  0.00  0.00    +0.000 NA
ATOM      8  C   UNL     1       5.369   4.867  15.825  0.00  0.00    +0.000 C 
ATOM      9  C   UNL     1       6.906   4.825  15.897  0.00  0.00    +0.000 C 
ATOM     10  O   UNL     1       7.476   6.128  16.070  0.00  0.00    +0.000 OA
ATOM     11  C   UNL     1       6.905   6.800  17.199  0.00  0.00    +0.000 C 
ATOM     12  C   UNL     1       5.376   6.915  17.069  0.00  0.00    +0.000 C 
ENDBRANCH   6   7
BRANCH   1  13
ATOM     13  O   UNL     1       2.596   5.095  19.971  0.00  0.00    +0.000 OA
BRANCH  13  14
ATOM     14  C   UNL     1       1.829   6.081  20.671  0.00  0.00    +0.000 C 
BRANCH  14  15
ATOM     15  C   UNL     1       1.893   7.458  19.974  0.00  0.00    +0.000 C 
BRANCH  15  20
ATOM     16 BR   UNL     1      -1.176  12.159  22.659  0.00  0.00    +0.000 Br
ATOM     17  C   UNL     1      -0.272  10.727  21.819  0.00  0.00    +0.000 A 
ATOM     18  C   UNL     1      -0.214   9.489  22.446  0.00  0.00    +0.000 A 
ATOM     19  C   UNL     1       0.468   8.433  21.829  0.00  0.00    +0.000 A 
ATOM     20  C   UNL     1       1.097   8.601  20.578  0.00  0.00    +0.000 A 
ATOM     21  C   UNL     1       1.026   9.863  19.972  0.00  0.00    +0.000 A 
ATOM     22  C   UNL     1       0.342  10.922  20.585  0.00  0.00    +0.000 A 
ENDBRANCH  15  20
ENDBRANCH  14  15
ENDBRANCH  13  14
ENDBRANCH   1  13
TORSDOF 5
ENDMDL
MODEL 6
REMARK VINA RESULT:      -7.3      4.266      6.820
REMARK  Name = 
REMARK  5 active torsions:
REMARK  status: ('A' for Active; 'I' for Inactive)
REMARK    1  A    between atoms: C_5  and  C_6
REMARK    2  A    between atoms: C_6  and  C_7
REMARK    3  A    between atoms: C_7  and  O_8
REMARK    4  A    between atoms: O_8  and  C_9
REMARK    5  A    between atoms: C_14  and  N_15
REMARK                            x       y       z     vdW  Elec       q    Type
REMARK                         _______ _______ _______ _____ _____    ______ ____
ROOT
ATOM      1  C   UNL     1       6.667   6.018  18.125  0.00  0.00    +0.000 C 
ATOM      2  C   UNL     1       7.438   4.828  17.528  0.00  0.00    +0.000 C 
ATOM      3  C   UNL     1       7.061   4.480  16.089  0.00  0.00    +0.000 C 
ATOM      4  C   UNL     1       5.570   4.522  15.774  0.00  0.00    +0.000 C 
ATOM      5  C   UNL     1       4.858   5.710  16.399  0.00  0.00    +0.000 C 
ATOM      6  C   UNL     1       5.119   5.887  17.911  0.00  0.00    +0.000 C 
ENDROOT
BRANCH   6   7
ATOM      7  N   UNL     1       4.346   5.054  18.859  0.00  0.00    +0.000 NA
ATOM      8  C   UNL     1       4.555   3.617  19.045  0.00  0.00    +0.000 C 
ATOM      9  C   UNL     1       3.637   2.696  18.222  0.00  0.00    +0.000 C 
ATOM     10  O   UNL     1       2.255   3.055  18.349  0.00  0.00    +0.000 OA
ATOM     11  C   UNL     1       2.046   4.438  18.037  0.00  0.00    +0.000 C 
ATOM     12  C   UNL     1       2.904   5.350  18.931  0.00  0.00    +0.000 C 
ENDBRANCH   6   7
BRANCH   1  13
ATOM     13  O   UNL     1       7.074   7.263  17.493  0.00  0.00    +0.000 OA
BRANCH  13  14
ATOM     14  C   UNL     1       8.064   8.009  18.210  0.00  0.00    +0.000 C 
BRANCH  14  15
ATOM     15  C   UNL     1       8.360   9.365  17.533  0.00  0.00    +0.000 C 
BRANCH  15  20
ATOM     16 BR   UNL     1      10.296  14.090  21.092  0.00  0.00    +0.000 Br
ATOM     17  C   UNL     1       9.744  12.645  20.006  0.00  0.00    +0.000 A 
ATOM     18  C   UNL     1       9.292  12.888  18.716  0.00  0.00    +0.000 A 
ATOM     19  C   UNL     1       8.869  11.818  17.917  0.00  0.00    +0.000 A 
ATOM     20  C   UNL     1       8.898  10.493  18.398  0.00  0.00    +0.000 A 
ATOM     21  C   UNL     1       9.354  10.278  19.705  0.00  0.00    +0.000 A 
ATOM     22  C   UNL     1       9.780  11.347  20.507  0.00  0.00    +0.000 A 
ENDBRANCH  15  20
ENDBRANCH  14  15
ENDBRANCH  13  14
ENDBRANCH   1  13
TORSDOF 5
ENDMDL
MODEL 7
REMARK VINA RESULT:      -7.2      1.153      1.626
REMARK  Name = 
REMARK  5 active torsions:
REMARK  status: ('A' for Active; 'I' for Inactive)
REMARK    1  A    between atoms: C_5  and  C_6
REMARK    2  A    between atoms: C_6  and  C_7
REMARK    3  A    between atoms: C_7  and  O_8
REMARK    4  A    between atoms: O_8  and  C_9
REMARK    5  A    between atoms: C_14  and  N_15
REMARK                            x       y       z     vdW  Elec       q    Type
REMARK                         _______ _______ _______ _____ _____    ______ ____
ROOT
ATOM      1  C   UNL     1       2.809   5.458  18.538  0.00  0.00    +0.000 C 
ATOM      2  C   UNL     1       1.631   4.708  17.894  0.00  0.00    +0.000 C 
ATOM      3  C   UNL     1       1.684   3.188  18.043  0.00  0.00    +0.000 C 
ATOM      4  C   UNL     1       3.056   2.558  17.837  0.00  0.00    +0.000 C 
ATOM      5  C   UNL     1       4.183   3.347  18.483  0.00  0.00    +0.000 C 
ATOM      6  C   UNL     1       4.194   4.850  18.126  0.00  0.00    +0.000 C 
ENDROOT
BRANCH   6   7
ATOM      7  N   UNL     1       4.786   5.259  16.833  0.00  0.00    +0.000 NA
ATOM      8  C   UNL     1       5.642   4.398  16.016  0.00  0.00    +0.000 C 
ATOM      9  C   UNL     1       7.157   4.572  16.225  0.00  0.00    +0.000 C 
ATOM     10  O   UNL     1       7.560   5.945  16.155  0.00  0.00    +0.000 OA
ATOM     11  C   UNL     1       6.799   6.757  17.057  0.00  0.00    +0.000 C 
ATOM     12  C   UNL     1       5.290   6.643  16.777  0.00  0.00    +0.000 C 
ENDBRANCH   6   7
BRANCH   1  13
ATOM     13  O   UNL     1       2.733   5.386  19.989  0.00  0.00    +0.000 OA
BRANCH  13  14
ATOM     14  C   UNL     1       1.588   6.020  20.567  0.00  0.00    +0.000 C 
BRANCH  14  15
ATOM     15  C   UNL     1       1.893   7.471  20.999  0.00  0.00    +0.000 C 
BRANCH  15  20
ATOM     16 BR   UNL     1      -1.089  12.260  18.370  0.00  0.00    +0.000 Br
ATOM     17  C   UNL     1      -0.204  10.782  19.148  0.00  0.00    +0.000 A 
ATOM     18  C   UNL     1      -0.511  10.402  20.448  0.00  0.00    +0.000 A 
ATOM     19  C   UNL     1       0.156   9.316  21.027  0.00  0.00    +0.000 A 
ATOM     20  C   UNL     1       1.135   8.595  20.313  0.00  0.00    +0.000 A 
ATOM     21  C   UNL     1       1.428   9.004  19.005  0.00  0.00    +0.000 A 
ATOM     22  C   UNL     1       0.760  10.089  18.421  0.00  0.00    +0.000 A 
ENDBRANCH  15  20
ENDBRANCH  14  15
ENDBRANCH  13  14
ENDBRANCH   1  13
TORSDOF 5
ENDMDL
MODEL 8
REMARK VINA RESULT:      -7.2      4.511      7.079
REMARK  Name = 
REMARK  5 active torsions:
REMARK  status: ('A' for Active; 'I' for Inactive)
REMARK    1  A    between atoms: C_5  and  C_6
REMARK    2  A    between atoms: C_6  and  C_7
REMARK    3  A    between atoms: C_7  and  O_8
REMARK    4  A    between atoms: O_8  and  C_9
REMARK    5  A    between atoms: C_14  and  N_15
REMARK                            x       y       z     vdW  Elec       q    Type
REMARK                         _______ _______ _______ _____ _____    ______ ____
ROOT
ATOM      1  C   UNL     1       6.547   6.781  17.737  0.00  0.00    +0.000 C 
ATOM      2  C   UNL     1       7.228   5.574  18.405  0.00  0.00    +0.000 C 
ATOM      3  C   UNL     1       7.771   4.528  17.433  0.00  0.00    +0.000 C 
ATOM      4  C   UNL     1       6.866   4.201  16.251  0.00  0.00    +0.000 C 
ATOM      5  C   UNL     1       6.211   5.428  15.639  0.00  0.00    +0.000 C 
ATOM      6  C   UNL     1       5.497   6.345  16.657  0.00  0.00    +0.000 C 
ENDROOT
BRANCH   6   7
ATOM      7  N   UNL     1       4.139   5.970  17.108  0.00  0.00    +0.000 NA
ATOM      8  C   UNL     1       3.480   6.540  18.283  0.00  0.00    +0.000 C 
ATOM      9  C   UNL     1       3.621   5.733  19.586  0.00  0.00    +0.000 C 
ATOM     10  O   UNL     1       3.288   4.351  19.406  0.00  0.00    +0.000 OA
ATOM     11  C   UNL     1       4.039   3.771  18.332  0.00  0.00    +0.000 C 
ATOM     12  C   UNL     1       3.815   4.535  17.016  0.00  0.00    +0.000 C 
ENDBRANCH   6   7
BRANCH   1  13
ATOM     13  O   UNL     1       7.528   7.613  17.058  0.00  0.00    +0.000 OA
BRANCH  13  14
ATOM     14  C   UNL     1       7.652   8.943  17.571  0.00  0.00    +0.000 C 
BRANCH  14  15
ATOM     15  C   UNL     1       8.655   9.014  18.744  0.00  0.00    +0.000 C 
BRANCH  15  20
ATOM     16 BR   UNL     1      10.921  14.659  20.060  0.00  0.00    +0.000 Br
ATOM     17  C   UNL     1      10.267  12.930  19.663  0.00  0.00    +0.000 A 
ATOM     18  C   UNL     1       9.896  12.618  18.362  0.00  0.00    +0.000 A 
ATOM     19  C   UNL     1       9.398  11.342  18.072  0.00  0.00    +0.000 A 
ATOM     20  C   UNL     1       9.270  10.362  19.078  0.00  0.00    +0.000 A 
ATOM     21  C   UNL     1       9.648  10.707  20.382  0.00  0.00    +0.000 A 
ATOM     22  C   UNL     1      10.149  11.983  20.676  0.00  0.00    +0.000 A 
ENDBRANCH  15  20
ENDBRANCH  14  15
ENDBRANCH  13  14
ENDBRANCH   1  13
TORSDOF 5
ENDMDL
MODEL 9
REMARK VINA RESULT:      -7.2      0.704      1.375
REMARK  Name = 
REMARK  5 active torsions:
REMARK  status: ('A' for Active; 'I' for Inactive)
REMARK    1  A    between atoms: C_5  and  C_6
REMARK    2  A    between atoms: C_6  and  C_7
REMARK    3  A    between atoms: C_7  and  O_8
REMARK    4  A    between atoms: O_8  and  C_9
REMARK    5  A    between atoms: C_14  and  N_15
REMARK                            x       y       z     vdW  Elec       q    Type
REMARK                         _______ _______ _______ _____ _____    ______ ____
ROOT
ATOM      1  C   UNL     1       3.244   5.120  18.811  0.00  0.00    +0.000 C 
ATOM      2  C   UNL     1       2.108   4.539  17.952  0.00  0.00    +0.000 C 
ATOM      3  C   UNL     1       1.839   3.051  18.170  0.00  0.00    +0.000 C 
ATOM      4  C   UNL     1       3.079   2.174  18.301  0.00  0.00    +0.000 C 
ATOM      5  C   UNL     1       4.172   2.803  19.148  0.00  0.00    +0.000 C 
ATOM      6  C   UNL     1       4.544   4.247  18.742  0.00  0.00    +0.000 C 
ENDROOT
BRANCH   6   7
ATOM      7  N   UNL     1       5.461   4.439  17.598  0.00  0.00    +0.000 NA
ATOM      8  C   UNL     1       6.902   4.660  17.732  0.00  0.00    +0.000 C 
ATOM      9  C   UNL     1       7.355   6.131  17.734  0.00  0.00    +0.000 C 
ATOM     10  O   UNL     1       6.803   6.869  16.637  0.00  0.00    +0.000 OA
ATOM     11  C   UNL     1       5.375   6.748  16.595  0.00  0.00    +0.000 C 
ATOM     12  C   UNL     1       4.940   5.275  16.502  0.00  0.00    +0.000 C 
ENDBRANCH   6   7
BRANCH   1  13
ATOM     13  O   UNL     1       2.851   5.180  20.211  0.00  0.00    +0.000 OA
BRANCH  13  14
ATOM     14  C   UNL     1       1.735   6.031  20.490  0.00  0.00    +0.000 C 
BRANCH  14  15
ATOM     15  C   UNL     1       2.007   7.490  20.063  0.00  0.00    +0.000 C 
BRANCH  15  20
ATOM     16 BR   UNL     1      -1.239  12.068  22.754  0.00  0.00    +0.000 Br
ATOM     17  C   UNL     1      -0.285  10.664  21.922  0.00  0.00    +0.000 A 
ATOM     18  C   UNL     1       0.177   9.600  22.685  0.00  0.00    +0.000 A 
ATOM     19  C   UNL     1       0.896   8.568  22.070  0.00  0.00    +0.000 A 
ATOM     20  C   UNL     1       1.158   8.587  20.685  0.00  0.00    +0.000 A 
ATOM     21  C   UNL     1       0.685   9.675  19.941  0.00  0.00    +0.000 A 
ATOM     22  C   UNL     1      -0.038  10.709  20.553  0.00  0.00    +0.000 A 
ENDBRANCH  15  20
ENDBRANCH  14  15
ENDBRANCH  13  14
ENDBRANCH   1  13
TORSDOF 5
ENDMDL
