MODEL 1
REMARK VINA RESULT:      -8.7      0.000      0.000
REMARK  Name = 
REMARK  5 active torsions:
REMARK  status: ('A' for Active; 'I' for Inactive)
REMARK    1  A    between atoms: C_1  and  O_2
REMARK    2  A    between atoms: O_2  and  C_3
REMARK    3  A    between atoms: C_11  and  C_12
REMARK    4  A    between atoms: C_12  and  C_14
REMARK    5  A    between atoms: C_20  and  C_22
REMARK                            x       y       z     vdW  Elec       q    Type
REMARK                         _______ _______ _______ _____ _____    ______ ____
ROOT
ATOM      1  C   UNL     1       1.298  11.254  18.928  0.00  0.00    +0.000 C 
ATOM      2  O   UNL     1       1.506  12.074  18.039  0.00  0.00    +0.000 OA
ATOM      3  N   UNL     1       1.544   9.888  18.822  0.00  0.00    +0.000 N 
ATOM      4  C   UNL     1       2.171   9.351  17.615  0.00  0.00    +0.000 C 
ATOM      5  C   UNL     1       3.156   8.222  17.961  0.00  0.00    +0.000 C 
ATOM      6  N   UNL     1       2.560   7.215  18.857  0.00  0.00    +0.000 N 
ATOM      7  C   UNL     1       2.697   5.863  18.534  0.00  0.00    +0.000 C 
ATOM      8  O   UNL     1       3.188   5.493  17.468  0.00  0.00    +0.000 OA
ATOM      9  C   UNL     1       1.890   7.770  20.039  0.00  0.00    +0.000 C 
ATOM     10  C   UNL     1       0.914   8.887  19.679  0.00  0.00    +0.000 C 
ENDROOT
BRANCH   7  11
ATOM     11  C   UNL     1       2.212   4.803  19.463  0.00  0.00    +0.000 A 
ATOM     12  C   UNL     1       1.261   3.891  18.986  0.00  0.00    +0.000 A 
ATOM     13  C   UNL     1       0.756   2.896  19.825  0.00  0.00    +0.000 A 
ATOM     14  C   UNL     1       1.180   2.818  21.151  0.00  0.00    +0.000 A 
ATOM     15  C   UNL     1       2.152   3.698  21.623  0.00  0.00    +0.000 A 
ATOM     16  C   UNL     1       2.701   4.654  20.767  0.00  0.00    +0.000 A 
ENDBRANCH   7  11
BRANCH   1  17
ATOM     17  C   UNL     1       0.686  11.734  20.233  0.00  0.00    +0.000 C 
ATOM     18  O   UNL     1       1.471  11.823  21.183  0.00  0.00    +0.000 OA
BRANCH  17  27
ATOM     19  C   UNL     1      -1.672  11.746  22.837  0.00  0.00    +0.000 A 
ATOM     20  C   UNL     1      -2.822  11.996  23.619  0.00  0.00    +0.000 A 
ATOM     21  C   UNL     1      -3.963  12.582  23.084  0.00  0.00    +0.000 A 
ATOM     22  C   UNL     1      -3.992  12.938  21.744  0.00  0.00    +0.000 A 
ATOM     23 BR   UNL     1      -5.555  13.713  21.012  0.00  0.00    +0.000 Br
ATOM     24  C   UNL     1      -2.851  12.718  20.965  0.00  0.00    +0.000 A 
ATOM     25  N   UNL     1      -2.656  12.992  19.634  0.00  0.00    +0.000 N 
ATOM     26  C   UNL     1      -1.396  12.647  19.264  0.00  0.00    +0.000 A 
ATOM     27  C   UNL     1      -0.718  12.142  20.366  0.00  0.00    +0.000 A 
ATOM     28  C   UNL     1      -1.664  12.147  21.469  0.00  0.00    +0.000 A 
ATOM     29  H   UNL     1      -3.354  13.413  19.033  0.00  0.00    +0.000 HD
BRANCH  19  31
ATOM     30  C   UNL     1      -0.486   9.705  23.186  0.00  0.00    +0.000 C 
ATOM     31  O   UNL     1      -0.562  11.120  23.350  0.00  0.00    +0.000 OA
ENDBRANCH  19  31
ENDBRANCH  17  27
ENDBRANCH   1  17
TORSDOF 4
ENDMDL
MODEL 2
REMARK VINA RESULT:      -8.0      1.417      2.280
REMARK  Name = 
REMARK  5 active torsions:
REMARK  status: ('A' for Active; 'I' for Inactive)
REMARK    1  A    between atoms: C_1  and  O_2
REMARK    2  A    between atoms: O_2  and  C_3
REMARK    3  A    between atoms: C_11  and  C_12
REMARK    4  A    between atoms: C_12  and  C_14
REMARK    5  A    between atoms: C_20  and  C_22
REMARK                            x       y       z     vdW  Elec       q    Type
REMARK                         _______ _______ _______ _____ _____    ______ ____
ROOT
ATOM      1  C   UNL     1       0.862  11.395  19.294  0.00  0.00    +0.000 C 
ATOM      2  O   UNL     1       1.014  12.269  18.446  0.00  0.00    +0.000 OA
ATOM      3  N   UNL     1       1.187  10.052  19.118  0.00  0.00    +0.000 N 
ATOM      4  C   UNL     1       1.834   9.614  17.883  0.00  0.00    +0.000 C 
ATOM      5  C   UNL     1       2.886   8.529  18.166  0.00  0.00    +0.000 C 
ATOM      6  N   UNL     1       2.357   7.445  19.014  0.00  0.00    +0.000 N 
ATOM      7  C   UNL     1       2.571   6.122  18.623  0.00  0.00    +0.000 C 
ATOM      8  O   UNL     1       3.074   5.835  17.537  0.00  0.00    +0.000 OA
ATOM      9  C   UNL     1       1.666   7.901  20.225  0.00  0.00    +0.000 C 
ATOM     10  C   UNL     1       0.623   8.975  19.927  0.00  0.00    +0.000 C 
ENDROOT
BRANCH   7  11
ATOM     11  C   UNL     1       2.157   4.990  19.501  0.00  0.00    +0.000 A 
ATOM     12  C   UNL     1       1.249   4.053  18.986  0.00  0.00    +0.000 A 
ATOM     13  C   UNL     1       0.810   2.990  19.777  0.00  0.00    +0.000 A 
ATOM     14  C   UNL     1       1.256   2.868  21.093  0.00  0.00    +0.000 A 
ATOM     15  C   UNL     1       2.185   3.773  21.600  0.00  0.00    +0.000 A 
ATOM     16  C   UNL     1       2.670   4.801  20.789  0.00  0.00    +0.000 A 
ENDBRANCH   7  11
BRANCH   1  17
ATOM     17  C   UNL     1       0.233  11.773  20.623  0.00  0.00    +0.000 C 
ATOM     18  O   UNL     1       0.977  11.672  21.606  0.00  0.00    +0.000 OA
BRANCH  17  27
ATOM     19  C   UNL     1      -2.719  11.537  18.733  0.00  0.00    +0.000 A 
ATOM     20  C   UNL     1      -4.069  11.593  18.322  0.00  0.00    +0.000 A 
ATOM     21  C   UNL     1      -5.032  12.279  19.051  0.00  0.00    +0.000 A 
ATOM     22  C   UNL     1      -4.676  12.935  20.221  0.00  0.00    +0.000 A 
ATOM     23 BR   UNL     1      -5.984  13.888  21.198  0.00  0.00    +0.000 Br
ATOM     24  C   UNL     1      -3.348  12.865  20.651  0.00  0.00    +0.000 A 
ATOM     25  N   UNL     1      -2.778  13.427  21.766  0.00  0.00    +0.000 N 
ATOM     26  C   UNL     1      -1.461  13.103  21.834  0.00  0.00    +0.000 A 
ATOM     27  C   UNL     1      -1.132  12.294  20.754  0.00  0.00    +0.000 A 
ATOM     28  C   UNL     1      -2.340  12.164  19.956  0.00  0.00    +0.000 A 
ATOM     29  H   UNL     1      -3.285  13.983  22.444  0.00  0.00    +0.000 HD
BRANCH  19  31
ATOM     30  C   UNL     1      -2.188   9.832  17.151  0.00  0.00    +0.000 C 
ATOM     31  O   UNL     1      -1.754  10.902  17.988  0.00  0.00    +0.000 OA
ENDBRANCH  19  31
ENDBRANCH  17  27
ENDBRANCH   1  17
TORSDOF 4
ENDMDL
MODEL 3
REMARK VINA RESULT:      -7.9      3.217      4.878
REMARK  Name = 
REMARK  5 active torsions:
REMARK  status: ('A' for Active; 'I' for Inactive)
REMARK    1  A    between atoms: C_1  and  O_2
REMARK    2  A    between atoms: O_2  and  C_3
REMARK    3  A    between atoms: C_11  and  C_12
REMARK    4  A    between atoms: C_12  and  C_14
REMARK    5  A    between atoms: C_20  and  C_22
REMARK                            x       y       z     vdW  Elec       q    Type
REMARK                         _______ _______ _______ _____ _____    ______ ____
ROOT
ATOM      1  C   UNL     1       0.756   9.331  19.756  0.00  0.00    +0.000 C 
ATOM      2  O   UNL     1       0.195   9.539  20.828  0.00  0.00    +0.000 OA
ATOM      3  N   UNL     1       1.661   8.300  19.520  0.00  0.00    +0.000 N 
ATOM      4  C   UNL     1       1.936   7.317  20.567  0.00  0.00    +0.000 C 
ATOM      5  C   UNL     1       2.109   5.910  19.971  0.00  0.00    +0.000 C 
ATOM      6  N   UNL     1       3.050   5.896  18.837  0.00  0.00    +0.000 N 
ATOM      7  C   UNL     1       4.057   4.929  18.812  0.00  0.00    +0.000 C 
ATOM      8  O   UNL     1       4.260   4.172  19.761  0.00  0.00    +0.000 OA
ATOM      9  C   UNL     1       2.793   6.920  17.818  0.00  0.00    +0.000 C 
ATOM     10  C   UNL     1       2.627   8.311  18.425  0.00  0.00    +0.000 C 
ENDROOT
BRANCH   7  11
ATOM     11  C   UNL     1       4.962   4.799  17.634  0.00  0.00    +0.000 A 
ATOM     12  C   UNL     1       6.209   5.439  17.686  0.00  0.00    +0.000 A 
ATOM     13  C   UNL     1       7.082   5.370  16.598  0.00  0.00    +0.000 A 
ATOM     14  C   UNL     1       6.708   4.681  15.445  0.00  0.00    +0.000 A 
ATOM     15  C   UNL     1       5.487   4.012  15.399  0.00  0.00    +0.000 A 
ATOM     16  C   UNL     1       4.640   4.031  16.509  0.00  0.00    +0.000 A 
ENDBRANCH   7  11
BRANCH   1  17
ATOM     17  C   UNL     1       0.495  10.282  18.601  0.00  0.00    +0.000 C 
ATOM     18  O   UNL     1      -0.379   9.918  17.806  0.00  0.00    +0.000 OA
BRANCH  17  27
ATOM     19  C   UNL     1      -0.418  13.632  19.139  0.00  0.00    +0.000 A 
ATOM     20  C   UNL     1      -0.377  15.032  19.321  0.00  0.00    +0.000 A 
ATOM     21  C   UNL     1       0.764  15.776  19.044  0.00  0.00    +0.000 A 
ATOM     22  C   UNL     1       1.905  15.143  18.575  0.00  0.00    +0.000 A 
ATOM     23 BR   UNL     1       3.448  16.161  18.177  0.00  0.00    +0.000 Br
ATOM     24  C   UNL     1       1.884  13.754  18.415  0.00  0.00    +0.000 A 
ATOM     25  N   UNL     1       2.886  12.926  17.973  0.00  0.00    +0.000 N 
ATOM     26  C   UNL     1       2.468  11.635  17.984  0.00  0.00    +0.000 A 
ATOM     27  C   UNL     1       1.162  11.581  18.455  0.00  0.00    +0.000 A 
ATOM     28  C   UNL     1       0.758  12.955  18.702  0.00  0.00    +0.000 A 
ATOM     29  H   UNL     1       3.809  13.247  17.702  0.00  0.00    +0.000 HD
BRANCH  19  31
ATOM     30  C   UNL     1      -1.787  12.455  20.698  0.00  0.00    +0.000 C 
ATOM     31  O   UNL     1      -1.559  12.900  19.362  0.00  0.00    +0.000 OA
ENDBRANCH  19  31
ENDBRANCH  17  27
ENDBRANCH   1  17
TORSDOF 4
ENDMDL
MODEL 4
REMARK VINA RESULT:      -7.7      3.221      4.804
REMARK  Name = 
REMARK  5 active torsions:
REMARK  status: ('A' for Active; 'I' for Inactive)
REMARK    1  A    between atoms: C_1  and  O_2
REMARK    2  A    between atoms: O_2  and  C_3
REMARK    3  A    between atoms: C_11  and  C_12
REMARK    4  A    between atoms: C_12  and  C_14
REMARK    5  A    between atoms: C_20  and  C_22
REMARK                            x       y       z     vdW  Elec       q    Type
REMARK                         _______ _______ _______ _____ _____    ______ ____
ROOT
ATOM      1  C   UNL     1       0.930   9.057  19.904  0.00  0.00    +0.000 C 
ATOM      2  O   UNL     1       0.320   9.222  20.955  0.00  0.00    +0.000 OA
ATOM      3  N   UNL     1       1.796   7.997  19.645  0.00  0.00    +0.000 N 
ATOM      4  C   UNL     1       1.960   6.932  20.633  0.00  0.00    +0.000 C 
ATOM      5  C   UNL     1       2.097   5.561  19.949  0.00  0.00    +0.000 C 
ATOM      6  N   UNL     1       3.101   5.573  18.870  0.00  0.00    +0.000 N 
ATOM      7  C   UNL     1       4.058   4.558  18.831  0.00  0.00    +0.000 C 
ATOM      8  O   UNL     1       4.167   3.729  19.735  0.00  0.00    +0.000 OA
ATOM      9  C   UNL     1       2.954   6.677  17.913  0.00  0.00    +0.000 C 
ATOM     10  C   UNL     1       2.822   8.030  18.607  0.00  0.00    +0.000 C 
ENDROOT
BRANCH   7  11
ATOM     11  C   UNL     1       5.022   4.460  17.698  0.00  0.00    +0.000 A 
ATOM     12  C   UNL     1       6.373   4.734  17.955  0.00  0.00    +0.000 A 
ATOM     13  C   UNL     1       7.311   4.682  16.923  0.00  0.00    +0.000 A 
ATOM     14  C   UNL     1       6.905   4.378  15.624  0.00  0.00    +0.000 A 
ATOM     15  C   UNL     1       5.571   4.069  15.367  0.00  0.00    +0.000 A 
ATOM     16  C   UNL     1       4.643   4.062  16.411  0.00  0.00    +0.000 A 
ENDBRANCH   7  11
BRANCH   1  17
ATOM     17  C   UNL     1       0.784  10.096  18.806  0.00  0.00    +0.000 C 
ATOM     18  O   UNL     1      -0.033   9.818  17.922  0.00  0.00    +0.000 OA
BRANCH  17  27
ATOM     19  C   UNL     1       0.721  12.977  20.817  0.00  0.00    +0.000 A 
ATOM     20  C   UNL     1       1.046  14.212  21.420  0.00  0.00    +0.000 A 
ATOM     21  C   UNL     1       2.029  15.047  20.903  0.00  0.00    +0.000 A 
ATOM     22  C   UNL     1       2.722  14.674  19.760  0.00  0.00    +0.000 A 
ATOM     23 BR   UNL     1       4.041  15.824  19.044  0.00  0.00    +0.000 Br
ATOM     24  C   UNL     1       2.426  13.442  19.168  0.00  0.00    +0.000 A 
ATOM     25  N   UNL     1       2.981  12.873  18.049  0.00  0.00    +0.000 N 
ATOM     26  C   UNL     1       2.429  11.654  17.820  0.00  0.00    +0.000 A 
ATOM     27  C   UNL     1       1.493  11.382  18.809  0.00  0.00    +0.000 A 
ATOM     28  C   UNL     1       1.453  12.552  19.670  0.00  0.00    +0.000 A 
ATOM     29  H   UNL     1       3.712  13.305  17.497  0.00  0.00    +0.000 HD
BRANCH  19  31
ATOM     30  C   UNL     1      -0.834  12.517  22.567  0.00  0.00    +0.000 C 
ATOM     31  O   UNL     1      -0.284  12.172  21.297  0.00  0.00    +0.000 OA
ENDBRANCH  19  31
ENDBRANCH  17  27
ENDBRANCH   1  17
TORSDOF 4
ENDMDL
MODEL 5
REMARK VINA RESULT:      -7.6      2.695      3.943
REMARK  Name = 
REMARK  5 active torsions:
REMARK  status: ('A' for Active; 'I' for Inactive)
REMARK    1  A    between atoms: C_1  and  O_2
REMARK    2  A    between atoms: O_2  and  C_3
REMARK    3  A    between atoms: C_11  and  C_12
REMARK    4  A    between atoms: C_12  and  C_14
REMARK    5  A    between atoms: C_20  and  C_22
REMARK                            x       y       z     vdW  Elec       q    Type
REMARK                         _______ _______ _______ _____ _____    ______ ____
ROOT
ATOM      1  C   UNL     1       0.944   8.873  20.116  0.00  0.00    +0.000 C 
ATOM      2  O   UNL     1       0.420   8.932  21.224  0.00  0.00    +0.000 OA
ATOM      3  N   UNL     1       1.845   7.890  19.715  0.00  0.00    +0.000 N 
ATOM      4  C   UNL     1       2.160   6.779  20.611  0.00  0.00    +0.000 C 
ATOM      5  C   UNL     1       2.318   5.465  19.827  0.00  0.00    +0.000 C 
ATOM      6  N   UNL     1       3.220   5.610  18.670  0.00  0.00    +0.000 N 
ATOM      7  C   UNL     1       4.228   4.664  18.483  0.00  0.00    +0.000 C 
ATOM      8  O   UNL     1       4.467   3.789  19.316  0.00  0.00    +0.000 OA
ATOM      9  C   UNL     1       2.923   6.759  17.806  0.00  0.00    +0.000 C 
ATOM     10  C   UNL     1       2.772   8.055  18.599  0.00  0.00    +0.000 C 
ENDROOT
BRANCH   7  11
ATOM     11  C   UNL     1       5.093   4.700  17.269  0.00  0.00    +0.000 A 
ATOM     12  C   UNL     1       6.301   5.410  17.339  0.00  0.00    +0.000 A 
ATOM     13  C   UNL     1       7.133   5.496  16.221  0.00  0.00    +0.000 A 
ATOM     14  C   UNL     1       6.756   4.893  15.022  0.00  0.00    +0.000 A 
ATOM     15  C   UNL     1       5.576   4.156  14.954  0.00  0.00    +0.000 A 
ATOM     16  C   UNL     1       4.774   4.019  16.088  0.00  0.00    +0.000 A 
ENDBRANCH   7  11
BRANCH   1  17
ATOM     17  C   UNL     1       0.640   9.967  19.107  0.00  0.00    +0.000 C 
ATOM     18  O   UNL     1       1.629  10.487  18.579  0.00  0.00    +0.000 OA
BRANCH  17  27
ATOM     19  C   UNL     1      -1.895  11.963  20.498  0.00  0.00    +0.000 A 
ATOM     20  C   UNL     1      -3.069  12.728  20.676  0.00  0.00    +0.000 A 
ATOM     21  C   UNL     1      -4.102  12.718  19.745  0.00  0.00    +0.000 A 
ATOM     22  C   UNL     1      -3.994  11.940  18.602  0.00  0.00    +0.000 A 
ATOM     23 BR   UNL     1      -5.410  11.910  17.350  0.00  0.00    +0.000 Br
ATOM     24  C   UNL     1      -2.826  11.198  18.403  0.00  0.00    +0.000 A 
ATOM     25  N   UNL     1      -2.503  10.371  17.356  0.00  0.00    +0.000 N 
ATOM     26  C   UNL     1      -1.260   9.853  17.532  0.00  0.00    +0.000 A 
ATOM     27  C   UNL     1      -0.722  10.348  18.713  0.00  0.00    +0.000 A 
ATOM     28  C   UNL     1      -1.744  11.193  19.308  0.00  0.00    +0.000 A 
ATOM     29  H   UNL     1      -3.108  10.199  16.562  0.00  0.00    +0.000 HD
BRANCH  19  31
ATOM     30  C   UNL     1      -1.282  11.630  22.780  0.00  0.00    +0.000 C 
ATOM     31  O   UNL     1      -0.895  11.931  21.440  0.00  0.00    +0.000 OA
ENDBRANCH  19  31
ENDBRANCH  17  27
ENDBRANCH   1  17
TORSDOF 4
ENDMDL
MODEL 6
REMARK VINA RESULT:      -7.5      3.202      4.723
REMARK  Name = 
REMARK  5 active torsions:
REMARK  status: ('A' for Active; 'I' for Inactive)
REMARK    1  A    between atoms: C_1  and  O_2
REMARK    2  A    between atoms: O_2  and  C_3
REMARK    3  A    between atoms: C_11  and  C_12
REMARK    4  A    between atoms: C_12  and  C_14
REMARK    5  A    between atoms: C_20  and  C_22
REMARK                            x       y       z     vdW  Elec       q    Type
REMARK                         _______ _______ _______ _____ _____    ______ ____
ROOT
ATOM      1  C   UNL     1       0.826   9.216  19.749  0.00  0.00    +0.000 C 
ATOM      2  O   UNL     1       0.272   9.382  20.831  0.00  0.00    +0.000 OA
ATOM      3  N   UNL     1       1.762   8.220  19.480  0.00  0.00    +0.000 N 
ATOM      4  C   UNL     1       2.081   7.225  20.501  0.00  0.00    +0.000 C 
ATOM      5  C   UNL     1       2.292   5.837  19.872  0.00  0.00    +0.000 C 
ATOM      6  N   UNL     1       3.220   5.878  18.727  0.00  0.00    +0.000 N 
ATOM      7  C   UNL     1       4.257   4.946  18.669  0.00  0.00    +0.000 C 
ATOM      8  O   UNL     1       4.496   4.176  19.599  0.00  0.00    +0.000 OA
ATOM      9  C   UNL     1       2.917   6.916  17.734  0.00  0.00    +0.000 C 
ATOM     10  C   UNL     1       2.713   8.287  18.374  0.00  0.00    +0.000 C 
ENDROOT
BRANCH   7  11
ATOM     11  C   UNL     1       5.151   4.872  17.479  0.00  0.00    +0.000 A 
ATOM     12  C   UNL     1       4.755   4.063  16.404  0.00  0.00    +0.000 A 
ATOM     13  C   UNL     1       5.570   3.939  15.277  0.00  0.00    +0.000 A 
ATOM     14  C   UNL     1       6.795   4.604  15.225  0.00  0.00    +0.000 A 
ATOM     15  C   UNL     1       7.180   5.437  16.273  0.00  0.00    +0.000 A 
ATOM     16  C   UNL     1       6.337   5.609  17.372  0.00  0.00    +0.000 A 
ENDBRANCH   7  11
BRANCH   1  17
ATOM     17  C   UNL     1       0.520  10.183  18.619  0.00  0.00    +0.000 C 
ATOM     18  O   UNL     1      -0.312   9.785  17.796  0.00  0.00    +0.000 OA
BRANCH  17  27
ATOM     19  C   UNL     1      -0.282  13.340  19.935  0.00  0.00    +0.000 A 
ATOM     20  C   UNL     1      -0.221  14.694  20.335  0.00  0.00    +0.000 A 
ATOM     21  C   UNL     1       0.789  15.544  19.901  0.00  0.00    +0.000 A 
ATOM     22  C   UNL     1       1.775  15.067  19.050  0.00  0.00    +0.000 A 
ATOM     23 BR   UNL     1       3.135  16.233  18.441  0.00  0.00    +0.000 Br
ATOM     24  C   UNL     1       1.740  13.722  18.667  0.00  0.00    +0.000 A 
ATOM     25  N   UNL     1       2.603  13.041  17.846  0.00  0.00    +0.000 N 
ATOM     26  C   UNL     1       2.229  11.740  17.747  0.00  0.00    +0.000 A 
ATOM     27  C   UNL     1       1.098  11.529  18.525  0.00  0.00    +0.000 A 
ATOM     28  C   UNL     1       0.748  12.817  19.099  0.00  0.00    +0.000 A 
ATOM     29  H   UNL     1       3.413  13.459  17.403  0.00  0.00    +0.000 HD
BRANCH  19  31
ATOM     30  C   UNL     1      -2.401  12.376  19.416  0.00  0.00    +0.000 C 
ATOM     31  O   UNL     1      -1.307  12.510  20.321  0.00  0.00    +0.000 OA
ENDBRANCH  19  31
ENDBRANCH  17  27
ENDBRANCH   1  17
TORSDOF 4
ENDMDL
MODEL 7
REMARK VINA RESULT:      -7.4      3.010      4.458
REMARK  Name = 
REMARK  5 active torsions:
REMARK  status: ('A' for Active; 'I' for Inactive)
REMARK    1  A    between atoms: C_1  and  O_2
REMARK    2  A    between atoms: O_2  and  C_3
REMARK    3  A    between atoms: C_11  and  C_12
REMARK    4  A    between atoms: C_12  and  C_14
REMARK    5  A    between atoms: C_20  and  C_22
REMARK                            x       y       z     vdW  Elec       q    Type
REMARK                         _______ _______ _______ _____ _____    ______ ____
ROOT
ATOM      1  C   UNL     1       0.295   9.355  20.786  0.00  0.00    +0.000 C 
ATOM      2  O   UNL     1      -0.286   9.377  21.866  0.00  0.00    +0.000 OA
ATOM      3  N   UNL     1       1.210   8.380  20.396  0.00  0.00    +0.000 N 
ATOM      4  C   UNL     1       1.470   7.234  21.266  0.00  0.00    +0.000 C 
ATOM      5  C   UNL     1       1.660   5.949  20.443  0.00  0.00    +0.000 C 
ATOM      6  N   UNL     1       2.623   6.128  19.341  0.00  0.00    +0.000 N 
ATOM      7  C   UNL     1       3.634   5.181  19.171  0.00  0.00    +0.000 C 
ATOM      8  O   UNL     1       3.823   4.275  19.983  0.00  0.00    +0.000 OA
ATOM      9  C   UNL     1       2.379   7.311  18.506  0.00  0.00    +0.000 C 
ATOM     10  C   UNL     1       2.195   8.578  19.337  0.00  0.00    +0.000 C 
ENDROOT
BRANCH   7  11
ATOM     11  C   UNL     1       4.561   5.255  18.006  0.00  0.00    +0.000 A 
ATOM     12  C   UNL     1       5.714   6.045  18.128  0.00  0.00    +0.000 A 
ATOM     13  C   UNL     1       6.600   6.167  17.056  0.00  0.00    +0.000 A 
ATOM     14  C   UNL     1       6.332   5.521  15.851  0.00  0.00    +0.000 A 
ATOM     15  C   UNL     1       5.208   4.706  15.733  0.00  0.00    +0.000 A 
ATOM     16  C   UNL     1       4.354   4.535  16.824  0.00  0.00    +0.000 A 
ENDBRANCH   7  11
BRANCH   1  17
ATOM     17  C   UNL     1       0.051  10.487  19.804  0.00  0.00    +0.000 C 
ATOM     18  O   UNL     1       0.695  11.520  20.019  0.00  0.00    +0.000 OA
BRANCH  17  27
ATOM     19  C   UNL     1      -3.126  11.706  18.927  0.00  0.00    +0.000 A 
ATOM     20  C   UNL     1      -4.281  12.071  18.200  0.00  0.00    +0.000 A 
ATOM     21  C   UNL     1      -4.501  11.630  16.900  0.00  0.00    +0.000 A 
ATOM     22  C   UNL     1      -3.570  10.808  16.282  0.00  0.00    +0.000 A 
ATOM     23 BR   UNL     1      -3.885  10.190  14.523  0.00  0.00    +0.000 Br
ATOM     24  C   UNL     1      -2.411  10.461  16.983  0.00  0.00    +0.000 A 
ATOM     25  N   UNL     1      -1.365   9.672  16.573  0.00  0.00    +0.000 N 
ATOM     26  C   UNL     1      -0.421   9.601  17.546  0.00  0.00    +0.000 A 
ATOM     27  C   UNL     1      -0.825  10.368  18.632  0.00  0.00    +0.000 A 
ATOM     28  C   UNL     1      -2.134  10.900  18.295  0.00  0.00    +0.000 A 
ATOM     29  H   UNL     1      -1.310   9.230  15.663  0.00  0.00    +0.000 HD
BRANCH  19  31
ATOM     30  C   UNL     1      -2.323  13.373  20.433  0.00  0.00    +0.000 C 
ATOM     31  O   UNL     1      -2.929  12.098  20.229  0.00  0.00    +0.000 OA
ENDBRANCH  19  31
ENDBRANCH  17  27
ENDBRANCH   1  17
TORSDOF 4
ENDMDL
MODEL 8
REMARK VINA RESULT:      -7.4      1.468      1.773
REMARK  Name = 
REMARK  5 active torsions:
REMARK  status: ('A' for Active; 'I' for Inactive)
REMARK    1  A    between atoms: C_1  and  O_2
REMARK    2  A    between atoms: O_2  and  C_3
REMARK    3  A    between atoms: C_11  and  C_12
REMARK    4  A    between atoms: C_12  and  C_14
REMARK    5  A    between atoms: C_20  and  C_22
REMARK                            x       y       z     vdW  Elec       q    Type
REMARK                         _______ _______ _______ _____ _____    ______ ____
ROOT
ATOM      1  C   UNL     1       1.098  11.283  19.166  0.00  0.00    +0.000 C 
ATOM      2  O   UNL     1       1.249  12.127  18.288  0.00  0.00    +0.000 OA
ATOM      3  N   UNL     1       1.367   9.924  19.016  0.00  0.00    +0.000 N 
ATOM      4  C   UNL     1       1.949   9.429  17.769  0.00  0.00    +0.000 C 
ATOM      5  C   UNL     1       2.972   8.313  18.043  0.00  0.00    +0.000 C 
ATOM      6  N   UNL     1       2.437   7.274  18.940  0.00  0.00    +0.000 N 
ATOM      7  C   UNL     1       2.588   5.933  18.579  0.00  0.00    +0.000 C 
ATOM      8  O   UNL     1       3.037   5.599  17.483  0.00  0.00    +0.000 OA
ATOM      9  C   UNL     1       1.811   7.787  20.164  0.00  0.00    +0.000 C 
ATOM     10  C   UNL     1       0.797   8.891  19.876  0.00  0.00    +0.000 C 
ENDROOT
BRANCH   7  11
ATOM     11  C   UNL     1       2.168   4.842  19.504  0.00  0.00    +0.000 A 
ATOM     12  C   UNL     1       1.216   3.919  19.047  0.00  0.00    +0.000 A 
ATOM     13  C   UNL     1       0.770   2.894  19.884  0.00  0.00    +0.000 A 
ATOM     14  C   UNL     1       1.255   2.797  21.188  0.00  0.00    +0.000 A 
ATOM     15  C   UNL     1       2.227   3.688  21.638  0.00  0.00    +0.000 A 
ATOM     16  C   UNL     1       2.717   4.675  20.781  0.00  0.00    +0.000 A 
ENDBRANCH   7  11
BRANCH   1  17
ATOM     17  C   UNL     1       0.537  11.719  20.507  0.00  0.00    +0.000 C 
ATOM     18  O   UNL     1       1.289  11.551  21.473  0.00  0.00    +0.000 OA
BRANCH  17  27
ATOM     19  C   UNL     1      -0.671  14.509  22.268  0.00  0.00    +0.000 A 
ATOM     20  C   UNL     1      -1.482  15.571  22.727  0.00  0.00    +0.000 A 
ATOM     21  C   UNL     1      -2.827  15.669  22.389  0.00  0.00    +0.000 A 
ATOM     22  C   UNL     1      -3.407  14.706  21.577  0.00  0.00    +0.000 A 
ATOM     23 BR   UNL     1      -5.242  14.829  21.139  0.00  0.00    +0.000 Br
ATOM     24  C   UNL     1      -2.608  13.664  21.095  0.00  0.00    +0.000 A 
ATOM     25  N   UNL     1      -2.964  12.615  20.284  0.00  0.00    +0.000 N 
ATOM     26  C   UNL     1      -1.885  11.832  20.029  0.00  0.00    +0.000 A 
ATOM     27  C   UNL     1      -0.771  12.365  20.665  0.00  0.00    +0.000 A 
ATOM     28  C   UNL     1      -1.236  13.534  21.394  0.00  0.00    +0.000 A 
ATOM     29  H   UNL     1      -3.898  12.473  19.919  0.00  0.00    +0.000 HD
BRANCH  19  31
ATOM     30  C   UNL     1       1.609  15.074  21.850  0.00  0.00    +0.000 C 
ATOM     31  O   UNL     1       0.645  14.381  22.641  0.00  0.00    +0.000 OA
ENDBRANCH  19  31
ENDBRANCH  17  27
ENDBRANCH   1  17
TORSDOF 4
ENDMDL
MODEL 9
REMARK VINA RESULT:      -7.4      2.310      3.542
REMARK  Name = 
REMARK  5 active torsions:
REMARK  status: ('A' for Active; 'I' for Inactive)
REMARK    1  A    between atoms: C_1  and  O_2
REMARK    2  A    between atoms: O_2  and  C_3
REMARK    3  A    between atoms: C_11  and  C_12
REMARK    4  A    between atoms: C_12  and  C_14
REMARK    5  A    between atoms: C_20  and  C_22
REMARK                            x       y       z     vdW  Elec       q    Type
REMARK                         _______ _______ _______ _____ _____    ______ ____
ROOT
ATOM      1  C   UNL     1       0.195  10.093  20.399  0.00  0.00    +0.000 C 
ATOM      2  O   UNL     1      -0.181  10.317  21.545  0.00  0.00    +0.000 OA
ATOM      3  N   UNL     1       1.089   9.088  20.039  0.00  0.00    +0.000 N 
ATOM      4  C   UNL     1       1.580   8.152  21.049  0.00  0.00    +0.000 C 
ATOM      5  C   UNL     1       1.707   6.732  20.471  0.00  0.00    +0.000 C 
ATOM      6  N   UNL     1       2.440   6.714  19.192  0.00  0.00    +0.000 N 
ATOM      7  C   UNL     1       3.467   5.784  19.020  0.00  0.00    +0.000 C 
ATOM      8  O   UNL     1       3.861   5.068  19.941  0.00  0.00    +0.000 OA
ATOM      9  C   UNL     1       1.969   7.693  18.205  0.00  0.00    +0.000 C 
ATOM     10  C   UNL     1       1.851   9.096  18.794  0.00  0.00    +0.000 C 
ENDROOT
BRANCH   7  11
ATOM     11  C   UNL     1       4.161   5.647  17.708  0.00  0.00    +0.000 A 
ATOM     12  C   UNL     1       4.237   4.372  17.131  0.00  0.00    +0.000 A 
ATOM     13  C   UNL     1       4.899   4.186  15.916  0.00  0.00    +0.000 A 
ATOM     14  C   UNL     1       5.509   5.268  15.281  0.00  0.00    +0.000 A 
ATOM     15  C   UNL     1       5.409   6.544  15.830  0.00  0.00    +0.000 A 
ATOM     16  C   UNL     1       4.694   6.739  17.014  0.00  0.00    +0.000 A 
ENDBRANCH   7  11
BRANCH   1  17
ATOM     17  C   UNL     1      -0.299  10.994  19.281  0.00  0.00    +0.000 C 
ATOM     18  O   UNL     1       0.586  11.550  18.622  0.00  0.00    +0.000 OA
BRANCH  17  27
ATOM     19  C   UNL     1      -2.986  12.856  20.568  0.00  0.00    +0.000 A 
ATOM     20  C   UNL     1      -4.236  13.496  20.724  0.00  0.00    +0.000 A 
ATOM     21  C   UNL     1      -5.308  13.232  19.879  0.00  0.00    +0.000 A 
ATOM     22  C   UNL     1      -5.165  12.317  18.847  0.00  0.00    +0.000 A 
ATOM     23 BR   UNL     1      -6.633  11.943  17.714  0.00  0.00    +0.000 Br
ATOM     24  C   UNL     1      -3.925  11.696  18.667  0.00  0.00    +0.000 A 
ATOM     25  N   UNL     1      -3.559  10.772  17.720  0.00  0.00    +0.000 N 
ATOM     26  C   UNL     1      -2.253  10.434  17.875  0.00  0.00    +0.000 A 
ATOM     27  C   UNL     1      -1.717  11.152  18.937  0.00  0.00    +0.000 A 
ATOM     28  C   UNL     1      -2.804  11.947  19.484  0.00  0.00    +0.000 A 
ATOM     29  H   UNL     1      -4.180  10.419  17.002  0.00  0.00    +0.000 HD
BRANCH  19  31
ATOM     30  C   UNL     1      -2.237  13.030  22.826  0.00  0.00    +0.000 C 
ATOM     31  O   UNL     1      -1.941  13.076  21.431  0.00  0.00    +0.000 OA
ENDBRANCH  19  31
ENDBRANCH  17  27
ENDBRANCH   1  17
TORSDOF 4
ENDMDL
