MODEL 1
REMARK VINA RESULT:      -7.6      0.000      0.000
REMARK  Name = 
REMARK  7 active torsions:
REMARK  status: ('A' for Active; 'I' for Inactive)
REMARK    1  A    between atoms: C_1  and  O_2
REMARK    2  A    between atoms: O_2  and  C_3
REMARK    3  A    between atoms: C_11  and  C_12
REMARK    4  A    between atoms: C_15  and  C_16
REMARK    5  A    between atoms: C_19  and  C_20
REMARK    6  A    between atoms: C_28  and  O_29
REMARK    7  A    between atoms: O_29  and  C_30
REMARK                            x       y       z     vdW  Elec       q    Type
REMARK                         _______ _______ _______ _____ _____    ______ ____
ROOT
ATOM      1  C   UNL     1       2.698   3.747  20.460  0.00  0.00    +0.000 A 
ATOM      2  C   UNL     1       2.048   4.940  20.815  0.00  0.00    +0.000 A 
ATOM      3  C   UNL     1       2.183   6.085  20.038  0.00  0.00    +0.000 A 
ATOM      4  N   UNL     1       1.570   7.219  20.439  0.00  0.00    +0.000 NA
ATOM      5  C   UNL     1       1.661   8.374  19.737  0.00  0.00    +0.000 A 
ATOM      6  N   UNL     1       1.078   9.565  20.269  0.00  0.00    +0.000 N 
ATOM      7  C   UNL     1       0.489   9.572  21.596  0.00  0.00    +0.000 C 
ATOM      8  C   UNL     1      -0.944  10.105  21.516  0.00  0.00    +0.000 C 
ATOM      9  C   UNL     1      -1.023  11.487  20.809  0.00  0.00    +0.000 C 
ATOM     10  C   UNL     1      -0.361  11.365  19.416  0.00  0.00    +0.000 C 
ATOM     11  C   UNL     1       1.087  10.837  19.541  0.00  0.00    +0.000 C 
ATOM     12  N   UNL     1       2.381   8.391  18.582  0.00  0.00    +0.000 NA
ATOM     13  C   UNL     1       3.028   7.283  18.119  0.00  0.00    +0.000 A 
ATOM     14  N   UNL     1       3.767   7.398  16.914  0.00  0.00    +0.000 N 
ATOM     15  C   UNL     1       2.956   6.074  18.863  0.00  0.00    +0.000 A 
ATOM     16  C   UNL     1       3.616   4.880  18.501  0.00  0.00    +0.000 A 
ATOM     17  C   UNL     1       3.492   3.716  19.302  0.00  0.00    +0.000 A 
ATOM     18  H   UNL     1       3.789   8.300  16.415  0.00  0.00    +0.000 HD
ATOM     19  H   UNL     1       4.293   6.620  16.497  0.00  0.00    +0.000 HD
ENDROOT
BRANCH   9  20
ATOM     20  C   UNL     1      -0.404  12.637  21.606  0.00  0.00    +0.000 C 
ATOM     21  O   UNL     1       0.813  12.757  21.578  0.00  0.00    +0.000 OA
ATOM     22  N   UNL     1      -1.123  13.536  22.367  0.00  0.00    +0.000 N 
ATOM     23  C   UNL     1      -0.461  14.674  22.977  0.00  0.00    +0.000 C 
ATOM     24  C   UNL     1      -0.451  15.835  21.955  0.00  0.00    +0.000 C 
ATOM     25  C   UNL     1      -1.312  14.955  24.202  0.00  0.00    +0.000 C 
ATOM     26  C   UNL     1      -2.716  14.753  23.661  0.00  0.00    +0.000 C 
ATOM     27  C   UNL     1      -2.560  13.540  22.707  0.00  0.00    +0.000 C 
ATOM     28  C   UNL     1      -3.043  12.278  23.445  0.00  0.00    +0.000 C 
ENDBRANCH   9  20
BRANCH   1  30
ATOM     29  C   UNL     1       1.459   2.264  21.943  0.00  0.00    +0.000 C 
ATOM     30  O   UNL     1       2.578   2.620  21.212  0.00  0.00    +0.000 OA
ENDBRANCH   1  30
BRANCH  17  31
ATOM     31  O   UNL     1       4.133   2.558  18.990  0.00  0.00    +0.000 OA
ATOM     32  C   UNL     1       3.632   1.542  18.198  0.00  0.00    +0.000 C 
ENDBRANCH  17  31
TORSDOF 3
ENDMDL
MODEL 2
REMARK VINA RESULT:      -7.6      1.292      1.462
REMARK  Name = 
REMARK  7 active torsions:
REMARK  status: ('A' for Active; 'I' for Inactive)
REMARK    1  A    between atoms: C_1  and  O_2
REMARK    2  A    between atoms: O_2  and  C_3
REMARK    3  A    between atoms: C_11  and  C_12
REMARK    4  A    between atoms: C_15  and  C_16
REMARK    5  A    between atoms: C_19  and  C_20
REMARK    6  A    between atoms: C_28  and  O_29
REMARK    7  A    between atoms: O_29  and  C_30
REMARK                            x       y       z     vdW  Elec       q    Type
REMARK                         _______ _______ _______ _____ _____    ______ ____
ROOT
ATOM      1  C   UNL     1       2.515   4.659  20.529  0.00  0.00    +0.000 A 
ATOM      2  C   UNL     1       1.821   5.736  21.105  0.00  0.00    +0.000 A 
ATOM      3  C   UNL     1       1.705   6.950  20.436  0.00  0.00    +0.000 A 
ATOM      4  N   UNL     1       1.061   7.968  21.044  0.00  0.00    +0.000 NA
ATOM      5  C   UNL     1       0.915   9.181  20.458  0.00  0.00    +0.000 A 
ATOM      6  N   UNL     1       0.316  10.248  21.196  0.00  0.00    +0.000 N 
ATOM      7  C   UNL     1      -0.032  10.077  22.595  0.00  0.00    +0.000 C 
ATOM      8  C   UNL     1      -1.504  10.446  22.802  0.00  0.00    +0.000 C 
ATOM      9  C   UNL     1      -1.841  11.863  22.262  0.00  0.00    +0.000 C 
ATOM     10  C   UNL     1      -1.420  11.935  20.775  0.00  0.00    +0.000 C 
ATOM     11  C   UNL     1       0.073  11.569  20.608  0.00  0.00    +0.000 C 
ATOM     12  N   UNL     1       1.418   9.376  19.208  0.00  0.00    +0.000 NA
ATOM     13  C   UNL     1       2.083   8.393  18.537  0.00  0.00    +0.000 A 
ATOM     14  N   UNL     1       2.588   8.692  17.245  0.00  0.00    +0.000 N 
ATOM     15  C   UNL     1       2.261   7.126  19.156  0.00  0.00    +0.000 A 
ATOM     16  C   UNL     1       2.964   6.050  18.572  0.00  0.00    +0.000 A 
ATOM     17  C   UNL     1       3.096   4.817  19.260  0.00  0.00    +0.000 A 
ATOM     18  H   UNL     1       2.433   9.629  16.843  0.00  0.00    +0.000 HD
ATOM     19  H   UNL     1       3.109   8.017  16.672  0.00  0.00    +0.000 HD
ENDROOT
BRANCH   9  20
ATOM     20  C   UNL     1      -1.211  13.007  23.061  0.00  0.00    +0.000 C 
ATOM     21  O   UNL     1       0.011  13.063  23.105  0.00  0.00    +0.000 OA
ATOM     22  N   UNL     1      -1.926  13.967  23.746  0.00  0.00    +0.000 N 
ATOM     23  C   UNL     1      -1.242  15.090  24.361  0.00  0.00    +0.000 C 
ATOM     24  C   UNL     1      -1.107  16.213  23.307  0.00  0.00    +0.000 C 
ATOM     25  C   UNL     1      -2.150  15.456  25.521  0.00  0.00    +0.000 C 
ATOM     26  C   UNL     1      -3.527  15.309  24.899  0.00  0.00    +0.000 C 
ATOM     27  C   UNL     1      -3.378  14.057  23.995  0.00  0.00    +0.000 C 
ATOM     28  C   UNL     1      -3.972  12.848  24.739  0.00  0.00    +0.000 C 
ENDBRANCH   9  20
BRANCH   1  30
ATOM     29  C   UNL     1       1.587   2.667  21.579  0.00  0.00    +0.000 C 
ATOM     30  O   UNL     1       2.639   3.468  21.172  0.00  0.00    +0.000 OA
ENDBRANCH   1  30
BRANCH  17  31
ATOM     31  O   UNL     1       3.786   3.771  18.732  0.00  0.00    +0.000 OA
ATOM     32  C   UNL     1       3.848   3.435  17.392  0.00  0.00    +0.000 C 
ENDBRANCH  17  31
TORSDOF 3
ENDMDL
MODEL 3
REMARK VINA RESULT:      -7.3      1.871      2.812
REMARK  Name = 
REMARK  7 active torsions:
REMARK  status: ('A' for Active; 'I' for Inactive)
REMARK    1  A    between atoms: C_1  and  O_2
REMARK    2  A    between atoms: O_2  and  C_3
REMARK    3  A    between atoms: C_11  and  C_12
REMARK    4  A    between atoms: C_15  and  C_16
REMARK    5  A    between atoms: C_19  and  C_20
REMARK    6  A    between atoms: C_28  and  O_29
REMARK    7  A    between atoms: O_29  and  C_30
REMARK                            x       y       z     vdW  Elec       q    Type
REMARK                         _______ _______ _______ _____ _____    ______ ____
ROOT
ATOM      1  C   UNL     1       2.025   6.080  20.490  0.00  0.00    +0.000 A 
ATOM      2  C   UNL     1       1.294   7.100  21.120  0.00  0.00    +0.000 A 
ATOM      3  C   UNL     1       1.140   8.345  20.518  0.00  0.00    +0.000 A 
ATOM      4  N   UNL     1       0.462   9.307  21.177  0.00  0.00    +0.000 NA
ATOM      5  C   UNL     1       0.278  10.544  20.657  0.00  0.00    +0.000 A 
ATOM      6  N   UNL     1      -0.356  11.551  21.449  0.00  0.00    +0.000 N 
ATOM      7  C   UNL     1      -0.702  11.293  22.835  0.00  0.00    +0.000 C 
ATOM      8  C   UNL     1      -2.186  11.602  23.056  0.00  0.00    +0.000 C 
ATOM      9  C   UNL     1      -2.567  13.035  22.591  0.00  0.00    +0.000 C 
ATOM     10  C   UNL     1      -2.145  13.201  21.113  0.00  0.00    +0.000 C 
ATOM     11  C   UNL     1      -0.641  12.892  20.932  0.00  0.00    +0.000 C 
ATOM     12  N   UNL     1       0.779  10.823  19.422  0.00  0.00    +0.000 NA
ATOM     13  C   UNL     1       1.476   9.900  18.701  0.00  0.00    +0.000 A 
ATOM     14  N   UNL     1       1.975  10.284  17.430  0.00  0.00    +0.000 N 
ATOM     15  C   UNL     1       1.694   8.608  19.251  0.00  0.00    +0.000 A 
ATOM     16  C   UNL     1       2.432   7.588  18.614  0.00  0.00    +0.000 A 
ATOM     17  C   UNL     1       2.603   6.324  19.234  0.00  0.00    +0.000 A 
ATOM     18  H   UNL     1       1.791  11.236  17.078  0.00  0.00    +0.000 HD
ATOM     19  H   UNL     1       2.519   9.658  16.823  0.00  0.00    +0.000 HD
ENDROOT
BRANCH   9  20
ATOM     20  C   UNL     1      -1.976  14.153  23.454  0.00  0.00    +0.000 C 
ATOM     21  O   UNL     1      -0.906  13.939  24.007  0.00  0.00    +0.000 OA
ATOM     22  N   UNL     1      -2.576  15.378  23.662  0.00  0.00    +0.000 N 
ATOM     23  C   UNL     1      -1.874  16.424  24.384  0.00  0.00    +0.000 C 
ATOM     24  C   UNL     1      -1.022  17.225  23.372  0.00  0.00    +0.000 C 
ATOM     25  C   UNL     1      -3.000  17.234  25.001  0.00  0.00    +0.000 C 
ATOM     26  C   UNL     1      -4.015  17.270  23.873  0.00  0.00    +0.000 C 
ATOM     27  C   UNL     1      -3.916  15.848  23.259  0.00  0.00    +0.000 C 
ATOM     28  C   UNL     1      -5.079  15.002  23.806  0.00  0.00    +0.000 C 
ENDBRANCH   9  20
BRANCH   1  30
ATOM     29  C   UNL     1       1.367   3.764  20.861  0.00  0.00    +0.000 C 
ATOM     30  O   UNL     1       2.185   4.860  21.069  0.00  0.00    +0.000 OA
ENDBRANCH   1  30
BRANCH  17  31
ATOM     31  O   UNL     1       3.328   5.331  18.653  0.00  0.00    +0.000 OA
ATOM     32  C   UNL     1       4.706   5.228  18.651  0.00  0.00    +0.000 C 
ENDBRANCH  17  31
TORSDOF 3
ENDMDL
MODEL 4
REMARK VINA RESULT:      -7.2      1.014      1.147
REMARK  Name = 
REMARK  7 active torsions:
REMARK  status: ('A' for Active; 'I' for Inactive)
REMARK    1  A    between atoms: C_1  and  O_2
REMARK    2  A    between atoms: O_2  and  C_3
REMARK    3  A    between atoms: C_11  and  C_12
REMARK    4  A    between atoms: C_15  and  C_16
REMARK    5  A    between atoms: C_19  and  C_20
REMARK    6  A    between atoms: C_28  and  O_29
REMARK    7  A    between atoms: O_29  and  C_30
REMARK                            x       y       z     vdW  Elec       q    Type
REMARK                         _______ _______ _______ _____ _____    ______ ____
ROOT
ATOM      1  C   UNL     1       2.779   3.822  20.347  0.00  0.00    +0.000 A 
ATOM      2  C   UNL     1       2.149   5.045  20.631  0.00  0.00    +0.000 A 
ATOM      3  C   UNL     1       2.319   6.146  19.799  0.00  0.00    +0.000 A 
ATOM      4  N   UNL     1       1.725   7.311  20.132  0.00  0.00    +0.000 NA
ATOM      5  C   UNL     1       1.851   8.427  19.374  0.00  0.00    +0.000 A 
ATOM      6  N   UNL     1       1.286   9.655  19.837  0.00  0.00    +0.000 N 
ATOM      7  C   UNL     1       0.680   9.742  21.153  0.00  0.00    +0.000 C 
ATOM      8  C   UNL     1      -0.741  10.300  21.024  0.00  0.00    +0.000 C 
ATOM      9  C   UNL     1      -0.781  11.645  20.247  0.00  0.00    +0.000 C 
ATOM     10  C   UNL     1      -0.102  11.438  18.872  0.00  0.00    +0.000 C 
ATOM     11  C   UNL     1       1.332  10.887  19.044  0.00  0.00    +0.000 C 
ATOM     12  N   UNL     1       2.586   8.369  18.230  0.00  0.00    +0.000 NA
ATOM     13  C   UNL     1       3.215   7.226  17.834  0.00  0.00    +0.000 A 
ATOM     14  N   UNL     1       3.973   7.264  16.635  0.00  0.00    +0.000 N 
ATOM     15  C   UNL     1       3.108   6.059  18.637  0.00  0.00    +0.000 A 
ATOM     16  C   UNL     1       3.746   4.834  18.346  0.00  0.00    +0.000 A 
ATOM     17  C   UNL     1       3.587   3.715  19.203  0.00  0.00    +0.000 A 
ATOM     18  H   UNL     1       4.020   8.138  16.091  0.00  0.00    +0.000 HD
ATOM     19  H   UNL     1       4.488   6.455  16.266  0.00  0.00    +0.000 HD
ENDROOT
BRANCH   9  20
ATOM     20  C   UNL     1      -0.148  12.821  20.994  0.00  0.00    +0.000 C 
ATOM     21  O   UNL     1       0.905  12.619  21.583  0.00  0.00    +0.000 OA
ATOM     22  N   UNL     1      -0.692  14.087  21.061  0.00  0.00    +0.000 N 
ATOM     23  C   UNL     1       0.050  15.172  21.678  0.00  0.00    +0.000 C 
ATOM     24  C   UNL     1       0.949  15.820  20.600  0.00  0.00    +0.000 C 
ATOM     25  C   UNL     1      -1.043  16.094  22.187  0.00  0.00    +0.000 C 
ATOM     26  C   UNL     1      -2.044  16.054  21.046  0.00  0.00    +0.000 C 
ATOM     27  C   UNL     1      -2.004  14.571  20.589  0.00  0.00    +0.000 C 
ATOM     28  C   UNL     1      -3.211  13.842  21.205  0.00  0.00    +0.000 C 
ENDBRANCH   9  20
BRANCH   1  30
ATOM     29  C   UNL     1       1.545   2.512  21.989  0.00  0.00    +0.000 C 
ATOM     30  O   UNL     1       2.624   2.738  21.153  0.00  0.00    +0.000 OA
ENDBRANCH   1  30
BRANCH  17  31
ATOM     31  O   UNL     1       4.208   2.530  18.959  0.00  0.00    +0.000 OA
ATOM     32  C   UNL     1       3.684   1.475  18.237  0.00  0.00    +0.000 C 
ENDBRANCH  17  31
TORSDOF 3
ENDMDL
MODEL 5
REMARK VINA RESULT:      -6.7      1.756      2.315
REMARK  Name = 
REMARK  7 active torsions:
REMARK  status: ('A' for Active; 'I' for Inactive)
REMARK    1  A    between atoms: C_1  and  O_2
REMARK    2  A    between atoms: O_2  and  C_3
REMARK    3  A    between atoms: C_11  and  C_12
REMARK    4  A    between atoms: C_15  and  C_16
REMARK    5  A    between atoms: C_19  and  C_20
REMARK    6  A    between atoms: C_28  and  O_29
REMARK    7  A    between atoms: O_29  and  C_30
REMARK                            x       y       z     vdW  Elec       q    Type
REMARK                         _______ _______ _______ _____ _____    ______ ____
ROOT
ATOM      1  C   UNL     1       2.611   3.619  20.194  0.00  0.00    +0.000 A 
ATOM      2  C   UNL     1       2.040   4.871  20.474  0.00  0.00    +0.000 A 
ATOM      3  C   UNL     1       2.342   5.984  19.696  0.00  0.00    +0.000 A 
ATOM      4  N   UNL     1       1.799   7.174  20.026  0.00  0.00    +0.000 NA
ATOM      5  C   UNL     1       2.052   8.302  19.320  0.00  0.00    +0.000 A 
ATOM      6  N   UNL     1       1.532   9.550  19.783  0.00  0.00    +0.000 N 
ATOM      7  C   UNL     1       0.834   9.636  21.053  0.00  0.00    +0.000 C 
ATOM      8  C   UNL     1      -0.535  10.289  20.839  0.00  0.00    +0.000 C 
ATOM      9  C   UNL     1      -0.430  11.657  20.109  0.00  0.00    +0.000 C 
ATOM     10  C   UNL     1       0.337  11.449  18.782  0.00  0.00    +0.000 C 
ATOM     11  C   UNL     1       1.716  10.801  19.040  0.00  0.00    +0.000 C 
ATOM     12  N   UNL     1       2.867   8.232  18.232  0.00  0.00    +0.000 NA
ATOM     13  C   UNL     1       3.452   7.063  17.843  0.00  0.00    +0.000 A 
ATOM     14  N   UNL     1       4.300   7.088  16.706  0.00  0.00    +0.000 N 
ATOM     15  C   UNL     1       3.210   5.881  18.594  0.00  0.00    +0.000 A 
ATOM     16  C   UNL     1       3.791   4.627  18.308  0.00  0.00    +0.000 A 
ATOM     17  C   UNL     1       3.496   3.495  19.110  0.00  0.00    +0.000 A 
ATOM     18  H   UNL     1       4.444   7.974  16.198  0.00  0.00    +0.000 HD
ATOM     19  H   UNL     1       4.790   6.258  16.347  0.00  0.00    +0.000 HD
ENDROOT
BRANCH   9  20
ATOM     20  C   UNL     1       0.216  12.766  20.943  0.00  0.00    +0.000 C 
ATOM     21  O   UNL     1       0.209  12.639  22.160  0.00  0.00    +0.000 OA
ATOM     22  N   UNL     1       0.791  13.904  20.416  0.00  0.00    +0.000 N 
ATOM     23  C   UNL     1       1.500  14.833  21.278  0.00  0.00    +0.000 C 
ATOM     24  C   UNL     1       2.971  14.368  21.386  0.00  0.00    +0.000 C 
ATOM     25  C   UNL     1       1.338  16.162  20.563  0.00  0.00    +0.000 C 
ATOM     26  C   UNL     1       1.526  15.762  19.110  0.00  0.00    +0.000 C 
ATOM     27  C   UNL     1       0.805  14.391  19.022  0.00  0.00    +0.000 C 
ATOM     28  C   UNL     1      -0.591  14.615  18.413  0.00  0.00    +0.000 C 
ENDBRANCH   9  20
BRANCH   1  30
ATOM     29  C   UNL     1       1.392   2.474  21.964  0.00  0.00    +0.000 C 
ATOM     30  O   UNL     1       2.328   2.523  20.947  0.00  0.00    +0.000 OA
ENDBRANCH   1  30
BRANCH  17  31
ATOM     31  O   UNL     1       4.058   2.280  18.871  0.00  0.00    +0.000 OA
ATOM     32  C   UNL     1       3.648   1.372  17.913  0.00  0.00    +0.000 C 
ENDBRANCH  17  31
TORSDOF 3
ENDMDL
MODEL 6
REMARK VINA RESULT:      -6.6      2.953      4.680
REMARK  Name = 
REMARK  7 active torsions:
REMARK  status: ('A' for Active; 'I' for Inactive)
REMARK    1  A    between atoms: C_1  and  O_2
REMARK    2  A    between atoms: O_2  and  C_3
REMARK    3  A    between atoms: C_11  and  C_12
REMARK    4  A    between atoms: C_15  and  C_16
REMARK    5  A    between atoms: C_19  and  C_20
REMARK    6  A    between atoms: C_28  and  O_29
REMARK    7  A    between atoms: O_29  and  C_30
REMARK                            x       y       z     vdW  Elec       q    Type
REMARK                         _______ _______ _______ _____ _____    ______ ____
ROOT
ATOM      1  C   UNL     1       3.791   6.099  17.385  0.00  0.00    +0.000 A 
ATOM      2  C   UNL     1       3.540   7.481  17.411  0.00  0.00    +0.000 A 
ATOM      3  C   UNL     1       2.771   8.048  18.422  0.00  0.00    +0.000 A 
ATOM      4  N   UNL     1       2.526   9.375  18.386  0.00  0.00    +0.000 NA
ATOM      5  C   UNL     1       1.780   9.995  19.331  0.00  0.00    +0.000 A 
ATOM      6  N   UNL     1       1.468  11.381  19.179  0.00  0.00    +0.000 N 
ATOM      7  C   UNL     1       1.846  12.097  17.974  0.00  0.00    +0.000 C 
ATOM      8  C   UNL     1       2.643  13.349  18.353  0.00  0.00    +0.000 C 
ATOM      9  C   UNL     1       1.892  14.241  19.379  0.00  0.00    +0.000 C 
ATOM     10  C   UNL     1       1.531  13.377  20.610  0.00  0.00    +0.000 C 
ATOM     11  C   UNL     1       0.717  12.132  20.189  0.00  0.00    +0.000 C 
ATOM     12  N   UNL     1       1.275   9.262  20.361  0.00  0.00    +0.000 NA
ATOM     13  C   UNL     1       1.482   7.918  20.460  0.00  0.00    +0.000 A 
ATOM     14  N   UNL     1       0.903   7.233  21.559  0.00  0.00    +0.000 N 
ATOM     15  C   UNL     1       2.242   7.256  19.458  0.00  0.00    +0.000 A 
ATOM     16  C   UNL     1       2.487   5.867  19.436  0.00  0.00    +0.000 A 
ATOM     17  C   UNL     1       3.257   5.285  18.397  0.00  0.00    +0.000 A 
ATOM     18  H   UNL     1       0.358   7.761  22.257  0.00  0.00    +0.000 HD
ATOM     19  H   UNL     1       0.998   6.221  21.708  0.00  0.00    +0.000 HD
ENDROOT
BRANCH   9  20
ATOM     20  C   UNL     1       0.647  14.933  18.818  0.00  0.00    +0.000 C 
ATOM     21  O   UNL     1      -0.355  14.251  18.651  0.00  0.00    +0.000 OA
ATOM     22  N   UNL     1       0.585  16.267  18.472  0.00  0.00    +0.000 N 
ATOM     23  C   UNL     1      -0.679  16.863  18.076  0.00  0.00    +0.000 C 
ATOM     24  C   UNL     1      -1.404  17.353  19.351  0.00  0.00    +0.000 C 
ATOM     25  C   UNL     1      -0.256  17.990  17.151  0.00  0.00    +0.000 C 
ATOM     26  C   UNL     1       0.961  18.546  17.869  0.00  0.00    +0.000 C 
ATOM     27  C   UNL     1       1.662  17.275  18.418  0.00  0.00    +0.000 C 
ATOM     28  C   UNL     1       2.823  16.915  17.473  0.00  0.00    +0.000 C 
ENDBRANCH   9  20
BRANCH   1  30
ATOM     29  C   UNL     1       5.904   5.688  16.244  0.00  0.00    +0.000 C 
ATOM     30  O   UNL     1       4.538   5.531  16.401  0.00  0.00    +0.000 OA
ENDBRANCH   1  30
BRANCH  17  31
ATOM     31  O   UNL     1       3.490   3.946  18.339  0.00  0.00    +0.000 OA
ATOM     32  C   UNL     1       4.339   3.235  19.166  0.00  0.00    +0.000 C 
ENDBRANCH  17  31
TORSDOF 3
ENDMDL
MODEL 7
REMARK VINA RESULT:      -6.6      1.855      3.404
REMARK  Name = 
REMARK  7 active torsions:
REMARK  status: ('A' for Active; 'I' for Inactive)
REMARK    1  A    between atoms: C_1  and  O_2
REMARK    2  A    between atoms: O_2  and  C_3
REMARK    3  A    between atoms: C_11  and  C_12
REMARK    4  A    between atoms: C_15  and  C_16
REMARK    5  A    between atoms: C_19  and  C_20
REMARK    6  A    between atoms: C_28  and  O_29
REMARK    7  A    between atoms: O_29  and  C_30
REMARK                            x       y       z     vdW  Elec       q    Type
REMARK                         _______ _______ _______ _____ _____    ______ ____
ROOT
ATOM      1  C   UNL     1       4.363   5.309  16.802  0.00  0.00    +0.000 A 
ATOM      2  C   UNL     1       3.850   6.596  17.033  0.00  0.00    +0.000 A 
ATOM      3  C   UNL     1       3.106   6.874  18.174  0.00  0.00    +0.000 A 
ATOM      4  N   UNL     1       2.600   8.116  18.335  0.00  0.00    +0.000 NA
ATOM      5  C   UNL     1       1.861   8.458  19.417  0.00  0.00    +0.000 A 
ATOM      6  N   UNL     1       1.266   9.756  19.477  0.00  0.00    +0.000 N 
ATOM      7  C   UNL     1       1.354  10.663  18.348  0.00  0.00    +0.000 C 
ATOM      8  C   UNL     1       1.928  12.005  18.815  0.00  0.00    +0.000 C 
ATOM      9  C   UNL     1       1.138  12.601  20.013  0.00  0.00    +0.000 C 
ATOM     10  C   UNL     1       1.098  11.550  21.147  0.00  0.00    +0.000 C 
ATOM     11  C   UNL     1       0.503  10.216  20.640  0.00  0.00    +0.000 C 
ATOM     12  N   UNL     1       1.632   7.526  20.383  0.00  0.00    +0.000 NA
ATOM     13  C   UNL     1       2.109   6.253  20.285  0.00  0.00    +0.000 A 
ATOM     14  N   UNL     1       1.807   5.345  21.332  0.00  0.00    +0.000 N 
ATOM     15  C   UNL     1       2.865   5.880  19.140  0.00  0.00    +0.000 A 
ATOM     16  C   UNL     1       3.375   4.583  18.914  0.00  0.00    +0.000 A 
ATOM     17  C   UNL     1       4.120   4.295  17.743  0.00  0.00    +0.000 A 
ATOM     18  H   UNL     1       1.252   5.666  22.139  0.00  0.00    +0.000 HD
ATOM     19  H   UNL     1       2.116   4.364  21.337  0.00  0.00    +0.000 HD
ENDROOT
BRANCH   9  20
ATOM     20  C   UNL     1      -0.275  13.074  19.661  0.00  0.00    +0.000 C 
ATOM     21  O   UNL     1      -0.621  13.005  18.489  0.00  0.00    +0.000 OA
ATOM     22  N   UNL     1      -1.176  13.587  20.571  0.00  0.00    +0.000 N 
ATOM     23  C   UNL     1      -2.539  13.882  20.167  0.00  0.00    +0.000 C 
ATOM     24  C   UNL     1      -3.384  12.598  20.339  0.00  0.00    +0.000 C 
ATOM     25  C   UNL     1      -2.944  15.003  21.106  0.00  0.00    +0.000 C 
ATOM     26  C   UNL     1      -2.340  14.544  22.422  0.00  0.00    +0.000 C 
ATOM     27  C   UNL     1      -0.982  13.928  21.994  0.00  0.00    +0.000 C 
ATOM     28  C   UNL     1       0.124  14.967  22.255  0.00  0.00    +0.000 C 
ENDBRANCH   9  20
BRANCH   1  30
ATOM     29  C   UNL     1       6.458   5.187  15.565  0.00  0.00    +0.000 C 
ATOM     30  O   UNL     1       5.090   5.022  15.690  0.00  0.00    +0.000 OA
ENDBRANCH   1  30
BRANCH  17  31
ATOM     31  O   UNL     1       4.605   3.050  17.488  0.00  0.00    +0.000 OA
ATOM     32  C   UNL     1       3.987   1.857  17.817  0.00  0.00    +0.000 C 
ENDBRANCH  17  31
TORSDOF 3
ENDMDL
MODEL 8
REMARK VINA RESULT:      -6.4      3.022      4.807
REMARK  Name = 
REMARK  7 active torsions:
REMARK  status: ('A' for Active; 'I' for Inactive)
REMARK    1  A    between atoms: C_1  and  O_2
REMARK    2  A    between atoms: O_2  and  C_3
REMARK    3  A    between atoms: C_11  and  C_12
REMARK    4  A    between atoms: C_15  and  C_16
REMARK    5  A    between atoms: C_19  and  C_20
REMARK    6  A    between atoms: C_28  and  O_29
REMARK    7  A    between atoms: O_29  and  C_30
REMARK                            x       y       z     vdW  Elec       q    Type
REMARK                         _______ _______ _______ _____ _____    ______ ____
ROOT
ATOM      1  C   UNL     1       2.696   5.992  18.600  0.00  0.00    +0.000 A 
ATOM      2  C   UNL     1       2.584   7.382  18.436  0.00  0.00    +0.000 A 
ATOM      3  C   UNL     1       1.918   8.161  19.376  0.00  0.00    +0.000 A 
ATOM      4  N   UNL     1       1.802   9.488  19.158  0.00  0.00    +0.000 NA
ATOM      5  C   UNL     1       1.162  10.307  20.026  0.00  0.00    +0.000 A 
ATOM      6  N   UNL     1       0.981  11.684  19.686  0.00  0.00    +0.000 N 
ATOM      7  C   UNL     1       1.377  12.182  18.381  0.00  0.00    +0.000 C 
ATOM      8  C   UNL     1       2.309  13.386  18.556  0.00  0.00    +0.000 C 
ATOM      9  C   UNL     1       1.692  14.485  19.464  0.00  0.00    +0.000 C 
ATOM     10  C   UNL     1       1.300  13.842  20.816  0.00  0.00    +0.000 C 
ATOM     11  C   UNL     1       0.351  12.641  20.599  0.00  0.00    +0.000 C 
ATOM     12  N   UNL     1       0.631   9.781  21.163  0.00  0.00    +0.000 NA
ATOM     13  C   UNL     1       0.709   8.450  21.446  0.00  0.00    +0.000 A 
ATOM     14  N   UNL     1       0.112   7.988  22.648  0.00  0.00    +0.000 N 
ATOM     15  C   UNL     1       1.357   7.580  20.529  0.00  0.00    +0.000 A 
ATOM     16  C   UNL     1       1.463   6.183  20.699  0.00  0.00    +0.000 A 
ATOM     17  C   UNL     1       2.128   5.386  19.732  0.00  0.00    +0.000 A 
ATOM     18  H   UNL     1      -0.349   8.661  23.278  0.00  0.00    +0.000 HD
ATOM     19  H   UNL     1       0.113   7.002  22.937  0.00  0.00    +0.000 HD
ENDROOT
BRANCH   9  20
ATOM     20  C   UNL     1       0.499  15.216  18.844  0.00  0.00    +0.000 C 
ATOM     21  O   UNL     1      -0.575  14.630  18.817  0.00  0.00    +0.000 OA
ATOM     22  N   UNL     1       0.557  16.483  18.301  0.00  0.00    +0.000 N 
ATOM     23  C   UNL     1      -0.656  17.147  17.860  0.00  0.00    +0.000 C 
ATOM     24  C   UNL     1      -1.264  17.898  19.067  0.00  0.00    +0.000 C 
ATOM     25  C   UNL     1      -0.166  18.070  16.759  0.00  0.00    +0.000 C 
ATOM     26  C   UNL     1       1.135  18.591  17.343  0.00  0.00    +0.000 C 
ATOM     27  C   UNL     1       1.728  17.348  18.057  0.00  0.00    +0.000 C 
ATOM     28  C   UNL     1       2.798  16.727  17.141  0.00  0.00    +0.000 C 
ENDBRANCH   9  20
BRANCH   1  30
ATOM     29  C   UNL     1       4.494   5.576  17.010  0.00  0.00    +0.000 C 
ATOM     30  O   UNL     1       3.342   5.218  17.687  0.00  0.00    +0.000 OA
ENDBRANCH   1  30
BRANCH  17  31
ATOM     31  O   UNL     1       2.226   4.036  19.859  0.00  0.00    +0.000 OA
ATOM     32  C   UNL     1       1.885   3.300  20.979  0.00  0.00    +0.000 C 
ENDBRANCH  17  31
TORSDOF 3
ENDMDL
MODEL 9
REMARK VINA RESULT:      -6.4      2.287      3.794
REMARK  Name = 
REMARK  7 active torsions:
REMARK  status: ('A' for Active; 'I' for Inactive)
REMARK    1  A    between atoms: C_1  and  O_2
REMARK    2  A    between atoms: O_2  and  C_3
REMARK    3  A    between atoms: C_11  and  C_12
REMARK    4  A    between atoms: C_15  and  C_16
REMARK    5  A    between atoms: C_19  and  C_20
REMARK    6  A    between atoms: C_28  and  O_29
REMARK    7  A    between atoms: O_29  and  C_30
REMARK                            x       y       z     vdW  Elec       q    Type
REMARK                         _______ _______ _______ _____ _____    ______ ____
ROOT
ATOM      1  C   UNL     1       4.624   6.611  16.827  0.00  0.00    +0.000 A 
ATOM      2  C   UNL     1       3.780   7.690  17.135  0.00  0.00    +0.000 A 
ATOM      3  C   UNL     1       2.983   7.672  18.275  0.00  0.00    +0.000 A 
ATOM      4  N   UNL     1       2.160   8.715  18.510  0.00  0.00    +0.000 NA
ATOM      5  C   UNL     1       1.351   8.764  19.595  0.00  0.00    +0.000 A 
ATOM      6  N   UNL     1       0.426   9.845  19.731  0.00  0.00    +0.000 N 
ATOM      7  C   UNL     1       0.269  10.823  18.670  0.00  0.00    +0.000 C 
ATOM      8  C   UNL     1       0.455  12.232  19.244  0.00  0.00    +0.000 C 
ATOM      9  C   UNL     1      -0.472  12.502  20.461  0.00  0.00    +0.000 C 
ATOM     10  C   UNL     1      -0.230  11.398  21.518  0.00  0.00    +0.000 C 
ATOM     11  C   UNL     1      -0.439   9.995  20.905  0.00  0.00    +0.000 C 
ATOM     12  N   UNL     1       1.379   7.737  20.488  0.00  0.00    +0.000 NA
ATOM     13  C   UNL     1       2.184   6.651  20.312  0.00  0.00    +0.000 A 
ATOM     14  N   UNL     1       2.136   5.620  21.285  0.00  0.00    +0.000 N 
ATOM     15  C   UNL     1       3.018   6.581  19.163  0.00  0.00    +0.000 A 
ATOM     16  C   UNL     1       3.861   5.491  18.859  0.00  0.00    +0.000 A 
ATOM     17  C   UNL     1       4.662   5.502  17.688  0.00  0.00    +0.000 A 
ATOM     18  H   UNL     1       1.511   5.719  22.100  0.00  0.00    +0.000 HD
ATOM     19  H   UNL     1       2.699   4.762  21.230  0.00  0.00    +0.000 HD
ENDROOT
BRANCH   9  20
ATOM     20  C   UNL     1      -1.958  12.600  20.110  0.00  0.00    +0.000 C 
ATOM     21  O   UNL     1      -2.389  11.845  19.249  0.00  0.00    +0.000 OA
ATOM     22  N   UNL     1      -2.839  13.493  20.685  0.00  0.00    +0.000 N 
ATOM     23  C   UNL     1      -4.258  13.418  20.385  0.00  0.00    +0.000 C 
ATOM     24  C   UNL     1      -4.911  12.425  21.374  0.00  0.00    +0.000 C 
ATOM     25  C   UNL     1      -4.726  14.850  20.568  0.00  0.00    +0.000 C 
ATOM     26  C   UNL     1      -3.960  15.275  21.808  0.00  0.00    +0.000 C 
ATOM     27  C   UNL     1      -2.573  14.606  21.617  0.00  0.00    +0.000 C 
ATOM     28  C   UNL     1      -1.594  15.665  21.080  0.00  0.00    +0.000 C 
ENDBRANCH   9  20
BRANCH   1  30
ATOM     29  C   UNL     1       5.388   5.650  14.723  0.00  0.00    +0.000 C 
ATOM     30  O   UNL     1       5.406   6.614  15.715  0.00  0.00    +0.000 OA
ENDBRANCH   1  30
BRANCH  17  31
ATOM     31  O   UNL     1       5.467   4.456  17.359  0.00  0.00    +0.000 OA
ATOM     32  C   UNL     1       6.796   4.316  17.709  0.00  0.00    +0.000 C 
ENDBRANCH  17  31
TORSDOF 3
ENDMDL
