MODEL 1
REMARK VINA RESULT:      -6.7      0.000      0.000
REMARK  Name = 
REMARK  7 active torsions:
REMARK  status: ('A' for Active; 'I' for Inactive)
REMARK    1  A    between atoms: C_2  and  C_3
REMARK    2  A    between atoms: C_2  and  O_12
REMARK    3  A    between atoms: C_3  and  O_4
REMARK    4  A    between atoms: O_4  and  C_5
REMARK    5  A    between atoms: O_12  and  C_13
REMARK    6  A    between atoms: C_13  and  C_14
REMARK    7  A    between atoms: C_14  and  C_16
REMARK                            x       y       z     vdW  Elec       q    Type
REMARK                         _______ _______ _______ _____ _____    ______ ____
ROOT
ATOM      1  O   UNL     1       7.734   6.719  17.995  0.00  0.00    +0.000 OA
ATOM      2  C   UNL     1       7.382   5.546  17.968  0.00  0.00    +0.000 C 
ENDROOT
BRANCH   2   3
ATOM      3  C   UNL     1       7.600   4.607  16.793  0.00  0.00    +0.000 C 
BRANCH   3   4
ATOM      4  O   UNL     1       7.662   5.334  15.572  0.00  0.00    +0.000 OA
BRANCH   4   5
ATOM      5  C   UNL     1       7.006   4.788  14.501  0.00  0.00    +0.000 A 
ATOM      6  C   UNL     1       7.515   4.664  13.205  0.00  0.00    +0.000 A 
ATOM      7  C   UNL     1       6.743   4.079  12.195  0.00  0.00    +0.000 A 
ATOM      8  C   UNL     1       5.461   3.613  12.480  0.00  0.00    +0.000 A 
ATOM      9 CL   UNL     1       4.520   2.884  11.237  0.00  0.00    +0.000 Cl
ATOM     10  C   UNL     1       4.941   3.736  13.766  0.00  0.00    +0.000 A 
ATOM     11  C   UNL     1       5.714   4.324  14.771  0.00  0.00    +0.000 A 
ENDBRANCH   4   5
ENDBRANCH   3   4
ENDBRANCH   2   3
BRANCH   2  12
ATOM     12  O   UNL     1       6.744   4.904  18.989  0.00  0.00    +0.000 OA
BRANCH  12  13
ATOM     13  C   UNL     1       5.477   5.467  19.342  0.00  0.00    +0.000 C 
BRANCH  13  14
ATOM     14  C   UNL     1       4.421   5.337  18.238  0.00  0.00    +0.000 C 
ATOM     15  O   UNL     1       4.100   6.296  17.534  0.00  0.00    +0.000 OA
BRANCH  14  16
ATOM     16  C   UNL     1       3.793   4.035  18.072  0.00  0.00    +0.000 A 
ATOM     17  C   UNL     1       2.577   3.666  17.520  0.00  0.00    +0.000 A 
ATOM     18  C   UNL     1       2.456   2.257  17.625  0.00  0.00    +0.000 A 
ATOM     19  C   UNL     1       3.599   1.795  18.234  0.00  0.00    +0.000 A 
ATOM     20  N   UNL     1       4.405   2.871  18.490  0.00  0.00    +0.000 N 
ATOM     21  H   UNL     1       5.316   2.841  18.932  0.00  0.00    +0.000 HD
ENDBRANCH  14  16
ENDBRANCH  13  14
ENDBRANCH  12  13
ENDBRANCH   2  12
TORSDOF 7
ENDMDL
MODEL 2
REMARK VINA RESULT:      -6.6      2.789      5.657
REMARK  Name = 
REMARK  7 active torsions:
REMARK  status: ('A' for Active; 'I' for Inactive)
REMARK    1  A    between atoms: C_2  and  C_3
REMARK    2  A    between atoms: C_2  and  O_12
REMARK    3  A    between atoms: C_3  and  O_4
REMARK    4  A    between atoms: O_4  and  C_5
REMARK    5  A    between atoms: O_12  and  C_13
REMARK    6  A    between atoms: C_13  and  C_14
REMARK    7  A    between atoms: C_14  and  C_16
REMARK                            x       y       z     vdW  Elec       q    Type
REMARK                         _______ _______ _______ _____ _____    ______ ____
ROOT
ATOM      1  O   UNL     1       8.162   4.214  17.148  0.00  0.00    +0.000 OA
ATOM      2  C   UNL     1       6.984   4.544  17.203  0.00  0.00    +0.000 C 
ENDROOT
BRANCH   2   3
ATOM      3  C   UNL     1       6.388   5.433  18.281  0.00  0.00    +0.000 C 
BRANCH   3   4
ATOM      4  O   UNL     1       5.944   4.657  19.388  0.00  0.00    +0.000 OA
BRANCH   4   5
ATOM      5  C   UNL     1       4.721   4.053  19.262  0.00  0.00    +0.000 A 
ATOM      6  C   UNL     1       4.450   2.699  19.479  0.00  0.00    +0.000 A 
ATOM      7  C   UNL     1       3.150   2.205  19.322  0.00  0.00    +0.000 A 
ATOM      8  C   UNL     1       2.117   3.065  18.954  0.00  0.00    +0.000 A 
ATOM      9 CL   UNL     1       0.519   2.454  18.775  0.00  0.00    +0.000 Cl
ATOM     10  C   UNL     1       2.376   4.415  18.731  0.00  0.00    +0.000 A 
ATOM     11  C   UNL     1       3.677   4.904  18.884  0.00  0.00    +0.000 A 
ENDBRANCH   4   5
ENDBRANCH   3   4
ENDBRANCH   2   3
BRANCH   2  12
ATOM     12  O   UNL     1       6.029   4.166  16.305  0.00  0.00    +0.000 OA
BRANCH  12  13
ATOM     13  C   UNL     1       5.855   5.071  15.210  0.00  0.00    +0.000 C 
BRANCH  13  14
ATOM     14  C   UNL     1       6.746   4.750  14.004  0.00  0.00    +0.000 C 
ATOM     15  O   UNL     1       7.864   5.252  13.876  0.00  0.00    +0.000 OA
BRANCH  14  16
ATOM     16  C   UNL     1       6.205   3.846  13.002  0.00  0.00    +0.000 A 
ATOM     17  C   UNL     1       4.921   3.689  12.506  0.00  0.00    +0.000 A 
ATOM     18  C   UNL     1       4.945   2.648  11.544  0.00  0.00    +0.000 A 
ATOM     19  C   UNL     1       6.241   2.194  11.468  0.00  0.00    +0.000 A 
ATOM     20  N   UNL     1       6.996   2.928  12.342  0.00  0.00    +0.000 N 
ATOM     21  H   UNL     1       7.991   2.823  12.504  0.00  0.00    +0.000 HD
ENDBRANCH  14  16
ENDBRANCH  13  14
ENDBRANCH  12  13
ENDBRANCH   2  12
TORSDOF 7
ENDMDL
MODEL 3
REMARK VINA RESULT:      -6.5      5.565      7.302
REMARK  Name = 
REMARK  7 active torsions:
REMARK  status: ('A' for Active; 'I' for Inactive)
REMARK    1  A    between atoms: C_2  and  C_3
REMARK    2  A    between atoms: C_2  and  O_12
REMARK    3  A    between atoms: C_3  and  O_4
REMARK    4  A    between atoms: O_4  and  C_5
REMARK    5  A    between atoms: O_12  and  C_13
REMARK    6  A    between atoms: C_13  and  C_14
REMARK    7  A    between atoms: C_14  and  C_16
REMARK                            x       y       z     vdW  Elec       q    Type
REMARK                         _______ _______ _______ _____ _____    ______ ____
ROOT
ATOM      1  O   UNL     1       6.976   7.441  16.684  0.00  0.00    +0.000 OA
ATOM      2  C   UNL     1       7.688   7.793  17.617  0.00  0.00    +0.000 C 
ENDROOT
BRANCH   2   3
ATOM      3  C   UNL     1       8.030   9.236  17.944  0.00  0.00    +0.000 C 
BRANCH   3   4
ATOM      4  O   UNL     1       9.031   9.302  18.953  0.00  0.00    +0.000 OA
BRANCH   4   5
ATOM      5  C   UNL     1       9.549  10.541  19.222  0.00  0.00    +0.000 A 
ATOM      6  C   UNL     1      10.153  11.396  18.296  0.00  0.00    +0.000 A 
ATOM      7  C   UNL     1      10.639  12.645  18.699  0.00  0.00    +0.000 A 
ATOM      8  C   UNL     1      10.517  13.043  20.029  0.00  0.00    +0.000 A 
ATOM      9 CL   UNL     1      11.105  14.586  20.516  0.00  0.00    +0.000 Cl
ATOM     10  C   UNL     1       9.921  12.199  20.962  0.00  0.00    +0.000 A 
ATOM     11  C   UNL     1       9.440  10.950  20.556  0.00  0.00    +0.000 A 
ENDBRANCH   4   5
ENDBRANCH   3   4
ENDBRANCH   2   3
BRANCH   2  12
ATOM     12  O   UNL     1       8.278   6.942  18.505  0.00  0.00    +0.000 OA
BRANCH  12  13
ATOM     13  C   UNL     1       7.412   5.924  19.015  0.00  0.00    +0.000 C 
BRANCH  13  14
ATOM     14  C   UNL     1       7.227   4.742  18.055  0.00  0.00    +0.000 C 
ATOM     15  O   UNL     1       8.180   4.242  17.455  0.00  0.00    +0.000 OA
BRANCH  14  16
ATOM     16  C   UNL     1       5.871   4.252  17.862  0.00  0.00    +0.000 A 
ATOM     17  C   UNL     1       4.945   4.486  16.858  0.00  0.00    +0.000 A 
ATOM     18  C   UNL     1       3.766   3.761  17.170  0.00  0.00    +0.000 A 
ATOM     19  C   UNL     1       3.998   3.097  18.352  0.00  0.00    +0.000 A 
ATOM     20  N   UNL     1       5.272   3.389  18.756  0.00  0.00    +0.000 N 
ATOM     21  H   UNL     1       5.725   3.042  19.594  0.00  0.00    +0.000 HD
ENDBRANCH  14  16
ENDBRANCH  13  14
ENDBRANCH  12  13
ENDBRANCH   2  12
TORSDOF 7
ENDMDL
MODEL 4
REMARK VINA RESULT:      -6.4      3.377      6.320
REMARK  Name = 
REMARK  7 active torsions:
REMARK  status: ('A' for Active; 'I' for Inactive)
REMARK    1  A    between atoms: C_2  and  C_3
REMARK    2  A    between atoms: C_2  and  O_12
REMARK    3  A    between atoms: C_3  and  O_4
REMARK    4  A    between atoms: O_4  and  C_5
REMARK    5  A    between atoms: O_12  and  C_13
REMARK    6  A    between atoms: C_13  and  C_14
REMARK    7  A    between atoms: C_14  and  C_16
REMARK                            x       y       z     vdW  Elec       q    Type
REMARK                         _______ _______ _______ _____ _____    ______ ____
ROOT
ATOM      1  O   UNL     1       6.001   7.205  17.277  0.00  0.00    +0.000 OA
ATOM      2  C   UNL     1       4.912   6.654  17.166  0.00  0.00    +0.000 C 
ENDROOT
BRANCH   2   3
ATOM      3  C   UNL     1       3.629   7.144  17.814  0.00  0.00    +0.000 C 
BRANCH   3   4
ATOM      4  O   UNL     1       2.578   6.203  17.628  0.00  0.00    +0.000 OA
BRANCH   4   5
ATOM      5  C   UNL     1       2.297   5.381  18.687  0.00  0.00    +0.000 A 
ATOM      6  C   UNL     1       2.514   5.678  20.035  0.00  0.00    +0.000 A 
ATOM      7  C   UNL     1       2.176   4.750  21.027  0.00  0.00    +0.000 A 
ATOM      8  C   UNL     1       1.617   3.524  20.671  0.00  0.00    +0.000 A 
ATOM      9 CL   UNL     1       1.193   2.391  21.896  0.00  0.00    +0.000 Cl
ATOM     10  C   UNL     1       1.401   3.214  19.331  0.00  0.00    +0.000 A 
ATOM     11  C   UNL     1       1.743   4.143  18.343  0.00  0.00    +0.000 A 
ENDBRANCH   4   5
ENDBRANCH   3   4
ENDBRANCH   2   3
BRANCH   2  12
ATOM     12  O   UNL     1       4.688   5.519  16.443  0.00  0.00    +0.000 OA
BRANCH  12  13
ATOM     13  C   UNL     1       5.500   4.405  16.823  0.00  0.00    +0.000 C 
BRANCH  13  14
ATOM     14  C   UNL     1       6.900   4.426  16.196  0.00  0.00    +0.000 C 
ATOM     15  O   UNL     1       7.918   4.420  16.889  0.00  0.00    +0.000 OA
BRANCH  14  16
ATOM     16  C   UNL     1       6.974   4.480  14.744  0.00  0.00    +0.000 A 
ATOM     17  C   UNL     1       6.271   3.799  13.764  0.00  0.00    +0.000 A 
ATOM     18  C   UNL     1       6.751   4.227  12.500  0.00  0.00    +0.000 A 
ATOM     19  C   UNL     1       7.732   5.163  12.734  0.00  0.00    +0.000 A 
ATOM     20  N   UNL     1       7.853   5.317  14.089  0.00  0.00    +0.000 N 
ATOM     21  H   UNL     1       8.495   5.942  14.562  0.00  0.00    +0.000 HD
ENDBRANCH  14  16
ENDBRANCH  13  14
ENDBRANCH  12  13
ENDBRANCH   2  12
TORSDOF 7
ENDMDL
MODEL 5
REMARK VINA RESULT:      -6.2      4.277      6.844
REMARK  Name = 
REMARK  7 active torsions:
REMARK  status: ('A' for Active; 'I' for Inactive)
REMARK    1  A    between atoms: C_2  and  C_3
REMARK    2  A    between atoms: C_2  and  O_12
REMARK    3  A    between atoms: C_3  and  O_4
REMARK    4  A    between atoms: O_4  and  C_5
REMARK    5  A    between atoms: O_12  and  C_13
REMARK    6  A    between atoms: C_13  and  C_14
REMARK    7  A    between atoms: C_14  and  C_16
REMARK                            x       y       z     vdW  Elec       q    Type
REMARK                         _______ _______ _______ _____ _____    ______ ____
ROOT
ATOM      1  O   UNL     1       1.012   3.102  20.182  0.00  0.00    +0.000 OA
ATOM      2  C   UNL     1       1.623   4.082  19.775  0.00  0.00    +0.000 C 
ENDROOT
BRANCH   2   3
ATOM      3  C   UNL     1       1.878   5.339  20.589  0.00  0.00    +0.000 C 
BRANCH   3   4
ATOM      4  O   UNL     1       2.731   6.233  19.884  0.00  0.00    +0.000 OA
BRANCH   4   5
ATOM      5  C   UNL     1       2.190   7.436  19.518  0.00  0.00    +0.000 A 
ATOM      6  C   UNL     1       2.280   8.023  18.253  0.00  0.00    +0.000 A 
ATOM      7  C   UNL     1       1.674   9.261  18.004  0.00  0.00    +0.000 A 
ATOM      8  C   UNL     1       0.974   9.910  19.019  0.00  0.00    +0.000 A 
ATOM      9 CL   UNL     1       0.222  11.425  18.703  0.00  0.00    +0.000 Cl
ATOM     10  C   UNL     1       0.882   9.337  20.284  0.00  0.00    +0.000 A 
ATOM     11  C   UNL     1       1.492   8.103  20.530  0.00  0.00    +0.000 A 
ENDBRANCH   4   5
ENDBRANCH   3   4
ENDBRANCH   2   3
BRANCH   2  12
ATOM     12  O   UNL     1       2.170   4.192  18.530  0.00  0.00    +0.000 OA
BRANCH  12  13
ATOM     13  C   UNL     1       3.111   3.165  18.204  0.00  0.00    +0.000 C 
BRANCH  13  14
ATOM     14  C   UNL     1       4.484   3.363  18.858  0.00  0.00    +0.000 C 
ATOM     15  O   UNL     1       4.811   2.747  19.874  0.00  0.00    +0.000 OA
BRANCH  14  16
ATOM     16  C   UNL     1       5.378   4.332  18.242  0.00  0.00    +0.000 A 
ATOM     17  C   UNL     1       5.122   5.495  17.533  0.00  0.00    +0.000 A 
ATOM     18  C   UNL     1       6.365   6.056  17.145  0.00  0.00    +0.000 A 
ATOM     19  C   UNL     1       7.352   5.229  17.628  0.00  0.00    +0.000 A 
ATOM     20  N   UNL     1       6.750   4.198  18.297  0.00  0.00    +0.000 N 
ATOM     21  H   UNL     1       7.223   3.432  18.762  0.00  0.00    +0.000 HD
ENDBRANCH  14  16
ENDBRANCH  13  14
ENDBRANCH  12  13
ENDBRANCH   2  12
TORSDOF 7
ENDMDL
MODEL 6
REMARK VINA RESULT:      -6.2      4.167      6.800
REMARK  Name = 
REMARK  7 active torsions:
REMARK  status: ('A' for Active; 'I' for Inactive)
REMARK    1  A    between atoms: C_2  and  C_3
REMARK    2  A    between atoms: C_2  and  O_12
REMARK    3  A    between atoms: C_3  and  O_4
REMARK    4  A    between atoms: O_4  and  C_5
REMARK    5  A    between atoms: O_12  and  C_13
REMARK    6  A    between atoms: C_13  and  C_14
REMARK    7  A    between atoms: C_14  and  C_16
REMARK                            x       y       z     vdW  Elec       q    Type
REMARK                         _______ _______ _______ _____ _____    ______ ____
ROOT
ATOM      1  O   UNL     1       1.011   3.976  17.602  0.00  0.00    +0.000 OA
ATOM      2  C   UNL     1       2.011   4.501  18.076  0.00  0.00    +0.000 C 
ENDROOT
BRANCH   2   3
ATOM      3  C   UNL     1       2.080   5.137  19.454  0.00  0.00    +0.000 C 
BRANCH   3   4
ATOM      4  O   UNL     1       2.927   6.279  19.442  0.00  0.00    +0.000 OA
BRANCH   4   5
ATOM      5  C   UNL     1       2.327   7.487  19.204  0.00  0.00    +0.000 A 
ATOM      6  C   UNL     1       2.382   8.207  18.007  0.00  0.00    +0.000 A 
ATOM      7  C   UNL     1       1.715   9.432  17.889  0.00  0.00    +0.000 A 
ATOM      8  C   UNL     1       0.989   9.937  18.966  0.00  0.00    +0.000 A 
ATOM      9 CL   UNL     1       0.162  11.438  18.810  0.00  0.00    +0.000 Cl
ATOM     10  C   UNL     1       0.930   9.230  20.164  0.00  0.00    +0.000 A 
ATOM     11  C   UNL     1       1.600   8.009  20.280  0.00  0.00    +0.000 A 
ENDBRANCH   4   5
ENDBRANCH   3   4
ENDBRANCH   2   3
BRANCH   2  12
ATOM     12  O   UNL     1       3.215   4.592  17.441  0.00  0.00    +0.000 OA
BRANCH  12  13
ATOM     13  C   UNL     1       4.081   3.473  17.650  0.00  0.00    +0.000 C 
BRANCH  13  14
ATOM     14  C   UNL     1       5.186   3.739  18.680  0.00  0.00    +0.000 C 
ATOM     15  O   UNL     1       5.266   3.089  19.723  0.00  0.00    +0.000 OA
BRANCH  14  16
ATOM     16  C   UNL     1       6.122   4.812  18.383  0.00  0.00    +0.000 A 
ATOM     17  C   UNL     1       6.940   5.569  19.206  0.00  0.00    +0.000 A 
ATOM     18  C   UNL     1       7.646   6.493  18.395  0.00  0.00    +0.000 A 
ATOM     19  C   UNL     1       7.249   6.279  17.096  0.00  0.00    +0.000 A 
ATOM     20  N   UNL     1       6.339   5.258  17.096  0.00  0.00    +0.000 N 
ATOM     21  H   UNL     1       5.871   4.876  16.282  0.00  0.00    +0.000 HD
ENDBRANCH  14  16
ENDBRANCH  13  14
ENDBRANCH  12  13
ENDBRANCH   2  12
TORSDOF 7
ENDMDL
MODEL 7
REMARK VINA RESULT:      -6.2      3.251      6.009
REMARK  Name = 
REMARK  7 active torsions:
REMARK  status: ('A' for Active; 'I' for Inactive)
REMARK    1  A    between atoms: C_2  and  C_3
REMARK    2  A    between atoms: C_2  and  O_12
REMARK    3  A    between atoms: C_3  and  O_4
REMARK    4  A    between atoms: O_4  and  C_5
REMARK    5  A    between atoms: O_12  and  C_13
REMARK    6  A    between atoms: C_13  and  C_14
REMARK    7  A    between atoms: C_14  and  C_16
REMARK                            x       y       z     vdW  Elec       q    Type
REMARK                         _______ _______ _______ _____ _____    ______ ____
ROOT
ATOM      1  O   UNL     1       6.016   5.394  14.469  0.00  0.00    +0.000 OA
ATOM      2  C   UNL     1       6.359   4.913  15.542  0.00  0.00    +0.000 C 
ENDROOT
BRANCH   2   3
ATOM      3  C   UNL     1       5.588   3.837  16.289  0.00  0.00    +0.000 C 
BRANCH   3   4
ATOM      4  O   UNL     1       4.217   4.193  16.414  0.00  0.00    +0.000 OA
BRANCH   4   5
ATOM      5  C   UNL     1       3.594   3.837  17.580  0.00  0.00    +0.000 A 
ATOM      6  C   UNL     1       4.230   3.457  18.765  0.00  0.00    +0.000 A 
ATOM      7  C   UNL     1       3.476   3.120  19.896  0.00  0.00    +0.000 A 
ATOM      8  C   UNL     1       2.085   3.168  19.844  0.00  0.00    +0.000 A 
ATOM      9 CL   UNL     1       1.163   2.765  21.241  0.00  0.00    +0.000 Cl
ATOM     10  C   UNL     1       1.440   3.541  18.668  0.00  0.00    +0.000 A 
ATOM     11  C   UNL     1       2.196   3.873  17.540  0.00  0.00    +0.000 A 
ENDBRANCH   4   5
ENDBRANCH   3   4
ENDBRANCH   2   3
BRANCH   2  12
ATOM     12  O   UNL     1       7.484   5.266  16.226  0.00  0.00    +0.000 OA
BRANCH  12  13
ATOM     13  C   UNL     1       7.610   4.656  17.514  0.00  0.00    +0.000 C 
BRANCH  13  14
ATOM     14  C   UNL     1       7.504   5.652  18.676  0.00  0.00    +0.000 C 
ATOM     15  O   UNL     1       7.203   5.287  19.813  0.00  0.00    +0.000 OA
BRANCH  14  16
ATOM     16  C   UNL     1       7.750   7.053  18.371  0.00  0.00    +0.000 A 
ATOM     17  C   UNL     1       8.660   7.959  18.892  0.00  0.00    +0.000 A 
ATOM     18  C   UNL     1       8.463   9.203  18.241  0.00  0.00    +0.000 A 
ATOM     19  C   UNL     1       7.443   9.031  17.335  0.00  0.00    +0.000 A 
ATOM     20  N   UNL     1       7.026   7.729  17.412  0.00  0.00    +0.000 N 
ATOM     21  H   UNL     1       6.288   7.307  16.861  0.00  0.00    +0.000 HD
ENDBRANCH  14  16
ENDBRANCH  13  14
ENDBRANCH  12  13
ENDBRANCH   2  12
TORSDOF 7
ENDMDL
MODEL 8
REMARK VINA RESULT:      -6.2      3.303      6.265
REMARK  Name = 
REMARK  7 active torsions:
REMARK  status: ('A' for Active; 'I' for Inactive)
REMARK    1  A    between atoms: C_2  and  C_3
REMARK    2  A    between atoms: C_2  and  O_12
REMARK    3  A    between atoms: C_3  and  O_4
REMARK    4  A    between atoms: O_4  and  C_5
REMARK    5  A    between atoms: O_12  and  C_13
REMARK    6  A    between atoms: C_13  and  C_14
REMARK    7  A    between atoms: C_14  and  C_16
REMARK                            x       y       z     vdW  Elec       q    Type
REMARK                         _______ _______ _______ _____ _____    ______ ____
ROOT
ATOM      1  O   UNL     1       5.171   6.792  15.702  0.00  0.00    +0.000 OA
ATOM      2  C   UNL     1       5.955   6.137  16.378  0.00  0.00    +0.000 C 
ENDROOT
BRANCH   2   3
ATOM      3  C   UNL     1       5.807   5.887  17.869  0.00  0.00    +0.000 C 
BRANCH   3   4
ATOM      4  O   UNL     1       4.600   6.458  18.359  0.00  0.00    +0.000 OA
BRANCH   4   5
ATOM      5  C   UNL     1       3.788   5.636  19.096  0.00  0.00    +0.000 A 
ATOM      6  C   UNL     1       2.548   5.984  19.640  0.00  0.00    +0.000 A 
ATOM      7  C   UNL     1       1.810   5.046  20.371  0.00  0.00    +0.000 A 
ATOM      8  C   UNL     1       2.308   3.758  20.555  0.00  0.00    +0.000 A 
ATOM      9 CL   UNL     1       1.390   2.606  21.445  0.00  0.00    +0.000 Cl
ATOM     10  C   UNL     1       3.544   3.402  20.022  0.00  0.00    +0.000 A 
ATOM     11  C   UNL     1       4.280   4.342  19.295  0.00  0.00    +0.000 A 
ENDBRANCH   4   5
ENDBRANCH   3   4
ENDBRANCH   2   3
BRANCH   2  12
ATOM     12  O   UNL     1       7.076   5.530  15.894  0.00  0.00    +0.000 OA
BRANCH  12  13
ATOM     13  C   UNL     1       6.825   4.358  15.112  0.00  0.00    +0.000 C 
BRANCH  13  14
ATOM     14  C   UNL     1       6.981   4.585  13.603  0.00  0.00    +0.000 C 
ATOM     15  O   UNL     1       7.747   5.439  13.154  0.00  0.00    +0.000 OA
BRANCH  14  16
ATOM     16  C   UNL     1       6.164   3.765  12.723  0.00  0.00    +0.000 A 
ATOM     17  C   UNL     1       4.884   3.947  12.225  0.00  0.00    +0.000 A 
ATOM     18  C   UNL     1       4.563   2.829  11.415  0.00  0.00    +0.000 A 
ATOM     19  C   UNL     1       5.652   1.990  11.431  0.00  0.00    +0.000 A 
ATOM     20  N   UNL     1       6.617   2.566  12.213  0.00  0.00    +0.000 N 
ATOM     21  H   UNL     1       7.533   2.180  12.410  0.00  0.00    +0.000 HD
ENDBRANCH  14  16
ENDBRANCH  13  14
ENDBRANCH  12  13
ENDBRANCH   2  12
TORSDOF 7
ENDMDL
MODEL 9
REMARK VINA RESULT:      -6.2      3.627      6.309
REMARK  Name = 
REMARK  7 active torsions:
REMARK  status: ('A' for Active; 'I' for Inactive)
REMARK    1  A    between atoms: C_2  and  C_3
REMARK    2  A    between atoms: C_2  and  O_12
REMARK    3  A    between atoms: C_3  and  O_4
REMARK    4  A    between atoms: O_4  and  C_5
REMARK    5  A    between atoms: O_12  and  C_13
REMARK    6  A    between atoms: C_13  and  C_14
REMARK    7  A    between atoms: C_14  and  C_16
REMARK                            x       y       z     vdW  Elec       q    Type
REMARK                         _______ _______ _______ _____ _____    ______ ____
ROOT
ATOM      1  O   UNL     1       5.021   2.075  20.087  0.00  0.00    +0.000 OA
ATOM      2  C   UNL     1       4.439   3.038  19.602  0.00  0.00    +0.000 C 
ENDROOT
BRANCH   2   3
ATOM      3  C   UNL     1       3.243   3.730  20.235  0.00  0.00    +0.000 C 
BRANCH   3   4
ATOM      4  O   UNL     1       2.401   4.294  19.237  0.00  0.00    +0.000 OA
BRANCH   4   5
ATOM      5  C   UNL     1       2.185   5.644  19.308  0.00  0.00    +0.000 A 
ATOM      6  C   UNL     1       1.756   6.346  20.438  0.00  0.00    +0.000 A 
ATOM      7  C   UNL     1       1.579   7.734  20.382  0.00  0.00    +0.000 A 
ATOM      8  C   UNL     1       1.835   8.422  19.198  0.00  0.00    +0.000 A 
ATOM      9 CL   UNL     1       1.627  10.129  19.139  0.00  0.00    +0.000 Cl
ATOM     10  C   UNL     1       2.258   7.732  18.065  0.00  0.00    +0.000 A 
ATOM     11  C   UNL     1       2.431   6.346  18.123  0.00  0.00    +0.000 A 
ENDBRANCH   4   5
ENDBRANCH   3   4
ENDBRANCH   2   3
BRANCH   2  12
ATOM     12  O   UNL     1       4.778   3.637  18.425  0.00  0.00    +0.000 OA
BRANCH  12  13
ATOM     13  C   UNL     1       5.739   4.690  18.551  0.00  0.00    +0.000 C 
BRANCH  13  14
ATOM     14  C   UNL     1       6.976   4.498  17.664  0.00  0.00    +0.000 C 
ATOM     15  O   UNL     1       8.106   4.395  18.145  0.00  0.00    +0.000 OA
BRANCH  14  16
ATOM     16  C   UNL     1       6.761   4.470  16.226  0.00  0.00    +0.000 A 
ATOM     17  C   UNL     1       5.843   3.783  15.449  0.00  0.00    +0.000 A 
ATOM     18  C   UNL     1       6.083   4.112  14.090  0.00  0.00    +0.000 A 
ATOM     19  C   UNL     1       7.137   4.994  14.066  0.00  0.00    +0.000 A 
ATOM     20  N   UNL     1       7.534   5.213  15.357  0.00  0.00    +0.000 N 
ATOM     21  H   UNL     1       8.289   5.821  15.654  0.00  0.00    +0.000 HD
ENDBRANCH  14  16
ENDBRANCH  13  14
ENDBRANCH  12  13
ENDBRANCH   2  12
TORSDOF 7
ENDMDL
