MODEL 1
REMARK VINA RESULT:      -6.9      0.000      0.000
REMARK  Name = 
REMARK  4 active torsions:
REMARK  status: ('A' for Active; 'I' for Inactive)
REMARK    1  A    between atoms: C_2  and  C_14
REMARK    2  A    between atoms: N_3  and  O_4
REMARK    3  A    between atoms: O_4  and  C_5
REMARK    4  A    between atoms: C_5  and  C_7
REMARK                            x       y       z     vdW  Elec       q    Type
REMARK                         _______ _______ _______ _____ _____    ______ ____
ROOT
ATOM      1  N   UNL     1       3.861   6.696  17.938  0.00  0.00    +0.000 NA
ATOM      2  C   UNL     1       3.806   5.406  17.792  0.00  0.00    +0.000 C 
ATOM      3  N   UNL     1       4.697   4.727  16.989  0.00  0.00    +0.000 N 
ATOM      4  H   UNL     1       4.640   7.027  17.358  0.00  0.00    +0.000 HD
ATOM      5  H   UNL     1       4.323   3.965  16.415  0.00  0.00    +0.000 HD
ENDROOT
BRANCH   2   6
ATOM      6  C   UNL     1       2.762   4.644  18.554  0.00  0.00    +0.000 A 
ATOM      7  C   UNL     1       2.040   3.637  17.910  0.00  0.00    +0.000 A 
ATOM      8  C   UNL     1       1.047   2.984  18.618  0.00  0.00    +0.000 A 
ATOM      9  N   UNL     1       0.736   3.264  19.902  0.00  0.00    +0.000 NA
ATOM     10  C   UNL     1       1.446   4.243  20.501  0.00  0.00    +0.000 A 
ATOM     11  C   UNL     1       2.457   4.955  19.880  0.00  0.00    +0.000 A 
ENDBRANCH   2   6
BRANCH   3  12
ATOM     12  O   UNL     1       5.582   5.557  16.273  0.00  0.00    +0.000 OA
BRANCH  12  13
ATOM     13  C   UNL     1       6.746   4.907  15.979  0.00  0.00    +0.000 C 
ATOM     14  O   UNL     1       7.528   4.483  16.817  0.00  0.00    +0.000 OA
BRANCH  13  15
ATOM     15  C   UNL     1       6.936   4.765  14.511  0.00  0.00    +0.000 A 
ATOM     16  C   UNL     1       7.822   5.574  13.783  0.00  0.00    +0.000 A 
ATOM     17  C   UNL     1       7.964   5.397  12.404  0.00  0.00    +0.000 A 
ATOM     18  C   UNL     1       7.227   4.414  11.747  0.00  0.00    +0.000 A 
ATOM     19  C   UNL     1       6.349   3.607  12.468  0.00  0.00    +0.000 A 
ATOM     20 BR   UNL     1       5.354   2.273  11.572  0.00  0.00    +0.000 Br
ATOM     21  C   UNL     1       6.201   3.775  13.845  0.00  0.00    +0.000 A 
ENDBRANCH  13  15
ENDBRANCH  12  13
ENDBRANCH   3  12
TORSDOF 4
ENDMDL
MODEL 2
REMARK VINA RESULT:      -6.9      1.136      1.332
REMARK  Name = 
REMARK  4 active torsions:
REMARK  status: ('A' for Active; 'I' for Inactive)
REMARK    1  A    between atoms: C_2  and  C_14
REMARK    2  A    between atoms: N_3  and  O_4
REMARK    3  A    between atoms: O_4  and  C_5
REMARK    4  A    between atoms: C_5  and  C_7
REMARK                            x       y       z     vdW  Elec       q    Type
REMARK                         _______ _______ _______ _____ _____    ______ ____
ROOT
ATOM      1  N   UNL     1       5.517   3.403  19.066  0.00  0.00    +0.000 NA
ATOM      2  C   UNL     1       4.436   3.676  18.397  0.00  0.00    +0.000 C 
ATOM      3  N   UNL     1       4.448   3.820  17.026  0.00  0.00    +0.000 N 
ATOM      4  H   UNL     1       6.281   3.345  18.384  0.00  0.00    +0.000 HD
ATOM      5  H   UNL     1       3.876   4.572  16.631  0.00  0.00    +0.000 HD
ENDROOT
BRANCH   2   6
ATOM      6  C   UNL     1       3.142   3.796  19.146  0.00  0.00    +0.000 A 
ATOM      7  C   UNL     1       2.076   2.956  18.816  0.00  0.00    +0.000 A 
ATOM      8  C   UNL     1       0.877   3.120  19.485  0.00  0.00    +0.000 A 
ATOM      9  N   UNL     1       0.677   4.050  20.445  0.00  0.00    +0.000 NA
ATOM     10  C   UNL     1       1.720   4.851  20.743  0.00  0.00    +0.000 A 
ATOM     11  C   UNL     1       2.959   4.767  20.132  0.00  0.00    +0.000 A 
ENDBRANCH   2   6
BRANCH   3  12
ATOM     12  O   UNL     1       5.730   3.755  16.446  0.00  0.00    +0.000 OA
BRANCH  12  13
ATOM     13  C   UNL     1       6.070   4.938  15.856  0.00  0.00    +0.000 C 
ATOM     14  O   UNL     1       6.015   6.025  16.411  0.00  0.00    +0.000 OA
BRANCH  13  15
ATOM     15  C   UNL     1       6.531   4.736  14.456  0.00  0.00    +0.000 A 
ATOM     16  C   UNL     1       7.521   5.537  13.866  0.00  0.00    +0.000 A 
ATOM     17  C   UNL     1       7.919   5.302  12.547  0.00  0.00    +0.000 A 
ATOM     18  C   UNL     1       7.336   4.272  11.813  0.00  0.00    +0.000 A 
ATOM     19  C   UNL     1       6.355   3.473  12.399  0.00  0.00    +0.000 A 
ATOM     20 BR   UNL     1       5.570   2.074  11.401  0.00  0.00    +0.000 Br
ATOM     21  C   UNL     1       5.952   3.698  13.716  0.00  0.00    +0.000 A 
ENDBRANCH  13  15
ENDBRANCH  12  13
ENDBRANCH   3  12
TORSDOF 4
ENDMDL
MODEL 3
REMARK VINA RESULT:      -6.8      1.248      1.796
REMARK  Name = 
REMARK  4 active torsions:
REMARK  status: ('A' for Active; 'I' for Inactive)
REMARK    1  A    between atoms: C_2  and  C_14
REMARK    2  A    between atoms: N_3  and  O_4
REMARK    3  A    between atoms: O_4  and  C_5
REMARK    4  A    between atoms: C_5  and  C_7
REMARK                            x       y       z     vdW  Elec       q    Type
REMARK                         _______ _______ _______ _____ _____    ______ ____
ROOT
ATOM      1  N   UNL     1       5.464   3.386  19.140  0.00  0.00    +0.000 NA
ATOM      2  C   UNL     1       4.375   3.512  18.443  0.00  0.00    +0.000 C 
ATOM      3  N   UNL     1       4.406   3.765  17.089  0.00  0.00    +0.000 N 
ATOM      4  H   UNL     1       6.248   3.522  18.493  0.00  0.00    +0.000 HD
ATOM      5  H   UNL     1       3.718   4.431  16.723  0.00  0.00    +0.000 HD
ENDROOT
BRANCH   2   6
ATOM      6  C   UNL     1       3.057   3.335  19.137  0.00  0.00    +0.000 A 
ATOM      7  C   UNL     1       2.993   3.443  20.528  0.00  0.00    +0.000 A 
ATOM      8  C   UNL     1       1.777   3.225  21.150  0.00  0.00    +0.000 A 
ATOM      9  N   UNL     1       0.643   2.914  20.487  0.00  0.00    +0.000 NA
ATOM     10  C   UNL     1       0.730   2.812  19.144  0.00  0.00    +0.000 A 
ATOM     11  C   UNL     1       1.899   3.011  18.429  0.00  0.00    +0.000 A 
ENDBRANCH   2   6
BRANCH   3  12
ATOM     12  O   UNL     1       5.696   3.980  16.567  0.00  0.00    +0.000 OA
BRANCH  12  13
ATOM     13  C   UNL     1       5.736   5.098  15.784  0.00  0.00    +0.000 C 
ATOM     14  O   UNL     1       5.351   6.202  16.138  0.00  0.00    +0.000 OA
BRANCH  13  15
ATOM     15  C   UNL     1       6.324   4.807  14.448  0.00  0.00    +0.000 A 
ATOM     16  C   UNL     1       7.433   5.503  13.945  0.00  0.00    +0.000 A 
ATOM     17  C   UNL     1       7.947   5.188  12.684  0.00  0.00    +0.000 A 
ATOM     18  C   UNL     1       7.361   4.179  11.922  0.00  0.00    +0.000 A 
ATOM     19  C   UNL     1       6.262   3.483  12.423  0.00  0.00    +0.000 A 
ATOM     20 BR   UNL     1       5.472   2.113  11.388  0.00  0.00    +0.000 Br
ATOM     21  C   UNL     1       5.742   3.789  13.681  0.00  0.00    +0.000 A 
ENDBRANCH  13  15
ENDBRANCH  12  13
ENDBRANCH   3  12
TORSDOF 4
ENDMDL
MODEL 4
REMARK VINA RESULT:      -6.8      2.669      7.149
REMARK  Name = 
REMARK  4 active torsions:
REMARK  status: ('A' for Active; 'I' for Inactive)
REMARK    1  A    between atoms: C_2  and  C_14
REMARK    2  A    between atoms: N_3  and  O_4
REMARK    3  A    between atoms: O_4  and  C_5
REMARK    4  A    between atoms: C_5  and  C_7
REMARK                            x       y       z     vdW  Elec       q    Type
REMARK                         _______ _______ _______ _____ _____    ______ ____
ROOT
ATOM      1  N   UNL     1       5.410   3.403  16.468  0.00  0.00    +0.000 NA
ATOM      2  C   UNL     1       5.779   4.482  15.844  0.00  0.00    +0.000 C 
ATOM      3  N   UNL     1       5.740   5.719  16.450  0.00  0.00    +0.000 N 
ATOM      4  H   UNL     1       5.109   3.690  17.405  0.00  0.00    +0.000 HD
ATOM      5  H   UNL     1       5.418   6.508  15.881  0.00  0.00    +0.000 HD
ENDROOT
BRANCH   2   6
ATOM      6  C   UNL     1       6.296   4.357  14.442  0.00  0.00    +0.000 A 
ATOM      7  C   UNL     1       7.353   5.170  14.024  0.00  0.00    +0.000 A 
ATOM      8  C   UNL     1       7.778   5.072  12.711  0.00  0.00    +0.000 A 
ATOM      9  N   UNL     1       7.229   4.233  11.807  0.00  0.00    +0.000 NA
ATOM     10  C   UNL     1       6.208   3.461  12.234  0.00  0.00    +0.000 A 
ATOM     11  C   UNL     1       5.709   3.483  13.525  0.00  0.00    +0.000 A 
ENDBRANCH   2   6
BRANCH   3  12
ATOM     12  O   UNL     1       5.170   5.717  17.739  0.00  0.00    +0.000 OA
BRANCH  12  13
ATOM     13  C   UNL     1       4.013   6.441  17.773  0.00  0.00    +0.000 C 
ATOM     14  O   UNL     1       3.818   7.458  17.124  0.00  0.00    +0.000 OA
BRANCH  13  15
ATOM     15  C   UNL     1       3.013   5.829  18.688  0.00  0.00    +0.000 A 
ATOM     16  C   UNL     1       2.559   6.474  19.849  0.00  0.00    +0.000 A 
ATOM     17  C   UNL     1       1.616   5.853  20.673  0.00  0.00    +0.000 A 
ATOM     18  C   UNL     1       1.122   4.593  20.345  0.00  0.00    +0.000 A 
ATOM     19  C   UNL     1       1.569   3.953  19.190  0.00  0.00    +0.000 A 
ATOM     20 BR   UNL     1       0.893   2.244  18.746  0.00  0.00    +0.000 Br
ATOM     21  C   UNL     1       2.509   4.563  18.359  0.00  0.00    +0.000 A 
ENDBRANCH  13  15
ENDBRANCH  12  13
ENDBRANCH   3  12
TORSDOF 4
ENDMDL
MODEL 5
REMARK VINA RESULT:      -6.8      3.100      4.693
REMARK  Name = 
REMARK  4 active torsions:
REMARK  status: ('A' for Active; 'I' for Inactive)
REMARK    1  A    between atoms: C_2  and  C_14
REMARK    2  A    between atoms: N_3  and  O_4
REMARK    3  A    between atoms: O_4  and  C_5
REMARK    4  A    between atoms: C_5  and  C_7
REMARK                            x       y       z     vdW  Elec       q    Type
REMARK                         _______ _______ _______ _____ _____    ______ ____
ROOT
ATOM      1  N   UNL     1       2.511   5.751  20.868  0.00  0.00    +0.000 NA
ATOM      2  C   UNL     1       2.282   6.083  19.632  0.00  0.00    +0.000 C 
ATOM      3  N   UNL     1       2.254   5.145  18.623  0.00  0.00    +0.000 N 
ATOM      4  H   UNL     1       2.657   4.736  20.880  0.00  0.00    +0.000 HD
ATOM      5  H   UNL     1       2.688   5.405  17.732  0.00  0.00    +0.000 HD
ENDROOT
BRANCH   2   6
ATOM      6  C   UNL     1       2.006   7.523  19.318  0.00  0.00    +0.000 A 
ATOM      7  C   UNL     1       1.364   8.322  20.267  0.00  0.00    +0.000 A 
ATOM      8  C   UNL     1       1.073   9.633  19.935  0.00  0.00    +0.000 A 
ATOM      9  N   UNL     1       1.377  10.187  18.742  0.00  0.00    +0.000 NA
ATOM     10  C   UNL     1       1.994   9.395  17.841  0.00  0.00    +0.000 A 
ATOM     11  C   UNL     1       2.327   8.072  18.076  0.00  0.00    +0.000 A 
ENDBRANCH   2   6
BRANCH   3  12
ATOM     12  O   UNL     1       2.598   3.841  19.030  0.00  0.00    +0.000 OA
BRANCH  12  13
ATOM     13  C   UNL     1       3.207   3.149  18.023  0.00  0.00    +0.000 C 
ATOM     14  O   UNL     1       2.726   2.170  17.472  0.00  0.00    +0.000 OA
BRANCH  13  15
ATOM     15  C   UNL     1       4.522   3.747  17.669  0.00  0.00    +0.000 A 
ATOM     16  C   UNL     1       5.411   4.240  18.636  0.00  0.00    +0.000 A 
ATOM     17  C   UNL     1       6.636   4.790  18.249  0.00  0.00    +0.000 A 
ATOM     18  C   UNL     1       6.980   4.850  16.900  0.00  0.00    +0.000 A 
ATOM     19  C   UNL     1       6.099   4.358  15.938  0.00  0.00    +0.000 A 
ATOM     20 BR   UNL     1       6.572   4.438  14.110  0.00  0.00    +0.000 Br
ATOM     21  C   UNL     1       4.875   3.805  16.314  0.00  0.00    +0.000 A 
ENDBRANCH  13  15
ENDBRANCH  12  13
ENDBRANCH   3  12
TORSDOF 4
ENDMDL
MODEL 6
REMARK VINA RESULT:      -6.8      3.383      4.712
REMARK  Name = 
REMARK  4 active torsions:
REMARK  status: ('A' for Active; 'I' for Inactive)
REMARK    1  A    between atoms: C_2  and  C_14
REMARK    2  A    between atoms: N_3  and  O_4
REMARK    3  A    between atoms: O_4  and  C_5
REMARK    4  A    between atoms: C_5  and  C_7
REMARK                            x       y       z     vdW  Elec       q    Type
REMARK                         _______ _______ _______ _____ _____    ______ ____
ROOT
ATOM      1  N   UNL     1       2.511   5.248  20.923  0.00  0.00    +0.000 NA
ATOM      2  C   UNL     1       2.430   5.704  19.708  0.00  0.00    +0.000 C 
ATOM      3  N   UNL     1       2.624   4.890  18.613  0.00  0.00    +0.000 N 
ATOM      4  H   UNL     1       2.742   4.251  20.850  0.00  0.00    +0.000 HD
ATOM      5  H   UNL     1       3.155   5.281  17.829  0.00  0.00    +0.000 HD
ENDROOT
BRANCH   2   6
ATOM      6  C   UNL     1       2.076   7.148  19.508  0.00  0.00    +0.000 A 
ATOM      7  C   UNL     1       1.453   7.851  20.542  0.00  0.00    +0.000 A 
ATOM      8  C   UNL     1       1.089   9.166  20.316  0.00  0.00    +0.000 A 
ATOM      9  N   UNL     1       1.305   9.813  19.149  0.00  0.00    +0.000 NA
ATOM     10  C   UNL     1       1.905   9.111  18.166  0.00  0.00    +0.000 A 
ATOM     11  C   UNL     1       2.306   7.792  18.292  0.00  0.00    +0.000 A 
ENDBRANCH   2   6
BRANCH   3  12
ATOM     12  O   UNL     1       3.020   3.575  18.929  0.00  0.00    +0.000 OA
BRANCH  12  13
ATOM     13  C   UNL     1       4.379   3.465  18.991  0.00  0.00    +0.000 C 
ATOM     14  O   UNL     1       4.982   2.846  19.855  0.00  0.00    +0.000 OA
BRANCH  13  15
ATOM     15  C   UNL     1       5.035   4.181  17.864  0.00  0.00    +0.000 A 
ATOM     16  C   UNL     1       4.868   3.793  16.526  0.00  0.00    +0.000 A 
ATOM     17  C   UNL     1       5.507   4.503  15.504  0.00  0.00    +0.000 A 
ATOM     18  C   UNL     1       6.310   5.599  15.811  0.00  0.00    +0.000 A 
ATOM     19  C   UNL     1       6.474   5.987  17.140  0.00  0.00    +0.000 A 
ATOM     20 BR   UNL     1       7.562   7.477  17.551  0.00  0.00    +0.000 Br
ATOM     21  C   UNL     1       5.840   5.287  18.167  0.00  0.00    +0.000 A 
ENDBRANCH  13  15
ENDBRANCH  12  13
ENDBRANCH   3  12
TORSDOF 4
ENDMDL
MODEL 7
REMARK VINA RESULT:      -6.7      5.108      7.736
REMARK  Name = 
REMARK  4 active torsions:
REMARK  status: ('A' for Active; 'I' for Inactive)
REMARK    1  A    between atoms: C_2  and  C_14
REMARK    2  A    between atoms: N_3  and  O_4
REMARK    3  A    between atoms: O_4  and  C_5
REMARK    4  A    between atoms: C_5  and  C_7
REMARK                            x       y       z     vdW  Elec       q    Type
REMARK                         _______ _______ _______ _____ _____    ______ ____
ROOT
ATOM      1  N   UNL     1       8.507   7.347  18.960  0.00  0.00    +0.000 NA
ATOM      2  C   UNL     1       8.119   8.302  18.168  0.00  0.00    +0.000 C 
ATOM      3  N   UNL     1       7.260   8.068  17.117  0.00  0.00    +0.000 N 
ATOM      4  H   UNL     1       8.067   6.484  18.623  0.00  0.00    +0.000 HD
ATOM      5  H   UNL     1       7.455   8.557  16.238  0.00  0.00    +0.000 HD
ENDROOT
BRANCH   2   6
ATOM      6  C   UNL     1       8.597   9.697  18.443  0.00  0.00    +0.000 A 
ATOM      7  C   UNL     1       8.278  10.721  17.548  0.00  0.00    +0.000 A 
ATOM      8  C   UNL     1       8.773  11.988  17.795  0.00  0.00    +0.000 A 
ATOM      9  N   UNL     1       9.549  12.295  18.858  0.00  0.00    +0.000 NA
ATOM     10  C   UNL     1       9.845  11.288  19.706  0.00  0.00    +0.000 A 
ATOM     11  C   UNL     1       9.400   9.987  19.547  0.00  0.00    +0.000 A 
ENDBRANCH   2   6
BRANCH   3  12
ATOM     12  O   UNL     1       6.939   6.710  16.919  0.00  0.00    +0.000 OA
BRANCH  12  13
ATOM     13  C   UNL     1       5.703   6.568  16.358  0.00  0.00    +0.000 C 
ATOM     14  O   UNL     1       5.503   6.404  15.164  0.00  0.00    +0.000 OA
BRANCH  13  15
ATOM     15  C   UNL     1       4.629   6.621  17.387  0.00  0.00    +0.000 A 
ATOM     16  C   UNL     1       4.524   5.673  18.416  0.00  0.00    +0.000 A 
ATOM     17  C   UNL     1       3.497   5.772  19.358  0.00  0.00    +0.000 A 
ATOM     18  C   UNL     1       2.573   6.811  19.280  0.00  0.00    +0.000 A 
ATOM     19  C   UNL     1       2.677   7.755  18.259  0.00  0.00    +0.000 A 
ATOM     20 BR   UNL     1       1.424   9.166  18.159  0.00  0.00    +0.000 Br
ATOM     21  C   UNL     1       3.700   7.668  17.315  0.00  0.00    +0.000 A 
ENDBRANCH  13  15
ENDBRANCH  12  13
ENDBRANCH   3  12
TORSDOF 4
ENDMDL
MODEL 8
REMARK VINA RESULT:      -6.7      0.544      1.119
REMARK  Name = 
REMARK  4 active torsions:
REMARK  status: ('A' for Active; 'I' for Inactive)
REMARK    1  A    between atoms: C_2  and  C_14
REMARK    2  A    between atoms: N_3  and  O_4
REMARK    3  A    between atoms: O_4  and  C_5
REMARK    4  A    between atoms: C_5  and  C_7
REMARK                            x       y       z     vdW  Elec       q    Type
REMARK                         _______ _______ _______ _____ _____    ______ ____
ROOT
ATOM      1  N   UNL     1       3.462   6.331  17.791  0.00  0.00    +0.000 NA
ATOM      2  C   UNL     1       3.661   5.047  17.835  0.00  0.00    +0.000 C 
ATOM      3  N   UNL     1       4.694   4.449  17.148  0.00  0.00    +0.000 N 
ATOM      4  H   UNL     1       4.184   6.721  17.175  0.00  0.00    +0.000 HD
ATOM      5  H   UNL     1       4.494   3.554  16.689  0.00  0.00    +0.000 HD
ENDROOT
BRANCH   2   6
ATOM      6  C   UNL     1       2.756   4.213  18.692  0.00  0.00    +0.000 A 
ATOM      7  C   UNL     1       3.097   3.979  20.027  0.00  0.00    +0.000 A 
ATOM      8  C   UNL     1       2.274   3.164  20.783  0.00  0.00    +0.000 A 
ATOM      9  N   UNL     1       1.154   2.581  20.304  0.00  0.00    +0.000 NA
ATOM     10  C   UNL     1       0.847   2.819  19.012  0.00  0.00    +0.000 A 
ATOM     11  C   UNL     1       1.605   3.618  18.173  0.00  0.00    +0.000 A 
ENDBRANCH   2   6
BRANCH   3  12
ATOM     12  O   UNL     1       5.429   5.324  16.324  0.00  0.00    +0.000 OA
BRANCH  12  13
ATOM     13  C   UNL     1       6.660   4.814  16.029  0.00  0.00    +0.000 C 
ATOM     14  O   UNL     1       7.478   4.460  16.865  0.00  0.00    +0.000 OA
BRANCH  13  15
ATOM     15  C   UNL     1       6.876   4.728  14.559  0.00  0.00    +0.000 A 
ATOM     16  C   UNL     1       7.834   5.506  13.891  0.00  0.00    +0.000 A 
ATOM     17  C   UNL     1       7.997   5.384  12.509  0.00  0.00    +0.000 A 
ATOM     18  C   UNL     1       7.210   4.487  11.788  0.00  0.00    +0.000 A 
ATOM     19  C   UNL     1       6.261   3.711  12.451  0.00  0.00    +0.000 A 
ATOM     20 BR   UNL     1       5.199   2.493  11.471  0.00  0.00    +0.000 Br
ATOM     21  C   UNL     1       6.091   3.824  13.831  0.00  0.00    +0.000 A 
ENDBRANCH  13  15
ENDBRANCH  12  13
ENDBRANCH   3  12
TORSDOF 4
ENDMDL
MODEL 9
REMARK VINA RESULT:      -6.7      3.073      7.078
REMARK  Name = 
REMARK  4 active torsions:
REMARK  status: ('A' for Active; 'I' for Inactive)
REMARK    1  A    between atoms: C_2  and  C_14
REMARK    2  A    between atoms: N_3  and  O_4
REMARK    3  A    between atoms: O_4  and  C_5
REMARK    4  A    between atoms: C_5  and  C_7
REMARK                            x       y       z     vdW  Elec       q    Type
REMARK                         _______ _______ _______ _____ _____    ______ ____
ROOT
ATOM      1  N   UNL     1       5.528   3.386  16.564  0.00  0.00    +0.000 NA
ATOM      2  C   UNL     1       5.797   4.509  15.968  0.00  0.00    +0.000 C 
ATOM      3  N   UNL     1       5.692   5.720  16.618  0.00  0.00    +0.000 N 
ATOM      4  H   UNL     1       5.242   3.620  17.521  0.00  0.00    +0.000 HD
ATOM      5  H   UNL     1       5.296   6.502  16.088  0.00  0.00    +0.000 HD
ENDROOT
BRANCH   2   6
ATOM      6  C   UNL     1       6.271   4.468  14.545  0.00  0.00    +0.000 A 
ATOM      7  C   UNL     1       5.624   3.634  13.630  0.00  0.00    +0.000 A 
ATOM      8  C   UNL     1       6.112   3.574  12.337  0.00  0.00    +0.000 A 
ATOM      9  N   UNL     1       7.180   4.278  11.906  0.00  0.00    +0.000 NA
ATOM     10  C   UNL     1       7.790   5.073  12.809  0.00  0.00    +0.000 A 
ATOM     11  C   UNL     1       7.381   5.203  14.125  0.00  0.00    +0.000 A 
ENDBRANCH   2   6
BRANCH   3  12
ATOM     12  O   UNL     1       5.171   5.635  17.924  0.00  0.00    +0.000 OA
BRANCH  12  13
ATOM     13  C   UNL     1       3.898   6.123  17.984  0.00  0.00    +0.000 C 
ATOM     14  O   UNL     1       3.591   7.278  17.728  0.00  0.00    +0.000 OA
BRANCH  13  15
ATOM     15  C   UNL     1       2.928   5.069  18.386  0.00  0.00    +0.000 A 
ATOM     16  C   UNL     1       2.000   4.518  17.490  0.00  0.00    +0.000 A 
ATOM     17  C   UNL     1       1.112   3.528  17.919  0.00  0.00    +0.000 A 
ATOM     18  C   UNL     1       1.146   3.083  19.239  0.00  0.00    +0.000 A 
ATOM     19  C   UNL     1       2.070   3.627  20.130  0.00  0.00    +0.000 A 
ATOM     20 BR   UNL     1       2.115   3.017  21.918  0.00  0.00    +0.000 Br
ATOM     21  C   UNL     1       2.962   4.614  19.711  0.00  0.00    +0.000 A 
ENDBRANCH  13  15
ENDBRANCH  12  13
ENDBRANCH   3  12
TORSDOF 4
ENDMDL
