MODEL 1
REMARK VINA RESULT:      -8.5      0.000      0.000
REMARK  Name = 
REMARK  8 active torsions:
REMARK  status: ('A' for Active; 'I' for Inactive)
REMARK    1  A    between atoms: C_2  and  OXT_3
REMARK    2  A    between atoms: C_2  and  CA_4
REMARK    3  A    between atoms: CA_4  and  C_5
REMARK    4  A    between atoms: CA_4  and  N_15
REMARK    5  A    between atoms: C_5  and  C_6
REMARK    6  A    between atoms: C_16  and  C_18
REMARK    7  A    between atoms: N_23  and  C_24
REMARK    8  A    between atoms: C_24  and  C_25
REMARK                            x       y       z     vdW  Elec       q    Type
REMARK                         _______ _______ _______ _____ _____    ______ ____
ROOT
ATOM      1  N   UNL     1       4.970   4.375  19.249  0.00  0.00    +0.000 N 
ATOM      2  C   UNL     1       5.557   4.114  18.015  0.00  0.00    +0.000 C 
ATOM      3  O   UNL     1       5.068   3.328  17.210  0.00  0.00    +0.000 OA
ATOM      4  H   UNL     1       5.567   4.783  19.963  0.00  0.00    +0.000 HD
ENDROOT
BRANCH   2   5
ATOM      5  C   UNL     1       6.845   4.885  17.701  0.00  0.00    +0.000 C 
ATOM      6  C   UNL     1       7.538   5.437  18.944  0.00  0.00    +0.000 C 
ATOM      7  C   UNL     1       8.120   6.768  18.488  0.00  0.00    +0.000 C 
ATOM      8  C   UNL     1       7.178   7.193  17.391  0.00  0.00    +0.000 C 
ATOM      9  O   UNL     1       7.057   8.333  16.964  0.00  0.00    +0.000 OA
ATOM     10  N   UNL     1       6.515   6.071  16.935  0.00  0.00    +0.000 N 
BRANCH  10  11
ATOM     11  C   UNL     1       5.663   6.030  15.750  0.00  0.00    +0.000 C 
BRANCH  11  12
ATOM     12  C   UNL     1       6.205   5.235  14.590  0.00  0.00    +0.000 A 
ATOM     13  C   UNL     1       5.446   4.212  14.007  0.00  0.00    +0.000 A 
ATOM     14  C   UNL     1       5.881   3.571  12.842  0.00  0.00    +0.000 A 
ATOM     15  C   UNL     1       7.093   3.938  12.259  0.00  0.00    +0.000 A 
ATOM     16  C   UNL     1       7.869   4.935  12.841  0.00  0.00    +0.000 A 
ATOM     17  C   UNL     1       7.431   5.580  14.000  0.00  0.00    +0.000 A 
ENDBRANCH  11  12
ENDBRANCH  10  11
ENDBRANCH   2   5
BRANCH   1  18
ATOM     18  CA  UNL     1       3.805   3.593  19.695  0.00  0.00    +0.000 C 
BRANCH  18  20
ATOM     19  O   UNL     1       3.181   1.341  18.951  0.00  0.00    +0.000 OA
ATOM     20  C   UNL     1       3.996   2.079  19.480  0.00  0.00    +0.000 C 
BRANCH  20  21
ATOM     21  OXT UNL     1       5.122   1.592  20.057  0.00  0.00    +0.000 OA
ATOM     22  HXT UNL     1       4.938   0.946  20.768  0.00  0.00    +0.000 HD
ENDBRANCH  20  21
ENDBRANCH  18  20
BRANCH  18  23
ATOM     23  C   UNL     1       2.465   4.083  19.114  0.00  0.00    +0.000 C 
BRANCH  23  24
ATOM     24  C   UNL     1       2.214   5.571  19.222  0.00  0.00    +0.000 A 
ATOM     25  C   UNL     1       1.803   6.124  20.453  0.00  0.00    +0.000 A 
ATOM     26  C   UNL     1       1.603   7.501  20.592  0.00  0.00    +0.000 A 
ATOM     27  C   UNL     1       1.796   8.293  19.483  0.00  0.00    +0.000 A 
ATOM     28  C   UNL     1       2.179   7.763  18.275  0.00  0.00    +0.000 A 
ATOM     29  C   UNL     1       2.414   6.414  18.117  0.00  0.00    +0.000 A 
ATOM     30  O   UNL     1       2.294   8.710  17.306  0.00  0.00    +0.000 OA
ATOM     31  C   UNL     1       1.890   9.889  18.034  0.00  0.00    +0.000 C 
ATOM     32  O   UNL     1       1.641   9.642  19.433  0.00  0.00    +0.000 OA
ENDBRANCH  23  24
ENDBRANCH  18  23
ENDBRANCH   1  18
TORSDOF 8
ENDMDL
MODEL 2
REMARK VINA RESULT:      -8.5      2.164      6.907
REMARK  Name = 
REMARK  8 active torsions:
REMARK  status: ('A' for Active; 'I' for Inactive)
REMARK    1  A    between atoms: C_2  and  OXT_3
REMARK    2  A    between atoms: C_2  and  CA_4
REMARK    3  A    between atoms: CA_4  and  C_5
REMARK    4  A    between atoms: CA_4  and  N_15
REMARK    5  A    between atoms: C_5  and  C_6
REMARK    6  A    between atoms: C_16  and  C_18
REMARK    7  A    between atoms: N_23  and  C_24
REMARK    8  A    between atoms: C_24  and  C_25
REMARK                            x       y       z     vdW  Elec       q    Type
REMARK                         _______ _______ _______ _____ _____    ______ ____
ROOT
ATOM      1  N   UNL     1       5.420   5.224  18.878  0.00  0.00    +0.000 N 
ATOM      2  C   UNL     1       4.839   4.039  19.317  0.00  0.00    +0.000 C 
ATOM      3  O   UNL     1       5.488   3.011  19.480  0.00  0.00    +0.000 OA
ATOM      4  H   UNL     1       4.796   5.922  18.484  0.00  0.00    +0.000 HD
ENDROOT
BRANCH   2   5
ATOM      5  C   UNL     1       3.335   4.091  19.614  0.00  0.00    +0.000 C 
ATOM      6  C   UNL     1       2.681   2.713  19.665  0.00  0.00    +0.000 C 
ATOM      7  C   UNL     1       1.295   2.936  19.074  0.00  0.00    +0.000 C 
ATOM      8  C   UNL     1       1.508   4.092  18.131  0.00  0.00    +0.000 C 
ATOM      9  O   UNL     1       0.767   4.401  17.209  0.00  0.00    +0.000 OA
ATOM     10  N   UNL     1       2.656   4.756  18.519  0.00  0.00    +0.000 N 
BRANCH  10  11
ATOM     11  C   UNL     1       3.099   6.039  17.982  0.00  0.00    +0.000 C 
BRANCH  11  12
ATOM     12  C   UNL     1       2.350   7.245  18.490  0.00  0.00    +0.000 A 
ATOM     13  C   UNL     1       2.013   7.359  19.845  0.00  0.00    +0.000 A 
ATOM     14  C   UNL     1       1.450   8.538  20.348  0.00  0.00    +0.000 A 
ATOM     15  C   UNL     1       1.205   9.610  19.491  0.00  0.00    +0.000 A 
ATOM     16  C   UNL     1       1.512   9.501  18.140  0.00  0.00    +0.000 A 
ATOM     17  C   UNL     1       2.080   8.328  17.638  0.00  0.00    +0.000 A 
ENDBRANCH  11  12
ENDBRANCH  10  11
ENDBRANCH   2   5
BRANCH   1  18
ATOM     18  CA  UNL     1       6.827   5.243  18.446  0.00  0.00    +0.000 C 
BRANCH  18  20
ATOM     19  O   UNL     1       7.852   5.247  20.674  0.00  0.00    +0.000 OA
ATOM     20  C   UNL     1       7.777   5.732  19.557  0.00  0.00    +0.000 C 
BRANCH  20  21
ATOM     21  OXT UNL     1       8.455   6.859  19.227  0.00  0.00    +0.000 OA
ATOM     22  HXT UNL     1       7.868   7.627  19.080  0.00  0.00    +0.000 HD
ENDBRANCH  20  21
ENDBRANCH  18  20
BRANCH  18  23
ATOM     23  C   UNL     1       7.064   5.999  17.125  0.00  0.00    +0.000 C 
BRANCH  23  24
ATOM     24  C   UNL     1       6.749   5.224  15.866  0.00  0.00    +0.000 A 
ATOM     25  C   UNL     1       5.701   4.279  15.868  0.00  0.00    +0.000 A 
ATOM     26  C   UNL     1       5.361   3.578  14.708  0.00  0.00    +0.000 A 
ATOM     27  C   UNL     1       6.097   3.822  13.571  0.00  0.00    +0.000 A 
ATOM     28  C   UNL     1       7.130   4.727  13.561  0.00  0.00    +0.000 A 
ATOM     29  C   UNL     1       7.468   5.455  14.681  0.00  0.00    +0.000 A 
ATOM     30  O   UNL     1       7.741   4.804  12.349  0.00  0.00    +0.000 OA
ATOM     31  C   UNL     1       7.003   3.805  11.612  0.00  0.00    +0.000 C 
ATOM     32  O   UNL     1       5.913   3.230  12.362  0.00  0.00    +0.000 OA
ENDBRANCH  23  24
ENDBRANCH  18  23
ENDBRANCH   1  18
TORSDOF 8
ENDMDL
MODEL 3
REMARK VINA RESULT:      -8.4      2.243      6.800
REMARK  Name = 
REMARK  8 active torsions:
REMARK  status: ('A' for Active; 'I' for Inactive)
REMARK    1  A    between atoms: C_2  and  OXT_3
REMARK    2  A    between atoms: C_2  and  CA_4
REMARK    3  A    between atoms: CA_4  and  C_5
REMARK    4  A    between atoms: CA_4  and  N_15
REMARK    5  A    between atoms: C_5  and  C_6
REMARK    6  A    between atoms: C_16  and  C_18
REMARK    7  A    between atoms: N_23  and  C_24
REMARK    8  A    between atoms: C_24  and  C_25
REMARK                            x       y       z     vdW  Elec       q    Type
REMARK                         _______ _______ _______ _____ _____    ______ ____
ROOT
ATOM      1  N   UNL     1       5.227   5.178  19.425  0.00  0.00    +0.000 N 
ATOM      2  C   UNL     1       4.633   3.941  19.650  0.00  0.00    +0.000 C 
ATOM      3  O   UNL     1       5.177   2.887  19.339  0.00  0.00    +0.000 OA
ATOM      4  H   UNL     1       4.613   5.988  19.423  0.00  0.00    +0.000 HD
ENDROOT
BRANCH   2   5
ATOM      5  C   UNL     1       3.261   3.963  20.336  0.00  0.00    +0.000 C 
ATOM      6  C   UNL     1       2.999   2.735  21.203  0.00  0.00    +0.000 C 
ATOM      7  C   UNL     1       1.510   2.467  21.032  0.00  0.00    +0.000 C 
ATOM      8  C   UNL     1       1.223   3.005  19.654  0.00  0.00    +0.000 C 
ATOM      9  O   UNL     1       0.252   2.717  18.970  0.00  0.00    +0.000 OA
ATOM     10  N   UNL     1       2.223   3.900  19.326  0.00  0.00    +0.000 N 
BRANCH  10  11
ATOM     11  C   UNL     1       2.206   4.777  18.159  0.00  0.00    +0.000 C 
BRANCH  11  12
ATOM     12  C   UNL     1       2.053   6.247  18.458  0.00  0.00    +0.000 A 
ATOM     13  C   UNL     1       1.710   6.684  19.743  0.00  0.00    +0.000 A 
ATOM     14  C   UNL     1       1.711   8.047  20.062  0.00  0.00    +0.000 A 
ATOM     15  C   UNL     1       2.039   8.987  19.087  0.00  0.00    +0.000 A 
ATOM     16  C   UNL     1       2.357   8.569  17.800  0.00  0.00    +0.000 A 
ATOM     17  C   UNL     1       2.364   7.208  17.483  0.00  0.00    +0.000 A 
ENDBRANCH  11  12
ENDBRANCH  10  11
ENDBRANCH   2   5
BRANCH   1  18
ATOM     18  CA  UNL     1       6.482   5.269  18.661  0.00  0.00    +0.000 C 
BRANCH  18  20
ATOM     19  O   UNL     1       7.968   5.215  20.610  0.00  0.00    +0.000 OA
ATOM     20  C   UNL     1       7.673   5.709  19.535  0.00  0.00    +0.000 C 
BRANCH  20  21
ATOM     21  OXT UNL     1       8.312   6.806  19.059  0.00  0.00    +0.000 OA
ATOM     22  HXT UNL     1       9.267   6.655  18.910  0.00  0.00    +0.000 HD
ENDBRANCH  20  21
ENDBRANCH  18  20
BRANCH  18  23
ATOM     23  C   UNL     1       6.373   6.122  17.382  0.00  0.00    +0.000 C 
BRANCH  23  24
ATOM     24  C   UNL     1       6.256   5.345  16.090  0.00  0.00    +0.000 A 
ATOM     25  C   UNL     1       5.239   4.377  15.944  0.00  0.00    +0.000 A 
ATOM     26  C   UNL     1       5.082   3.673  14.746  0.00  0.00    +0.000 A 
ATOM     27  C   UNL     1       5.966   3.938  13.725  0.00  0.00    +0.000 A 
ATOM     28  C   UNL     1       6.970   4.865  13.862  0.00  0.00    +0.000 A 
ATOM     29  C   UNL     1       7.130   5.596  15.019  0.00  0.00    +0.000 A 
ATOM     30  O   UNL     1       7.744   4.961  12.748  0.00  0.00    +0.000 OA
ATOM     31  C   UNL     1       7.139   3.949  11.914  0.00  0.00    +0.000 C 
ATOM     32  O   UNL     1       5.967   3.346  12.501  0.00  0.00    +0.000 OA
ENDBRANCH  23  24
ENDBRANCH  18  23
ENDBRANCH   1  18
TORSDOF 8
ENDMDL
MODEL 4
REMARK VINA RESULT:      -8.4      0.633      1.340
REMARK  Name = 
REMARK  8 active torsions:
REMARK  status: ('A' for Active; 'I' for Inactive)
REMARK    1  A    between atoms: C_2  and  OXT_3
REMARK    2  A    between atoms: C_2  and  CA_4
REMARK    3  A    between atoms: CA_4  and  C_5
REMARK    4  A    between atoms: CA_4  and  N_15
REMARK    5  A    between atoms: C_5  and  C_6
REMARK    6  A    between atoms: C_16  and  C_18
REMARK    7  A    between atoms: N_23  and  C_24
REMARK    8  A    between atoms: C_24  and  C_25
REMARK                            x       y       z     vdW  Elec       q    Type
REMARK                         _______ _______ _______ _____ _____    ______ ____
ROOT
ATOM      1  N   UNL     1       4.967   4.350  19.323  0.00  0.00    +0.000 N 
ATOM      2  C   UNL     1       5.476   4.173  18.041  0.00  0.00    +0.000 C 
ATOM      3  O   UNL     1       4.899   3.498  17.195  0.00  0.00    +0.000 OA
ATOM      4  H   UNL     1       5.623   4.652  20.039  0.00  0.00    +0.000 HD
ENDROOT
BRANCH   2   5
ATOM      5  C   UNL     1       6.793   4.892  17.730  0.00  0.00    +0.000 C 
ATOM      6  C   UNL     1       7.494   5.436  18.972  0.00  0.00    +0.000 C 
ATOM      7  C   UNL     1       8.128   6.739  18.503  0.00  0.00    +0.000 C 
ATOM      8  C   UNL     1       7.213   7.183  17.391  0.00  0.00    +0.000 C 
ATOM      9  O   UNL     1       7.138   8.319  16.947  0.00  0.00    +0.000 OA
ATOM     10  N   UNL     1       6.514   6.079  16.943  0.00  0.00    +0.000 N 
BRANCH  10  11
ATOM     11  C   UNL     1       5.672   6.052  15.752  0.00  0.00    +0.000 C 
BRANCH  11  12
ATOM     12  C   UNL     1       6.213   5.249  14.595  0.00  0.00    +0.000 A 
ATOM     13  C   UNL     1       5.457   4.217  14.026  0.00  0.00    +0.000 A 
ATOM     14  C   UNL     1       5.889   3.567  12.865  0.00  0.00    +0.000 A 
ATOM     15  C   UNL     1       7.095   3.937  12.271  0.00  0.00    +0.000 A 
ATOM     16  C   UNL     1       7.868   4.943  12.840  0.00  0.00    +0.000 A 
ATOM     17  C   UNL     1       7.434   5.597  13.995  0.00  0.00    +0.000 A 
ENDBRANCH  11  12
ENDBRANCH  10  11
ENDBRANCH   2   5
BRANCH   1  18
ATOM     18  CA  UNL     1       3.778   3.601  19.759  0.00  0.00    +0.000 C 
BRANCH  18  20
ATOM     19  O   UNL     1       3.123   1.358  19.015  0.00  0.00    +0.000 OA
ATOM     20  C   UNL     1       3.937   2.080  19.566  0.00  0.00    +0.000 C 
BRANCH  20  21
ATOM     21  OXT UNL     1       5.030   1.571  20.187  0.00  0.00    +0.000 OA
ATOM     22  HXT UNL     1       5.104   1.854  21.120  0.00  0.00    +0.000 HD
ENDBRANCH  20  21
ENDBRANCH  18  20
BRANCH  18  23
ATOM     23  C   UNL     1       2.459   4.113  19.150  0.00  0.00    +0.000 C 
BRANCH  23  24
ATOM     24  C   UNL     1       2.219   5.601  19.275  0.00  0.00    +0.000 A 
ATOM     25  C   UNL     1       2.461   6.445  18.170  0.00  0.00    +0.000 A 
ATOM     26  C   UNL     1       2.209   7.818  18.244  0.00  0.00    +0.000 A 
ATOM     27  C   UNL     1       1.742   8.322  19.437  0.00  0.00    +0.000 A 
ATOM     28  C   UNL     1       1.520   7.513  20.524  0.00  0.00    +0.000 A 
ATOM     29  C   UNL     1       1.729   6.152  20.470  0.00  0.00    +0.000 A 
ATOM     30  O   UNL     1       1.081   8.208  21.607  0.00  0.00    +0.000 OA
ATOM     31  C   UNL     1       1.101   9.555  21.087  0.00  0.00    +0.000 C 
ATOM     32  O   UNL     1       1.453   9.625  19.690  0.00  0.00    +0.000 OA
ENDBRANCH  23  24
ENDBRANCH  18  23
ENDBRANCH   1  18
TORSDOF 8
ENDMDL
MODEL 5
REMARK VINA RESULT:      -8.2      2.173      6.961
REMARK  Name = 
REMARK  8 active torsions:
REMARK  status: ('A' for Active; 'I' for Inactive)
REMARK    1  A    between atoms: C_2  and  OXT_3
REMARK    2  A    between atoms: C_2  and  CA_4
REMARK    3  A    between atoms: CA_4  and  C_5
REMARK    4  A    between atoms: CA_4  and  N_15
REMARK    5  A    between atoms: C_5  and  C_6
REMARK    6  A    between atoms: C_16  and  C_18
REMARK    7  A    between atoms: N_23  and  C_24
REMARK    8  A    between atoms: C_24  and  C_25
REMARK                            x       y       z     vdW  Elec       q    Type
REMARK                         _______ _______ _______ _____ _____    ______ ____
ROOT
ATOM      1  N   UNL     1       5.470   5.515  18.735  0.00  0.00    +0.000 N 
ATOM      2  C   UNL     1       4.937   4.340  19.253  0.00  0.00    +0.000 C 
ATOM      3  O   UNL     1       5.621   3.340  19.447  0.00  0.00    +0.000 OA
ATOM      4  H   UNL     1       4.813   6.175  18.326  0.00  0.00    +0.000 HD
ENDROOT
BRANCH   2   5
ATOM      5  C   UNL     1       3.442   4.366  19.594  0.00  0.00    +0.000 C 
ATOM      6  C   UNL     1       2.829   2.975  19.734  0.00  0.00    +0.000 C 
ATOM      7  C   UNL     1       1.421   3.130  19.177  0.00  0.00    +0.000 C 
ATOM      8  C   UNL     1       1.572   4.242  18.172  0.00  0.00    +0.000 C 
ATOM      9  O   UNL     1       0.794   4.484  17.259  0.00  0.00    +0.000 OA
ATOM     10  N   UNL     1       2.712   4.956  18.489  0.00  0.00    +0.000 N 
BRANCH  10  11
ATOM     11  C   UNL     1       3.100   6.222  17.875  0.00  0.00    +0.000 C 
BRANCH  11  12
ATOM     12  C   UNL     1       2.441   7.449  18.452  0.00  0.00    +0.000 A 
ATOM     13  C   UNL     1       2.040   8.503  17.621  0.00  0.00    +0.000 A 
ATOM     14  C   UNL     1       1.299   9.576  18.130  0.00  0.00    +0.000 A 
ATOM     15  C   UNL     1       0.968   9.610  19.484  0.00  0.00    +0.000 A 
ATOM     16  C   UNL     1       1.382   8.584  20.325  0.00  0.00    +0.000 A 
ATOM     17  C   UNL     1       2.115   7.509  19.816  0.00  0.00    +0.000 A 
ENDBRANCH  11  12
ENDBRANCH  10  11
ENDBRANCH   2   5
BRANCH   1  18
ATOM     18  CA  UNL     1       6.862   5.551  18.259  0.00  0.00    +0.000 C 
BRANCH  18  20
ATOM     19  O   UNL     1       8.506   7.142  19.141  0.00  0.00    +0.000 OA
ATOM     20  C   UNL     1       7.827   6.142  19.305  0.00  0.00    +0.000 C 
BRANCH  20  21
ATOM     21  OXT UNL     1       7.961   5.367  20.410  0.00  0.00    +0.000 OA
ATOM     22  HXT UNL     1       8.352   4.492  20.216  0.00  0.00    +0.000 HD
ENDBRANCH  20  21
ENDBRANCH  18  20
BRANCH  18  23
ATOM     23  C   UNL     1       7.034   6.226  16.885  0.00  0.00    +0.000 C 
BRANCH  23  24
ATOM     24  C   UNL     1       6.712   5.358  15.688  0.00  0.00    +0.000 A 
ATOM     25  C   UNL     1       5.671   4.409  15.771  0.00  0.00    +0.000 A 
ATOM     26  C   UNL     1       5.324   3.623  14.669  0.00  0.00    +0.000 A 
ATOM     27  C   UNL     1       6.048   3.788  13.509  0.00  0.00    +0.000 A 
ATOM     28  C   UNL     1       7.074   4.697  13.422  0.00  0.00    +0.000 A 
ATOM     29  C   UNL     1       7.417   5.507  14.483  0.00  0.00    +0.000 A 
ATOM     30  O   UNL     1       7.672   4.689  12.201  0.00  0.00    +0.000 OA
ATOM     31  C   UNL     1       6.933   3.634  11.547  0.00  0.00    +0.000 C 
ATOM     32  O   UNL     1       5.855   3.108  12.349  0.00  0.00    +0.000 OA
ENDBRANCH  23  24
ENDBRANCH  18  23
ENDBRANCH   1  18
TORSDOF 8
ENDMDL
MODEL 6
REMARK VINA RESULT:      -8.0      0.640      1.694
REMARK  Name = 
REMARK  8 active torsions:
REMARK  status: ('A' for Active; 'I' for Inactive)
REMARK    1  A    between atoms: C_2  and  OXT_3
REMARK    2  A    between atoms: C_2  and  CA_4
REMARK    3  A    between atoms: CA_4  and  C_5
REMARK    4  A    between atoms: CA_4  and  N_15
REMARK    5  A    between atoms: C_5  and  C_6
REMARK    6  A    between atoms: C_16  and  C_18
REMARK    7  A    between atoms: N_23  and  C_24
REMARK    8  A    between atoms: C_24  and  C_25
REMARK                            x       y       z     vdW  Elec       q    Type
REMARK                         _______ _______ _______ _____ _____    ______ ____
ROOT
ATOM      1  N   UNL     1       5.066   4.224  19.397  0.00  0.00    +0.000 N 
ATOM      2  C   UNL     1       5.516   4.059  18.091  0.00  0.00    +0.000 C 
ATOM      3  O   UNL     1       4.921   3.360  17.277  0.00  0.00    +0.000 OA
ATOM      4  H   UNL     1       5.746   4.552  20.077  0.00  0.00    +0.000 HD
ENDROOT
BRANCH   2   5
ATOM      5  C   UNL     1       6.789   4.824  17.711  0.00  0.00    +0.000 C 
ATOM      6  C   UNL     1       7.565   5.345  18.919  0.00  0.00    +0.000 C 
ATOM      7  C   UNL     1       8.131   6.679  18.452  0.00  0.00    +0.000 C 
ATOM      8  C   UNL     1       7.127   7.135  17.424  0.00  0.00    +0.000 C 
ATOM      9  O   UNL     1       6.992   8.283  17.027  0.00  0.00    +0.000 OA
ATOM     10  N   UNL     1       6.425   6.027  16.989  0.00  0.00    +0.000 N 
BRANCH  10  11
ATOM     11  C   UNL     1       5.500   6.018  15.860  0.00  0.00    +0.000 C 
BRANCH  11  12
ATOM     12  C   UNL     1       6.002   5.326  14.618  0.00  0.00    +0.000 A 
ATOM     13  C   UNL     1       7.267   5.622  14.097  0.00  0.00    +0.000 A 
ATOM     14  C   UNL     1       7.797   4.881  13.034  0.00  0.00    +0.000 A 
ATOM     15  C   UNL     1       7.053   3.844  12.473  0.00  0.00    +0.000 A 
ATOM     16  C   UNL     1       5.785   3.556  12.965  0.00  0.00    +0.000 A 
ATOM     17  C   UNL     1       5.259   4.291  14.030  0.00  0.00    +0.000 A 
ENDBRANCH  11  12
ENDBRANCH  10  11
ENDBRANCH   2   5
BRANCH   1  18
ATOM     18  CA  UNL     1       3.928   3.434  19.894  0.00  0.00    +0.000 C 
BRANCH  18  20
ATOM     19  O   UNL     1       5.036   1.277  20.260  0.00  0.00    +0.000 OA
ATOM     20  C   UNL     1       4.146   1.917  19.726  0.00  0.00    +0.000 C 
BRANCH  20  21
ATOM     21  OXT UNL     1       3.321   1.355  18.809  0.00  0.00    +0.000 OA
ATOM     22  HXT UNL     1       2.531   1.900  18.622  0.00  0.00    +0.000 HD
ENDBRANCH  20  21
ENDBRANCH  18  20
BRANCH  18  23
ATOM     23  C   UNL     1       2.566   3.876  19.326  0.00  0.00    +0.000 C 
BRANCH  23  24
ATOM     24  C   UNL     1       2.303   5.366  19.351  0.00  0.00    +0.000 A 
ATOM     25  C   UNL     1       2.526   6.135  18.189  0.00  0.00    +0.000 A 
ATOM     26  C   UNL     1       2.253   7.506  18.171  0.00  0.00    +0.000 A 
ATOM     27  C   UNL     1       1.784   8.083  19.329  0.00  0.00    +0.000 A 
ATOM     28  C   UNL     1       1.580   7.347  20.471  0.00  0.00    +0.000 A 
ATOM     29  C   UNL     1       1.811   5.989  20.509  0.00  0.00    +0.000 A 
ATOM     30  O   UNL     1       1.135   8.108  21.506  0.00  0.00    +0.000 OA
ATOM     31  C   UNL     1       1.132   9.417  20.896  0.00  0.00    +0.000 C 
ATOM     32  O   UNL     1       1.475   9.396  19.495  0.00  0.00    +0.000 OA
ENDBRANCH  23  24
ENDBRANCH  18  23
ENDBRANCH   1  18
TORSDOF 8
ENDMDL
MODEL 7
REMARK VINA RESULT:      -7.9      1.215      1.917
REMARK  Name = 
REMARK  8 active torsions:
REMARK  status: ('A' for Active; 'I' for Inactive)
REMARK    1  A    between atoms: C_2  and  OXT_3
REMARK    2  A    between atoms: C_2  and  CA_4
REMARK    3  A    between atoms: CA_4  and  C_5
REMARK    4  A    between atoms: CA_4  and  N_15
REMARK    5  A    between atoms: C_5  and  C_6
REMARK    6  A    between atoms: C_16  and  C_18
REMARK    7  A    between atoms: N_23  and  C_24
REMARK    8  A    between atoms: C_24  and  C_25
REMARK                            x       y       z     vdW  Elec       q    Type
REMARK                         _______ _______ _______ _____ _____    ______ ____
ROOT
ATOM      1  N   UNL     1       4.004   4.687  19.007  0.00  0.00    +0.000 N 
ATOM      2  C   UNL     1       5.152   3.903  18.973  0.00  0.00    +0.000 C 
ATOM      3  O   UNL     1       5.171   2.751  19.392  0.00  0.00    +0.000 OA
ATOM      4  H   UNL     1       4.133   5.693  18.932  0.00  0.00    +0.000 HD
ENDROOT
BRANCH   2   5
ATOM      5  C   UNL     1       6.397   4.552  18.356  0.00  0.00    +0.000 C 
ATOM      6  C   UNL     1       7.135   5.479  19.318  0.00  0.00    +0.000 C 
ATOM      7  C   UNL     1       7.651   6.604  18.430  0.00  0.00    +0.000 C 
ATOM      8  C   UNL     1       6.641   6.647  17.313  0.00  0.00    +0.000 C 
ATOM      9  O   UNL     1       6.463   7.590  16.555  0.00  0.00    +0.000 OA
ATOM     10  N   UNL     1       5.991   5.429  17.274  0.00  0.00    +0.000 N 
BRANCH  10  11
ATOM     11  C   UNL     1       5.080   5.003  16.216  0.00  0.00    +0.000 C 
BRANCH  11  12
ATOM     12  C   UNL     1       5.738   4.586  14.925  0.00  0.00    +0.000 A 
ATOM     13  C   UNL     1       5.021   3.880  13.952  0.00  0.00    +0.000 A 
ATOM     14  C   UNL     1       5.580   3.619  12.696  0.00  0.00    +0.000 A 
ATOM     15  C   UNL     1       6.874   4.050  12.410  0.00  0.00    +0.000 A 
ATOM     16  C   UNL     1       7.608   4.730  13.376  0.00  0.00    +0.000 A 
ATOM     17  C   UNL     1       7.047   4.997  14.627  0.00  0.00    +0.000 A 
ENDBRANCH  11  12
ENDBRANCH  10  11
ENDBRANCH   2   5
BRANCH   1  18
ATOM     18  CA  UNL     1       2.795   4.202  19.693  0.00  0.00    +0.000 C 
BRANCH  18  20
ATOM     19  O   UNL     1       1.964   3.418  17.523  0.00  0.00    +0.000 OA
ATOM     20  C   UNL     1       1.788   3.553  18.723  0.00  0.00    +0.000 C 
BRANCH  20  21
ATOM     21  OXT UNL     1       0.602   3.249  19.304  0.00  0.00    +0.000 OA
ATOM     22  HXT UNL     1       0.155   4.029  19.688  0.00  0.00    +0.000 HD
ENDBRANCH  20  21
ENDBRANCH  18  20
BRANCH  18  23
ATOM     23  C   UNL     1       2.119   5.258  20.588  0.00  0.00    +0.000 C 
BRANCH  23  24
ATOM     24  C   UNL     1       1.966   6.631  19.973  0.00  0.00    +0.000 A 
ATOM     25  C   UNL     1       2.353   6.846  18.634  0.00  0.00    +0.000 A 
ATOM     26  C   UNL     1       2.185   8.094  18.027  0.00  0.00    +0.000 A 
ATOM     27  C   UNL     1       1.653   9.111  18.788  0.00  0.00    +0.000 A 
ATOM     28  C   UNL     1       1.288   8.918  20.097  0.00  0.00    +0.000 A 
ATOM     29  C   UNL     1       1.413   7.690  20.712  0.00  0.00    +0.000 A 
ATOM     30  O   UNL     1       0.804  10.050  20.674  0.00  0.00    +0.000 OA
ATOM     31  C   UNL     1       0.955  10.990  19.588  0.00  0.00    +0.000 C 
ATOM     32  O   UNL     1       1.427  10.384  18.367  0.00  0.00    +0.000 OA
ENDBRANCH  23  24
ENDBRANCH  18  23
ENDBRANCH   1  18
TORSDOF 8
ENDMDL
MODEL 8
REMARK VINA RESULT:      -7.9      0.486      1.005
REMARK  Name = 
REMARK  8 active torsions:
REMARK  status: ('A' for Active; 'I' for Inactive)
REMARK    1  A    between atoms: C_2  and  OXT_3
REMARK    2  A    between atoms: C_2  and  CA_4
REMARK    3  A    between atoms: CA_4  and  C_5
REMARK    4  A    between atoms: CA_4  and  N_15
REMARK    5  A    between atoms: C_5  and  C_6
REMARK    6  A    between atoms: C_16  and  C_18
REMARK    7  A    between atoms: N_23  and  C_24
REMARK    8  A    between atoms: C_24  and  C_25
REMARK                            x       y       z     vdW  Elec       q    Type
REMARK                         _______ _______ _______ _____ _____    ______ ____
ROOT
ATOM      1  N   UNL     1       4.752   4.714  19.463  0.00  0.00    +0.000 N 
ATOM      2  C   UNL     1       5.314   4.281  18.267  0.00  0.00    +0.000 C 
ATOM      3  O   UNL     1       4.764   3.454  17.548  0.00  0.00    +0.000 OA
ATOM      4  H   UNL     1       5.380   5.149  20.134  0.00  0.00    +0.000 HD
ENDROOT
BRANCH   2   5
ATOM      5  C   UNL     1       6.654   4.916  17.879  0.00  0.00    +0.000 C 
ATOM      6  C   UNL     1       7.462   5.404  19.079  0.00  0.00    +0.000 C 
ATOM      7  C   UNL     1       8.150   6.667  18.577  0.00  0.00    +0.000 C 
ATOM      8  C   UNL     1       7.201   7.177  17.524  0.00  0.00    +0.000 C 
ATOM      9  O   UNL     1       7.174   8.319  17.089  0.00  0.00    +0.000 OA
ATOM     10  N   UNL     1       6.406   6.123  17.115  0.00  0.00    +0.000 N 
BRANCH  10  11
ATOM     11  C   UNL     1       5.495   6.160  15.976  0.00  0.00    +0.000 C 
BRANCH  11  12
ATOM     12  C   UNL     1       5.953   5.401  14.756  0.00  0.00    +0.000 A 
ATOM     13  C   UNL     1       7.216   5.637  14.199  0.00  0.00    +0.000 A 
ATOM     14  C   UNL     1       7.703   4.837  13.160  0.00  0.00    +0.000 A 
ATOM     15  C   UNL     1       6.919   3.799  12.658  0.00  0.00    +0.000 A 
ATOM     16  C   UNL     1       5.654   3.569  13.185  0.00  0.00    +0.000 A 
ATOM     17  C   UNL     1       5.169   4.364  14.226  0.00  0.00    +0.000 A 
ENDBRANCH  11  12
ENDBRANCH  10  11
ENDBRANCH   2   5
BRANCH   1  18
ATOM     18  CA  UNL     1       3.534   4.074  19.985  0.00  0.00    +0.000 C 
BRANCH  18  20
ATOM     19  O   UNL     1       2.715   1.787  19.644  0.00  0.00    +0.000 OA
ATOM     20  C   UNL     1       3.623   2.535  19.965  0.00  0.00    +0.000 C 
BRANCH  20  21
ATOM     21  OXT UNL     1       4.789   2.059  20.469  0.00  0.00    +0.000 OA
ATOM     22  HXT UNL     1       4.665   1.268  21.032  0.00  0.00    +0.000 HD
ENDBRANCH  20  21
ENDBRANCH  18  20
BRANCH  18  23
ATOM     23  C   UNL     1       2.234   4.573  19.325  0.00  0.00    +0.000 C 
BRANCH  23  24
ATOM     24  C   UNL     1       2.002   6.066  19.392  0.00  0.00    +0.000 A 
ATOM     25  C   UNL     1       1.560   6.652  20.597  0.00  0.00    +0.000 A 
ATOM     26  C   UNL     1       1.376   8.034  20.700  0.00  0.00    +0.000 A 
ATOM     27  C   UNL     1       1.617   8.799  19.581  0.00  0.00    +0.000 A 
ATOM     28  C   UNL     1       2.031   8.238  18.399  0.00  0.00    +0.000 A 
ATOM     29  C   UNL     1       2.251   6.882  18.276  0.00  0.00    +0.000 A 
ATOM     30  O   UNL     1       2.192   9.161  17.413  0.00  0.00    +0.000 OA
ATOM     31  C   UNL     1       1.782  10.362  18.102  0.00  0.00    +0.000 C 
ATOM     32  O   UNL     1       1.483  10.149  19.497  0.00  0.00    +0.000 OA
ENDBRANCH  23  24
ENDBRANCH  18  23
ENDBRANCH   1  18
TORSDOF 8
ENDMDL
MODEL 9
REMARK VINA RESULT:      -7.8      0.962      1.254
REMARK  Name = 
REMARK  8 active torsions:
REMARK  status: ('A' for Active; 'I' for Inactive)
REMARK    1  A    between atoms: C_2  and  OXT_3
REMARK    2  A    between atoms: C_2  and  CA_4
REMARK    3  A    between atoms: CA_4  and  C_5
REMARK    4  A    between atoms: CA_4  and  N_15
REMARK    5  A    between atoms: C_5  and  C_6
REMARK    6  A    between atoms: C_16  and  C_18
REMARK    7  A    between atoms: N_23  and  C_24
REMARK    8  A    between atoms: C_24  and  C_25
REMARK                            x       y       z     vdW  Elec       q    Type
REMARK                         _______ _______ _______ _____ _____    ______ ____
ROOT
ATOM      1  N   UNL     1       4.132   4.426  18.999  0.00  0.00    +0.000 N 
ATOM      2  C   UNL     1       4.932   3.832  18.029  0.00  0.00    +0.000 C 
ATOM      3  O   UNL     1       4.578   2.834  17.409  0.00  0.00    +0.000 OA
ATOM      4  H   UNL     1       4.597   5.038  19.664  0.00  0.00    +0.000 HD
ENDROOT
BRANCH   2   5
ATOM      5  C   UNL     1       6.280   4.508  17.755  0.00  0.00    +0.000 C 
ATOM      6  C   UNL     1       6.921   5.108  19.004  0.00  0.00    +0.000 C 
ATOM      7  C   UNL     1       7.609   6.371  18.501  0.00  0.00    +0.000 C 
ATOM      8  C   UNL     1       6.767   6.768  17.316  0.00  0.00    +0.000 C 
ATOM      9  O   UNL     1       6.741   7.879  16.807  0.00  0.00    +0.000 OA
ATOM     10  N   UNL     1       6.071   5.654  16.890  0.00  0.00    +0.000 N 
BRANCH  10  11
ATOM     11  C   UNL     1       5.297   5.576  15.655  0.00  0.00    +0.000 C 
BRANCH  11  12
ATOM     12  C   UNL     1       6.011   4.951  14.483  0.00  0.00    +0.000 A 
ATOM     13  C   UNL     1       5.396   3.949  13.723  0.00  0.00    +0.000 A 
ATOM     14  C   UNL     1       5.991   3.470  12.551  0.00  0.00    +0.000 A 
ATOM     15  C   UNL     1       7.220   3.982  12.137  0.00  0.00    +0.000 A 
ATOM     16  C   UNL     1       7.854   4.960  12.896  0.00  0.00    +0.000 A 
ATOM     17  C   UNL     1       7.257   5.443  14.062  0.00  0.00    +0.000 A 
ENDBRANCH  11  12
ENDBRANCH  10  11
ENDBRANCH   2   5
BRANCH   1  18
ATOM     18  CA  UNL     1       2.879   3.781  19.424  0.00  0.00    +0.000 C 
BRANCH  18  20
ATOM     19  O   UNL     1       1.394   4.094  17.498  0.00  0.00    +0.000 OA
ATOM     20  C   UNL     1       2.011   3.338  18.230  0.00  0.00    +0.000 C 
BRANCH  20  21
ATOM     21  OXT UNL     1       1.882   1.992  18.130  0.00  0.00    +0.000 OA
ATOM     22  HXT UNL     1       2.495   1.506  18.716  0.00  0.00    +0.000 HD
ENDBRANCH  20  21
ENDBRANCH  18  20
BRANCH  18  23
ATOM     23  C   UNL     1       2.066   4.604  20.441  0.00  0.00    +0.000 C 
BRANCH  23  24
ATOM     24  C   UNL     1       1.901   6.070  20.107  0.00  0.00    +0.000 A 
ATOM     25  C   UNL     1       1.354   6.949  21.066  0.00  0.00    +0.000 A 
ATOM     26  C   UNL     1       1.227   8.316  20.800  0.00  0.00    +0.000 A 
ATOM     27  C   UNL     1       1.630   8.769  19.564  0.00  0.00    +0.000 A 
ATOM     28  C   UNL     1       2.147   7.920  18.617  0.00  0.00    +0.000 A 
ATOM     29  C   UNL     1       2.313   6.574  18.863  0.00  0.00    +0.000 A 
ATOM     30  O   UNL     1       2.462   8.562  17.460  0.00  0.00    +0.000 OA
ATOM     31  C   UNL     1       2.036   9.906  17.775  0.00  0.00    +0.000 C 
ATOM     32  O   UNL     1       1.572  10.057  19.132  0.00  0.00    +0.000 OA
ENDBRANCH  23  24
ENDBRANCH  18  23
ENDBRANCH   1  18
TORSDOF 8
ENDMDL
