MODEL 1
REMARK VINA RESULT:      -7.2      0.000      0.000
REMARK  Name = 
REMARK  6 active torsions:
REMARK  status: ('A' for Active; 'I' for Inactive)
REMARK    1  A    between atoms: C_2  and  O_3
REMARK    2  A    between atoms: C_2  and  C_4
REMARK    3  A    between atoms: N_6  and  C_7
REMARK    4  A    between atoms: C_11  and  O_12
REMARK    5  A    between atoms: O_12  and  C_13
REMARK    6  A    between atoms: C_16  and  N_17
REMARK                            x       y       z     vdW  Elec       q    Type
REMARK                         _______ _______ _______ _____ _____    ______ ____
ROOT
ATOM      1  C   UNL     1       4.330   5.311  18.041  0.00  0.00    +0.000 A 
ATOM      2  C   UNL     1       3.491   5.037  19.051  0.00  0.00    +0.000 A 
ATOM      3  N   UNL     1       2.585   5.906  19.635  0.00  0.00    +0.000 N 
ATOM      4  C   UNL     1       2.420   7.232  19.093  0.00  0.00    +0.000 A 
ATOM      5  C   UNL     1       1.482   8.208  19.533  0.00  0.00    +0.000 A 
ATOM      6  C   UNL     1       1.413   9.525  18.962  0.00  0.00    +0.000 A 
ATOM      7  C   UNL     1       2.287   9.807  17.897  0.00  0.00    +0.000 A 
ATOM      8  F   UNL     1       2.300  11.018  17.314  0.00  0.00    +0.000 F 
ATOM      9  C   UNL     1       3.200   8.877  17.432  0.00  0.00    +0.000 A 
ATOM     10  C   UNL     1       3.265   7.612  18.022  0.00  0.00    +0.000 A 
ATOM     11  C   UNL     1       4.266   6.666  17.477  0.00  0.00    +0.000 A 
ATOM     12  O   UNL     1       5.026   6.985  16.563  0.00  0.00    +0.000 OA
ENDROOT
BRANCH   6  13
ATOM     13  N   UNL     1       0.465  10.449  19.402  0.00  0.00    +0.000 N 
ATOM     14  C   UNL     1      -0.798  10.697  18.659  0.00  0.00    +0.000 C 
ATOM     15  C   UNL     1      -1.901  11.113  19.667  0.00  0.00    +0.000 C 
ATOM     16  N   UNL     1      -1.444  12.271  20.449  0.00  0.00    +0.000 N 
ATOM     17  C   UNL     1      -2.397  13.026  21.101  0.00  0.00    +0.000 A 
ATOM     18  N   UNL     1      -3.693  12.864  20.782  0.00  0.00    +0.000 NA
ATOM     19  C   UNL     1      -4.586  13.696  21.349  0.00  0.00    +0.000 A 
ATOM     20  C   UNL     1      -4.245  14.696  22.220  0.00  0.00    +0.000 A 
ATOM     21  C   UNL     1      -2.907  14.789  22.495  0.00  0.00    +0.000 A 
ATOM     22  N   UNL     1      -1.982  13.973  21.960  0.00  0.00    +0.000 NA
ATOM     23  C   UNL     1      -0.159  12.076  21.143  0.00  0.00    +0.000 C 
ATOM     24  C   UNL     1       0.920  11.667  20.114  0.00  0.00    +0.000 C 
ENDBRANCH   6  13
BRANCH   3  25
ATOM     25  C   UNL     1       1.753   5.344  20.718  0.00  0.00    +0.000 C 
ATOM     26  C   UNL     1       0.826   4.154  20.639  0.00  0.00    +0.000 C 
ATOM     27  C   UNL     1       2.131   4.026  21.351  0.00  0.00    +0.000 C 
ENDBRANCH   3  25
BRANCH   1  29
ATOM     28  O   UNL     1       5.099   3.658  16.516  0.00  0.00    +0.000 OA
ATOM     29  C   UNL     1       5.250   4.256  17.571  0.00  0.00    +0.000 C 
BRANCH  29  30
ATOM     30  O   UNL     1       6.279   4.001  18.406  0.00  0.00    +0.000 OA
ATOM     31  H   UNL     1       6.876   4.773  18.558  0.00  0.00    +0.000 HD
ENDBRANCH  29  30
ENDBRANCH   1  29
BRANCH   5  32
ATOM     32  O   UNL     1       0.626   7.940  20.580  0.00  0.00    +0.000 OA
BRANCH  32  33
ATOM     33  C   UNL     1       0.865   8.775  21.705  0.00  0.00    +0.000 C 
ATOM     34  F   UNL     1      -0.228   8.655  22.510  0.00  0.00    +0.000 F 
ATOM     35  F   UNL     1       1.908   8.300  22.422  0.00  0.00    +0.000 F 
ENDBRANCH  32  33
ENDBRANCH   5  32
TORSDOF 6
ENDMDL
MODEL 2
REMARK VINA RESULT:      -6.9      3.670      9.520
REMARK  Name = 
REMARK  6 active torsions:
REMARK  status: ('A' for Active; 'I' for Inactive)
REMARK    1  A    between atoms: C_2  and  O_3
REMARK    2  A    between atoms: C_2  and  C_4
REMARK    3  A    between atoms: N_6  and  C_7
REMARK    4  A    between atoms: C_11  and  O_12
REMARK    5  A    between atoms: O_12  and  C_13
REMARK    6  A    between atoms: C_16  and  N_17
REMARK                            x       y       z     vdW  Elec       q    Type
REMARK                         _______ _______ _______ _____ _____    ______ ____
ROOT
ATOM      1  C   UNL     1      -4.712  14.330  20.541  0.00  0.00    +0.000 A 
ATOM      2  C   UNL     1      -5.033  13.271  19.783  0.00  0.00    +0.000 A 
ATOM      3  N   UNL     1      -4.178  12.274  19.347  0.00  0.00    +0.000 N 
ATOM      4  C   UNL     1      -2.805  12.272  19.788  0.00  0.00    +0.000 A 
ATOM      5  C   UNL     1      -1.829  11.280  19.490  0.00  0.00    +0.000 A 
ATOM      6  C   UNL     1      -0.466  11.377  19.937  0.00  0.00    +0.000 A 
ATOM      7  C   UNL     1      -0.134  12.483  20.740  0.00  0.00    +0.000 A 
ATOM      8  F   UNL     1       1.119  12.661  21.191  0.00  0.00    +0.000 F 
ATOM      9  C   UNL     1      -1.062  13.458  21.065  0.00  0.00    +0.000 A 
ATOM     10  C   UNL     1      -2.373  13.353  20.595  0.00  0.00    +0.000 A 
ATOM     11  C   UNL     1      -3.313  14.432  20.978  0.00  0.00    +0.000 A 
ATOM     12  O   UNL     1      -2.953  15.392  21.657  0.00  0.00    +0.000 OA
ENDROOT
BRANCH   6  13
ATOM     13  N   UNL     1       0.458  10.374  19.647  0.00  0.00    +0.000 N 
ATOM     14  C   UNL     1       0.975   9.451  20.690  0.00  0.00    +0.000 C 
ATOM     15  C   UNL     1       1.315   8.088  20.032  0.00  0.00    +0.000 C 
ATOM     16  N   UNL     1       2.252   8.297  18.919  0.00  0.00    +0.000 N 
ATOM     17  C   UNL     1       2.973   7.210  18.470  0.00  0.00    +0.000 A 
ATOM     18  N   UNL     1       3.014   6.095  19.220  0.00  0.00    +0.000 NA
ATOM     19  C   UNL     1       3.819   5.097  18.813  0.00  0.00    +0.000 A 
ATOM     20  C   UNL     1       4.598   5.160  17.689  0.00  0.00    +0.000 A 
ATOM     21  C   UNL     1       4.493   6.327  16.979  0.00  0.00    +0.000 A 
ATOM     22  N   UNL     1       3.694   7.345  17.343  0.00  0.00    +0.000 NA
ATOM     23  C   UNL     1       1.794   9.259  17.902  0.00  0.00    +0.000 C 
ATOM     24  C   UNL     1       1.467  10.607  18.585  0.00  0.00    +0.000 C 
ENDBRANCH   6  13
BRANCH   3  25
ATOM     25  C   UNL     1      -4.792  11.198  18.543  0.00  0.00    +0.000 C 
ATOM     26  C   UNL     1      -6.254  11.024  18.208  0.00  0.00    +0.000 C 
ATOM     27  C   UNL     1      -5.307  11.497  17.155  0.00  0.00    +0.000 C 
ENDBRANCH   3  25
BRANCH   1  29
ATOM     28  O   UNL     1      -6.877  14.990  21.269  0.00  0.00    +0.000 OA
ATOM     29  C   UNL     1      -5.763  15.310  20.880  0.00  0.00    +0.000 C 
BRANCH  29  30
ATOM     30  O   UNL     1      -5.396  16.600  20.723  0.00  0.00    +0.000 OA
ATOM     31  H   UNL     1      -4.429  16.761  20.845  0.00  0.00    +0.000 HD
ENDBRANCH  29  30
ENDBRANCH   1  29
BRANCH   5  32
ATOM     32  O   UNL     1      -2.146  10.196  18.699  0.00  0.00    +0.000 OA
BRANCH  32  33
ATOM     33  C   UNL     1      -1.738  10.370  17.348  0.00  0.00    +0.000 C 
ATOM     34  F   UNL     1      -2.569   9.597  16.594  0.00  0.00    +0.000 F 
ATOM     35  F   UNL     1      -1.960  11.645  16.958  0.00  0.00    +0.000 F 
ENDBRANCH  32  33
ENDBRANCH   5  32
TORSDOF 6
ENDMDL
MODEL 3
REMARK VINA RESULT:      -6.4      0.485      1.255
REMARK  Name = 
REMARK  6 active torsions:
REMARK  status: ('A' for Active; 'I' for Inactive)
REMARK    1  A    between atoms: C_2  and  O_3
REMARK    2  A    between atoms: C_2  and  C_4
REMARK    3  A    between atoms: N_6  and  C_7
REMARK    4  A    between atoms: C_11  and  O_12
REMARK    5  A    between atoms: O_12  and  C_13
REMARK    6  A    between atoms: C_16  and  N_17
REMARK                            x       y       z     vdW  Elec       q    Type
REMARK                         _______ _______ _______ _____ _____    ______ ____
ROOT
ATOM      1  C   UNL     1       4.343   5.319  18.009  0.00  0.00    +0.000 A 
ATOM      2  C   UNL     1       3.540   5.031  19.044  0.00  0.00    +0.000 A 
ATOM      3  N   UNL     1       2.639   5.885  19.658  0.00  0.00    +0.000 N 
ATOM      4  C   UNL     1       2.437   7.209  19.123  0.00  0.00    +0.000 A 
ATOM      5  C   UNL     1       1.498   8.170  19.593  0.00  0.00    +0.000 A 
ATOM      6  C   UNL     1       1.391   9.487  19.027  0.00  0.00    +0.000 A 
ATOM      7  C   UNL     1       2.227   9.784  17.936  0.00  0.00    +0.000 A 
ATOM      8  F   UNL     1       2.204  10.995  17.354  0.00  0.00    +0.000 F 
ATOM      9  C   UNL     1       3.140   8.867  17.441  0.00  0.00    +0.000 A 
ATOM     10  C   UNL     1       3.242   7.604  18.027  0.00  0.00    +0.000 A 
ATOM     11  C   UNL     1       4.241   6.674  17.449  0.00  0.00    +0.000 A 
ATOM     12  O   UNL     1       4.967   7.005  16.513  0.00  0.00    +0.000 OA
ENDROOT
BRANCH   6  13
ATOM     13  N   UNL     1       0.443  10.395  19.497  0.00  0.00    +0.000 N 
ATOM     14  C   UNL     1       0.714  11.291  20.651  0.00  0.00    +0.000 C 
ATOM     15  C   UNL     1      -0.095  12.603  20.470  0.00  0.00    +0.000 C 
ATOM     16  N   UNL     1      -1.520  12.284  20.296  0.00  0.00    +0.000 N 
ATOM     17  C   UNL     1      -2.437  13.291  20.516  0.00  0.00    +0.000 A 
ATOM     18  N   UNL     1      -2.041  14.414  21.140  0.00  0.00    +0.000 NA
ATOM     19  C   UNL     1      -2.983  15.326  21.443  0.00  0.00    +0.000 A 
ATOM     20  C   UNL     1      -4.313  15.167  21.159  0.00  0.00    +0.000 A 
ATOM     21  C   UNL     1      -4.630  13.999  20.519  0.00  0.00    +0.000 A 
ATOM     22  N   UNL     1      -3.721  13.066  20.187  0.00  0.00    +0.000 NA
ATOM     23  C   UNL     1      -1.811  11.345  19.200  0.00  0.00    +0.000 C 
ATOM     24  C   UNL     1      -0.996  10.048  19.409  0.00  0.00    +0.000 C 
ENDBRANCH   6  13
BRANCH   3  25
ATOM     25  C   UNL     1       1.850   5.309  20.765  0.00  0.00    +0.000 C 
ATOM     26  C   UNL     1       0.911   4.127  20.705  0.00  0.00    +0.000 C 
ATOM     27  C   UNL     1       2.245   3.978  21.357  0.00  0.00    +0.000 C 
ENDBRANCH   3  25
BRANCH   1  29
ATOM     28  O   UNL     1       5.114   3.710  16.438  0.00  0.00    +0.000 OA
ATOM     29  C   UNL     1       5.264   4.279  17.509  0.00  0.00    +0.000 C 
BRANCH  29  30
ATOM     30  O   UNL     1       6.294   4.001  18.336  0.00  0.00    +0.000 OA
ATOM     31  H   UNL     1       7.047   3.535  17.899  0.00  0.00    +0.000 HD
ENDBRANCH  29  30
ENDBRANCH   1  29
BRANCH   5  32
ATOM     32  O   UNL     1       0.680   7.887  20.666  0.00  0.00    +0.000 OA
BRANCH  32  33
ATOM     33  C   UNL     1       0.963   8.702  21.796  0.00  0.00    +0.000 C 
ATOM     34  F   UNL     1      -0.093   8.559  22.646  0.00  0.00    +0.000 F 
ATOM     35  F   UNL     1       2.040   8.220  22.456  0.00  0.00    +0.000 F 
ENDBRANCH  32  33
ENDBRANCH   5  32
TORSDOF 6
ENDMDL
MODEL 4
REMARK VINA RESULT:      -6.3      0.954      1.058
REMARK  Name = 
REMARK  6 active torsions:
REMARK  status: ('A' for Active; 'I' for Inactive)
REMARK    1  A    between atoms: C_2  and  O_3
REMARK    2  A    between atoms: C_2  and  C_4
REMARK    3  A    between atoms: N_6  and  C_7
REMARK    4  A    between atoms: C_11  and  O_12
REMARK    5  A    between atoms: O_12  and  C_13
REMARK    6  A    between atoms: C_16  and  N_17
REMARK                            x       y       z     vdW  Elec       q    Type
REMARK                         _______ _______ _______ _____ _____    ______ ____
ROOT
ATOM      1  C   UNL     1       4.346   5.203  17.786  0.00  0.00    +0.000 A 
ATOM      2  C   UNL     1       3.717   4.890  18.928  0.00  0.00    +0.000 A 
ATOM      3  N   UNL     1       2.908   5.722  19.683  0.00  0.00    +0.000 N 
ATOM      4  C   UNL     1       2.603   7.047  19.202  0.00  0.00    +0.000 A 
ATOM      5  C   UNL     1       1.732   7.986  19.822  0.00  0.00    +0.000 A 
ATOM      6  C   UNL     1       1.516   9.306  19.295  0.00  0.00    +0.000 A 
ATOM      7  C   UNL     1       2.169   9.627  18.092  0.00  0.00    +0.000 A 
ATOM      8  F   UNL     1       2.035  10.843  17.535  0.00  0.00    +0.000 F 
ATOM      9  C   UNL     1       3.010   8.733  17.451  0.00  0.00    +0.000 A 
ATOM     10  C   UNL     1       3.222   7.466  17.999  0.00  0.00    +0.000 A 
ATOM     11  C   UNL     1       4.135   6.560  17.264  0.00  0.00    +0.000 A 
ATOM     12  O   UNL     1       4.702   6.913  16.231  0.00  0.00    +0.000 OA
ENDROOT
BRANCH   6  13
ATOM     13  N   UNL     1       0.637  10.192  19.916  0.00  0.00    +0.000 N 
ATOM     14  C   UNL     1      -0.497  10.818  19.188  0.00  0.00    +0.000 C 
ATOM     15  C   UNL     1      -1.652  11.083  20.189  0.00  0.00    +0.000 C 
ATOM     16  N   UNL     1      -1.157  11.895  21.311  0.00  0.00    +0.000 N 
ATOM     17  C   UNL     1      -2.084  12.561  22.084  0.00  0.00    +0.000 A 
ATOM     18  N   UNL     1      -3.346  12.683  21.635  0.00  0.00    +0.000 NA
ATOM     19  C   UNL     1      -4.196  13.438  22.354  0.00  0.00    +0.000 A 
ATOM     20  C   UNL     1      -3.843  14.090  23.506  0.00  0.00    +0.000 A 
ATOM     21  C   UNL     1      -2.543  13.909  23.896  0.00  0.00    +0.000 A 
ATOM     22  N   UNL     1      -1.664  13.156  23.214  0.00  0.00    +0.000 NA
ATOM     23  C   UNL     1       0.010  11.329  22.010  0.00  0.00    +0.000 C 
ATOM     24  C   UNL     1       1.145  11.079  20.990  0.00  0.00    +0.000 C 
ENDBRANCH   6  13
BRANCH   3  25
ATOM     25  C   UNL     1       2.308   5.121  20.892  0.00  0.00    +0.000 C 
ATOM     26  C   UNL     1       1.232   4.064  20.954  0.00  0.00    +0.000 C 
ATOM     27  C   UNL     1       2.644   3.699  21.271  0.00  0.00    +0.000 C 
ENDBRANCH   3  25
BRANCH   1  29
ATOM     28  O   UNL     1       4.848   3.549  16.153  0.00  0.00    +0.000 OA
ATOM     29  C   UNL     1       5.196   4.185  17.138  0.00  0.00    +0.000 C 
BRANCH  29  30
ATOM     30  O   UNL     1       6.399   4.007  17.723  0.00  0.00    +0.000 OA
ATOM     31  H   UNL     1       6.363   3.949  18.709  0.00  0.00    +0.000 HD
ENDBRANCH  29  30
ENDBRANCH   1  29
BRANCH   5  32
ATOM     32  O   UNL     1       1.093   7.678  21.005  0.00  0.00    +0.000 OA
BRANCH  32  33
ATOM     33  C   UNL     1      -0.323   7.717  20.885  0.00  0.00    +0.000 C 
ATOM     34  F   UNL     1      -0.744   6.421  20.894  0.00  0.00    +0.000 F 
ATOM     35  F   UNL     1      -0.865   8.291  21.983  0.00  0.00    +0.000 F 
ENDBRANCH  32  33
ENDBRANCH   5  32
TORSDOF 6
ENDMDL
MODEL 5
REMARK VINA RESULT:      -6.2      5.554      9.054
REMARK  Name = 
REMARK  6 active torsions:
REMARK  status: ('A' for Active; 'I' for Inactive)
REMARK    1  A    between atoms: C_2  and  O_3
REMARK    2  A    between atoms: C_2  and  C_4
REMARK    3  A    between atoms: N_6  and  C_7
REMARK    4  A    between atoms: C_11  and  O_12
REMARK    5  A    between atoms: O_12  and  C_13
REMARK    6  A    between atoms: C_16  and  N_17
REMARK                            x       y       z     vdW  Elec       q    Type
REMARK                         _______ _______ _______ _____ _____    ______ ____
ROOT
ATOM      1  C   UNL     1      -5.371  12.074  20.133  0.00  0.00    +0.000 A 
ATOM      2  C   UNL     1      -4.598  11.671  19.114  0.00  0.00    +0.000 A 
ATOM      3  N   UNL     1      -3.299  12.070  18.852  0.00  0.00    +0.000 N 
ATOM      4  C   UNL     1      -2.622  12.944  19.777  0.00  0.00    +0.000 A 
ATOM      5  C   UNL     1      -1.270  13.379  19.686  0.00  0.00    +0.000 A 
ATOM      6  C   UNL     1      -0.685  14.289  20.634  0.00  0.00    +0.000 A 
ATOM      7  C   UNL     1      -1.495  14.702  21.707  0.00  0.00    +0.000 A 
ATOM      8  F   UNL     1      -1.035  15.562  22.631  0.00  0.00    +0.000 F 
ATOM      9  C   UNL     1      -2.809  14.285  21.837  0.00  0.00    +0.000 A 
ATOM     10  C   UNL     1      -3.361  13.423  20.887  0.00  0.00    +0.000 A 
ATOM     11  C   UNL     1      -4.772  13.018  21.086  0.00  0.00    +0.000 A 
ATOM     12  O   UNL     1      -5.439  13.441  22.029  0.00  0.00    +0.000 OA
ENDROOT
BRANCH   6  13
ATOM     13  N   UNL     1       0.651  14.676  20.527  0.00  0.00    +0.000 N 
ATOM     14  C   UNL     1       1.669  14.282  21.535  0.00  0.00    +0.000 C 
ATOM     15  C   UNL     1       3.049  14.165  20.837  0.00  0.00    +0.000 C 
ATOM     16  N   UNL     1       3.362  15.427  20.149  0.00  0.00    +0.000 N 
ATOM     17  C   UNL     1       4.678  15.668  19.814  0.00  0.00    +0.000 A 
ATOM     18  N   UNL     1       5.644  14.910  20.361  0.00  0.00    +0.000 NA
ATOM     19  C   UNL     1       6.923  15.245  20.107  0.00  0.00    +0.000 A 
ATOM     20  C   UNL     1       7.287  16.315  19.334  0.00  0.00    +0.000 A 
ATOM     21  C   UNL     1       6.243  17.031  18.811  0.00  0.00    +0.000 A 
ATOM     22  N   UNL     1       4.952  16.726  19.030  0.00  0.00    +0.000 NA
ATOM     23  C   UNL     1       2.337  15.876  19.191  0.00  0.00    +0.000 C 
ATOM     24  C   UNL     1       0.976  15.987  19.916  0.00  0.00    +0.000 C 
ENDBRANCH   6  13
BRANCH   3  25
ATOM     25  C   UNL     1      -2.655  11.451  17.675  0.00  0.00    +0.000 C 
ATOM     26  C   UNL     1      -2.313   9.994  17.477  0.00  0.00    +0.000 C 
ATOM     27  C   UNL     1      -3.467  10.587  16.741  0.00  0.00    +0.000 C 
ENDBRANCH   3  25
BRANCH   1  29
ATOM     28  O   UNL     1      -7.539  11.572  19.294  0.00  0.00    +0.000 OA
ATOM     29  C   UNL     1      -6.751  11.557  20.229  0.00  0.00    +0.000 C 
BRANCH  29  30
ATOM     30  O   UNL     1      -7.079  11.064  21.442  0.00  0.00    +0.000 OA
ATOM     31  H   UNL     1      -6.963  10.086  21.524  0.00  0.00    +0.000 HD
ENDBRANCH  29  30
ENDBRANCH   1  29
BRANCH   5  32
ATOM     32  O   UNL     1      -0.472  12.982  18.635  0.00  0.00    +0.000 OA
BRANCH  32  33
ATOM     33  C   UNL     1       0.289  11.820  18.937  0.00  0.00    +0.000 C 
ATOM     34  F   UNL     1       1.598  12.170  18.789  0.00  0.00    +0.000 F 
ATOM     35  F   UNL     1       0.136  11.493  20.240  0.00  0.00    +0.000 F 
ENDBRANCH  32  33
ENDBRANCH   5  32
TORSDOF 6
ENDMDL
MODEL 6
REMARK VINA RESULT:      -6.1      3.492      9.431
REMARK  Name = 
REMARK  6 active torsions:
REMARK  status: ('A' for Active; 'I' for Inactive)
REMARK    1  A    between atoms: C_2  and  O_3
REMARK    2  A    between atoms: C_2  and  C_4
REMARK    3  A    between atoms: N_6  and  C_7
REMARK    4  A    between atoms: C_11  and  O_12
REMARK    5  A    between atoms: O_12  and  C_13
REMARK    6  A    between atoms: C_16  and  N_17
REMARK                            x       y       z     vdW  Elec       q    Type
REMARK                         _______ _______ _______ _____ _____    ______ ____
ROOT
ATOM      1  C   UNL     1      -3.938  14.371  20.761  0.00  0.00    +0.000 A 
ATOM      2  C   UNL     1      -4.441  13.369  20.024  0.00  0.00    +0.000 A 
ATOM      3  N   UNL     1      -3.746  12.292  19.505  0.00  0.00    +0.000 N 
ATOM      4  C   UNL     1      -2.349  12.126  19.822  0.00  0.00    +0.000 A 
ATOM      5  C   UNL     1      -1.521  11.037  19.430  0.00  0.00    +0.000 A 
ATOM      6  C   UNL     1      -0.123  10.972  19.755  0.00  0.00    +0.000 A 
ATOM      7  C   UNL     1       0.401  12.018  20.536  0.00  0.00    +0.000 A 
ATOM      8  F   UNL     1       1.701  12.046  20.875  0.00  0.00    +0.000 F 
ATOM      9  C   UNL     1      -0.379  13.085  20.951  0.00  0.00    +0.000 A 
ATOM     10  C   UNL     1      -1.729  13.137  20.598  0.00  0.00    +0.000 A 
ATOM     11  C   UNL     1      -2.504  14.307  21.073  0.00  0.00    +0.000 A 
ATOM     12  O   UNL     1      -1.979  15.207  21.727  0.00  0.00    +0.000 OA
ENDROOT
BRANCH   6  13
ATOM     13  N   UNL     1       0.653   9.878  19.374  0.00  0.00    +0.000 N 
ATOM     14  C   UNL     1       0.989   9.606  17.953  0.00  0.00    +0.000 C 
ATOM     15  C   UNL     1       2.365   8.892  17.889  0.00  0.00    +0.000 C 
ATOM     16  N   UNL     1       2.333   7.683  18.725  0.00  0.00    +0.000 N 
ATOM     17  C   UNL     1       3.291   6.717  18.499  0.00  0.00    +0.000 A 
ATOM     18  N   UNL     1       4.023   6.770  17.372  0.00  0.00    +0.000 NA
ATOM     19  C   UNL     1       4.865   5.751  17.124  0.00  0.00    +0.000 A 
ATOM     20  C   UNL     1       5.009   4.667  17.949  0.00  0.00    +0.000 A 
ATOM     21  C   UNL     1       4.233   4.694  19.076  0.00  0.00    +0.000 A 
ATOM     22  N   UNL     1       3.386   5.697  19.369  0.00  0.00    +0.000 NA
ATOM     23  C   UNL     1       1.938   7.915  20.125  0.00  0.00    +0.000 C 
ATOM     24  C   UNL     1       0.564   8.622  20.158  0.00  0.00    +0.000 C 
ENDBRANCH   6  13
BRANCH   3  25
ATOM     25  C   UNL     1      -4.545  11.307  18.748  0.00  0.00    +0.000 C 
ATOM     26  C   UNL     1      -6.050  11.183  18.708  0.00  0.00    +0.000 C 
ATOM     27  C   UNL     1      -5.325  11.746  17.532  0.00  0.00    +0.000 C 
ENDBRANCH   3  25
BRANCH   1  29
ATOM     28  O   UNL     1      -5.886  15.256  21.797  0.00  0.00    +0.000 OA
ATOM     29  C   UNL     1      -4.838  15.455  21.201  0.00  0.00    +0.000 C 
BRANCH  29  30
ATOM     30  O   UNL     1      -4.409  16.697  20.890  0.00  0.00    +0.000 OA
ATOM     31  H   UNL     1      -4.093  16.793  19.959  0.00  0.00    +0.000 HD
ENDBRANCH  29  30
ENDBRANCH   1  29
BRANCH   5  32
ATOM     32  O   UNL     1      -2.027  10.012  18.660  0.00  0.00    +0.000 OA
BRANCH  32  33
ATOM     33  C   UNL     1      -1.792  10.206  17.271  0.00  0.00    +0.000 C 
ATOM     34  F   UNL     1      -2.782   9.537  16.617  0.00  0.00    +0.000 F 
ATOM     35  F   UNL     1      -1.951  11.511  16.953  0.00  0.00    +0.000 F 
ENDBRANCH  32  33
ENDBRANCH   5  32
TORSDOF 6
ENDMDL
MODEL 7
REMARK VINA RESULT:      -6.1      2.186      3.947
REMARK  Name = 
REMARK  6 active torsions:
REMARK  status: ('A' for Active; 'I' for Inactive)
REMARK    1  A    between atoms: C_2  and  O_3
REMARK    2  A    between atoms: C_2  and  C_4
REMARK    3  A    between atoms: N_6  and  C_7
REMARK    4  A    between atoms: C_11  and  O_12
REMARK    5  A    between atoms: O_12  and  C_13
REMARK    6  A    between atoms: C_16  and  N_17
REMARK                            x       y       z     vdW  Elec       q    Type
REMARK                         _______ _______ _______ _____ _____    ______ ____
ROOT
ATOM      1  C   UNL     1       3.347   3.797  19.208  0.00  0.00    +0.000 A 
ATOM      2  C   UNL     1       3.890   4.706  18.384  0.00  0.00    +0.000 A 
ATOM      3  N   UNL     1       3.574   6.051  18.310  0.00  0.00    +0.000 N 
ATOM      4  C   UNL     1       2.631   6.613  19.245  0.00  0.00    +0.000 A 
ATOM      5  C   UNL     1       2.262   7.984  19.344  0.00  0.00    +0.000 A 
ATOM      6  C   UNL     1       1.278   8.454  20.281  0.00  0.00    +0.000 A 
ATOM      7  C   UNL     1       0.718   7.501  21.151  0.00  0.00    +0.000 A 
ATOM      8  F   UNL     1      -0.219   7.850  22.049  0.00  0.00    +0.000 F 
ATOM      9  C   UNL     1       1.066   6.162  21.095  0.00  0.00    +0.000 A 
ATOM     10  C   UNL     1       2.005   5.728  20.157  0.00  0.00    +0.000 A 
ATOM     11  C   UNL     1       2.329   4.282  20.149  0.00  0.00    +0.000 A 
ATOM     12  O   UNL     1       1.779   3.493  20.916  0.00  0.00    +0.000 OA
ENDROOT
BRANCH   6  13
ATOM     13  N   UNL     1       0.959   9.809  20.368  0.00  0.00    +0.000 N 
ATOM     14  C   UNL     1       1.580  10.703  21.378  0.00  0.00    +0.000 C 
ATOM     15  C   UNL     1       1.656  12.140  20.799  0.00  0.00    +0.000 C 
ATOM     16  N   UNL     1       0.315  12.574  20.378  0.00  0.00    +0.000 N 
ATOM     17  C   UNL     1       0.097  13.925  20.213  0.00  0.00    +0.000 A 
ATOM     18  N   UNL     1       0.995  14.799  20.702  0.00  0.00    +0.000 NA
ATOM     19  C   UNL     1       0.697  16.110  20.629  0.00  0.00    +0.000 A 
ATOM     20  C   UNL     1      -0.468  16.594  20.095  0.00  0.00    +0.000 A 
ATOM     21  C   UNL     1      -1.323  15.639  19.615  0.00  0.00    +0.000 A 
ATOM     22  N   UNL     1      -1.061  14.321  19.657  0.00  0.00    +0.000 NA
ATOM     23  C   UNL     1      -0.352  11.670  19.426  0.00  0.00    +0.000 C 
ATOM     24  C   UNL     1      -0.417  10.249  20.030  0.00  0.00    +0.000 C 
ENDBRANCH   6  13
BRANCH   3  25
ATOM     25  C   UNL     1       4.343   6.845  17.330  0.00  0.00    +0.000 C 
ATOM     26  C   UNL     1       5.844   6.959  17.218  0.00  0.00    +0.000 C 
ATOM     27  C   UNL     1       5.089   6.149  16.218  0.00  0.00    +0.000 C 
ENDBRANCH   3  25
BRANCH   1  29
ATOM     28  O   UNL     1       3.142   1.515  18.574  0.00  0.00    +0.000 OA
ATOM     29  C   UNL     1       3.796   2.394  19.118  0.00  0.00    +0.000 C 
BRANCH  29  30
ATOM     30  O   UNL     1       4.995   2.153  19.688  0.00  0.00    +0.000 OA
ATOM     31  H   UNL     1       5.767   2.379  19.115  0.00  0.00    +0.000 HD
ENDBRANCH  29  30
ENDBRANCH   1  29
BRANCH   5  32
ATOM     32  O   UNL     1       2.804   8.922  18.491  0.00  0.00    +0.000 OA
BRANCH  32  33
ATOM     33  C   UNL     1       1.986   9.159  17.352  0.00  0.00    +0.000 C 
ATOM     34  F   UNL     1       0.877   8.382  17.508  0.00  0.00    +0.000 F 
ATOM     35  F   UNL     1       1.547  10.438  17.356  0.00  0.00    +0.000 F 
ENDBRANCH  32  33
ENDBRANCH   5  32
TORSDOF 6
ENDMDL
MODEL 8
REMARK VINA RESULT:      -6.0      5.271      9.115
REMARK  Name = 
REMARK  6 active torsions:
REMARK  status: ('A' for Active; 'I' for Inactive)
REMARK    1  A    between atoms: C_2  and  O_3
REMARK    2  A    between atoms: C_2  and  C_4
REMARK    3  A    between atoms: N_6  and  C_7
REMARK    4  A    between atoms: C_11  and  O_12
REMARK    5  A    between atoms: O_12  and  C_13
REMARK    6  A    between atoms: C_16  and  N_17
REMARK                            x       y       z     vdW  Elec       q    Type
REMARK                         _______ _______ _______ _____ _____    ______ ____
ROOT
ATOM      1  C   UNL     1      -4.583  12.586  20.189  0.00  0.00    +0.000 A 
ATOM      2  C   UNL     1      -3.838  11.999  19.242  0.00  0.00    +0.000 A 
ATOM      3  N   UNL     1      -2.510  12.259  18.952  0.00  0.00    +0.000 N 
ATOM      4  C   UNL     1      -1.771  13.188  19.772  0.00  0.00    +0.000 A 
ATOM      5  C   UNL     1      -0.389  13.502  19.650  0.00  0.00    +0.000 A 
ATOM      6  C   UNL     1       0.260  14.474  20.486  0.00  0.00    +0.000 A 
ATOM      7  C   UNL     1      -0.521  15.081  21.485  0.00  0.00    +0.000 A 
ATOM      8  F   UNL     1       0.000  16.012  22.303  0.00  0.00    +0.000 F 
ATOM      9  C   UNL     1      -1.865  14.788  21.645  0.00  0.00    +0.000 A 
ATOM     10  C   UNL     1      -2.477  13.858  20.802  0.00  0.00    +0.000 A 
ATOM     11  C   UNL     1      -3.917  13.593  21.027  0.00  0.00    +0.000 A 
ATOM     12  O   UNL     1      -4.554  14.182  21.899  0.00  0.00    +0.000 OA
ENDROOT
BRANCH   6  13
ATOM     13  N   UNL     1       1.623  14.739  20.354  0.00  0.00    +0.000 N 
ATOM     14  C   UNL     1       2.556  14.667  21.507  0.00  0.00    +0.000 C 
ATOM     15  C   UNL     1       3.961  14.255  20.993  0.00  0.00    +0.000 C 
ATOM     16  N   UNL     1       4.396  15.190  19.945  0.00  0.00    +0.000 N 
ATOM     17  C   UNL     1       5.741  15.242  19.646  0.00  0.00    +0.000 A 
ATOM     18  N   UNL     1       6.623  14.672  20.486  0.00  0.00    +0.000 NA
ATOM     19  C   UNL     1       7.933  14.841  20.228  0.00  0.00    +0.000 A 
ATOM     20  C   UNL     1       8.411  15.565  19.168  0.00  0.00    +0.000 A 
ATOM     21  C   UNL     1       7.448  16.106  18.359  0.00  0.00    +0.000 A 
ATOM     22  N   UNL     1       6.129  15.954  18.573  0.00  0.00    +0.000 NA
ATOM     23  C   UNL     1       3.457  15.332  18.819  0.00  0.00    +0.000 C 
ATOM     24  C   UNL     1       2.070  15.746  19.360  0.00  0.00    +0.000 C 
ENDBRANCH   6  13
BRANCH   3  25
ATOM     25  C   UNL     1      -1.910  11.449  17.873  0.00  0.00    +0.000 C 
ATOM     26  C   UNL     1      -1.474  10.005  17.944  0.00  0.00    +0.000 C 
ATOM     27  C   UNL     1      -2.721  10.365  17.207  0.00  0.00    +0.000 C 
ENDBRANCH   3  25
BRANCH   1  29
ATOM     28  O   UNL     1      -6.419  11.506  21.247  0.00  0.00    +0.000 OA
ATOM     29  C   UNL     1      -6.000  12.195  20.327  0.00  0.00    +0.000 C 
BRANCH  29  30
ATOM     30  O   UNL     1      -6.806  12.658  19.349  0.00  0.00    +0.000 OA
ATOM     31  H   UNL     1      -6.493  12.449  18.435  0.00  0.00    +0.000 HD
ENDBRANCH  29  30
ENDBRANCH   1  29
BRANCH   5  32
ATOM     32  O   UNL     1       0.381  12.914  18.669  0.00  0.00    +0.000 OA
BRANCH  32  33
ATOM     33  C   UNL     1       1.366  12.037  19.202  0.00  0.00    +0.000 C 
ATOM     34  F   UNL     1       0.719  11.224  20.082  0.00  0.00    +0.000 F 
ATOM     35  F   UNL     1       1.841  11.228  18.228  0.00  0.00    +0.000 F 
ENDBRANCH  32  33
ENDBRANCH   5  32
TORSDOF 6
ENDMDL
MODEL 9
REMARK VINA RESULT:      -6.0      4.371     10.265
REMARK  Name = 
REMARK  6 active torsions:
REMARK  status: ('A' for Active; 'I' for Inactive)
REMARK    1  A    between atoms: C_2  and  O_3
REMARK    2  A    between atoms: C_2  and  C_4
REMARK    3  A    between atoms: N_6  and  C_7
REMARK    4  A    between atoms: C_11  and  O_12
REMARK    5  A    between atoms: O_12  and  C_13
REMARK    6  A    between atoms: C_16  and  N_17
REMARK                            x       y       z     vdW  Elec       q    Type
REMARK                         _______ _______ _______ _____ _____    ______ ____
ROOT
ATOM      1  C   UNL     1      -5.768  16.116  21.484  0.00  0.00    +0.000 A 
ATOM      2  C   UNL     1      -6.178  14.977  20.907  0.00  0.00    +0.000 A 
ATOM      3  N   UNL     1      -5.380  13.928  20.484  0.00  0.00    +0.000 N 
ATOM      4  C   UNL     1      -3.961  13.967  20.736  0.00  0.00    +0.000 A 
ATOM      5  C   UNL     1      -3.025  12.939  20.432  0.00  0.00    +0.000 A 
ATOM      6  C   UNL     1      -1.616  13.078  20.680  0.00  0.00    +0.000 A 
ATOM      7  C   UNL     1      -1.189  14.270  21.294  0.00  0.00    +0.000 A 
ATOM      8  F   UNL     1       0.112  14.490  21.550  0.00  0.00    +0.000 F 
ATOM      9  C   UNL     1      -2.074  15.284  21.620  0.00  0.00    +0.000 A 
ATOM     10  C   UNL     1      -3.434  15.134  21.344  0.00  0.00    +0.000 A 
ATOM     11  C   UNL     1      -4.324  16.258  21.716  0.00  0.00    +0.000 A 
ATOM     12  O   UNL     1      -3.885  17.290  22.222  0.00  0.00    +0.000 OA
ENDROOT
BRANCH   6  13
ATOM     13  N   UNL     1      -0.730  12.040  20.391  0.00  0.00    +0.000 N 
ATOM     14  C   UNL     1      -0.179  11.156  21.451  0.00  0.00    +0.000 C 
ATOM     15  C   UNL     1       0.096   9.755  20.843  0.00  0.00    +0.000 C 
ATOM     16  N   UNL     1       0.977   9.888  19.674  0.00  0.00    +0.000 N 
ATOM     17  C   UNL     1       1.649   8.765  19.242  0.00  0.00    +0.000 A 
ATOM     18  N   UNL     1       1.706   7.686  20.042  0.00  0.00    +0.000 NA
ATOM     19  C   UNL     1       2.467   6.649  19.644  0.00  0.00    +0.000 A 
ATOM     20  C   UNL     1       3.187   6.641  18.479  0.00  0.00    +0.000 A 
ATOM     21  C   UNL     1       3.069   7.774  17.720  0.00  0.00    +0.000 A 
ATOM     22  N   UNL     1       2.313   8.828  18.074  0.00  0.00    +0.000 NA
ATOM     23  C   UNL     1       0.487  10.812  18.636  0.00  0.00    +0.000 C 
ATOM     24  C   UNL     1       0.226  12.198  19.269  0.00  0.00    +0.000 C 
ENDBRANCH   6  13
BRANCH   3  25
ATOM     25  C   UNL     1      -6.086  12.769  19.903  0.00  0.00    +0.000 C 
ATOM     26  C   UNL     1      -6.805  11.666  20.644  0.00  0.00    +0.000 C 
ATOM     27  C   UNL     1      -7.595  12.714  19.934  0.00  0.00    +0.000 C 
ENDBRANCH   3  25
BRANCH   1  29
ATOM     28  O   UNL     1      -7.580  17.591  21.041  0.00  0.00    +0.000 OA
ATOM     29  C   UNL     1      -6.773  17.138  21.840  0.00  0.00    +0.000 C 
BRANCH  29  30
ATOM     30  O   UNL     1      -6.730  17.538  23.128  0.00  0.00    +0.000 OA
ATOM     31  H   UNL     1      -7.242  18.363  23.311  0.00  0.00    +0.000 HD
ENDBRANCH  29  30
ENDBRANCH   1  29
BRANCH   5  32
ATOM     32  O   UNL     1      -3.436  11.771  19.826  0.00  0.00    +0.000 OA
BRANCH  32  33
ATOM     33  C   UNL     1      -3.111  11.733  18.442  0.00  0.00    +0.000 C 
ATOM     34  F   UNL     1      -2.714  10.457  18.176  0.00  0.00    +0.000 F 
ATOM     35  F   UNL     1      -4.223  11.940  17.700  0.00  0.00    +0.000 F 
ENDBRANCH  32  33
ENDBRANCH   5  32
TORSDOF 6
ENDMDL
