MODEL 1
REMARK VINA RESULT:      -6.7      0.000      0.000
REMARK  Name = 
REMARK  6 active torsions:
REMARK  status: ('A' for Active; 'I' for Inactive)
REMARK    1  A    between atoms: C_1  and  N_2
REMARK    2  A    between atoms: N_2  and  C_3
REMARK    3  A    between atoms: N_2  and  C_4
REMARK    4  A    between atoms: N_8  and  S_9
REMARK    5  A    between atoms: S_9  and  C_12
REMARK    6  A    between atoms: C_15  and  N_16
REMARK                            x       y       z     vdW  Elec       q    Type
REMARK                         _______ _______ _______ _____ _____    ______ ____
ROOT
ATOM      1  S   UNL     1       4.969   4.261  19.093  0.00  0.00    +0.000 S 
ATOM      2  O   UNL     1       5.415   5.465  19.777  0.00  0.00    +0.000 OA
ATOM      3  O   UNL     1       5.280   2.954  19.615  0.00  0.00    +0.000 OA
ENDROOT
BRANCH   1   8
ATOM      4  C   UNL     1       1.611   8.097  19.964  0.00  0.00    +0.000 A 
ATOM      5  C   UNL     1       1.433   6.949  20.748  0.00  0.00    +0.000 A 
ATOM      6  C   UNL     1       2.002   5.728  20.388  0.00  0.00    +0.000 A 
ATOM      7  C   UNL     1       2.740   5.671  19.229  0.00  0.00    +0.000 A 
ATOM      8  N   UNL     1       3.322   4.458  18.850  0.00  0.00    +0.000 N 
ATOM      9  N   UNL     1       2.886   6.697  18.384  0.00  0.00    +0.000 NA
ATOM     10  C   UNL     1       2.333   7.876  18.779  0.00  0.00    +0.000 A 
ATOM     11  H   UNL     1       2.944   3.975  18.042  0.00  0.00    +0.000 HD
BRANCH   4  13
ATOM     12  C   UNL     1       0.386   9.464  21.619  0.00  0.00    +0.000 C 
ATOM     13  N   UNL     1       1.081   9.330  20.343  0.00  0.00    +0.000 N 
ATOM     14  C   UNL     1       0.715  10.282  19.293  0.00  0.00    +0.000 C 
ENDBRANCH   4  13
ENDBRANCH   1   8
BRANCH   1  15
ATOM     15  C   UNL     1       5.596   4.360  17.431  0.00  0.00    +0.000 A 
ATOM     16  C   UNL     1       4.732   4.165  16.353  0.00  0.00    +0.000 A 
ATOM     17  C   UNL     1       5.220   4.290  15.051  0.00  0.00    +0.000 A 
ATOM     18  C   UNL     1       6.549   4.661  14.818  0.00  0.00    +0.000 A 
ATOM     19  C   UNL     1       7.417   4.790  15.909  0.00  0.00    +0.000 A 
ATOM     20  C   UNL     1       6.940   4.669  17.216  0.00  0.00    +0.000 A 
BRANCH  18  21
ATOM     21  N   UNL     1       7.053   4.685  13.512  0.00  0.00    +0.000 N 
ATOM     22  H   UNL     1       7.489   3.811  13.232  0.00  0.00    +0.000 HD
ATOM     23  H   UNL     1       6.377   5.004  12.824  0.00  0.00    +0.000 HD
ENDBRANCH  18  21
ENDBRANCH   1  15
TORSDOF 4
ENDMDL
MODEL 2
REMARK VINA RESULT:      -6.7      0.101      1.086
REMARK  Name = 
REMARK  6 active torsions:
REMARK  status: ('A' for Active; 'I' for Inactive)
REMARK    1  A    between atoms: C_1  and  N_2
REMARK    2  A    between atoms: N_2  and  C_3
REMARK    3  A    between atoms: N_2  and  C_4
REMARK    4  A    between atoms: N_8  and  S_9
REMARK    5  A    between atoms: S_9  and  C_12
REMARK    6  A    between atoms: C_15  and  N_16
REMARK                            x       y       z     vdW  Elec       q    Type
REMARK                         _______ _______ _______ _____ _____    ______ ____
ROOT
ATOM      1  S   UNL     1       4.968   4.291  19.088  0.00  0.00    +0.000 S 
ATOM      2  O   UNL     1       5.408   5.485  19.794  0.00  0.00    +0.000 OA
ATOM      3  O   UNL     1       5.290   2.976  19.584  0.00  0.00    +0.000 OA
ENDROOT
BRANCH   1   8
ATOM      4  C   UNL     1       1.618   8.152  19.875  0.00  0.00    +0.000 A 
ATOM      5  C   UNL     1       1.447   7.028  20.694  0.00  0.00    +0.000 A 
ATOM      6  C   UNL     1       2.013   5.796  20.366  0.00  0.00    +0.000 A 
ATOM      7  C   UNL     1       2.741   5.705  19.202  0.00  0.00    +0.000 A 
ATOM      8  N   UNL     1       3.319   4.481  18.854  0.00  0.00    +0.000 N 
ATOM      9  N   UNL     1       2.879   6.706  18.326  0.00  0.00    +0.000 NA
ATOM     10  C   UNL     1       2.330   7.896  18.691  0.00  0.00    +0.000 A 
ATOM     11  H   UNL     1       2.934   3.975  18.064  0.00  0.00    +0.000 HD
BRANCH   4  13
ATOM     12  C   UNL     1       0.281   9.534  21.427  0.00  0.00    +0.000 C 
ATOM     13  N   UNL     1       1.092   9.396  20.222  0.00  0.00    +0.000 N 
ATOM     14  C   UNL     1       0.858  10.374  19.158  0.00  0.00    +0.000 C 
ENDBRANCH   4  13
ENDBRANCH   1   8
BRANCH   1  15
ATOM     15  C   UNL     1       5.589   4.426  17.427  0.00  0.00    +0.000 A 
ATOM     16  C   UNL     1       6.936   4.718  17.213  0.00  0.00    +0.000 A 
ATOM     17  C   UNL     1       7.427   4.776  15.907  0.00  0.00    +0.000 A 
ATOM     18  C   UNL     1       6.597   4.491  14.818  0.00  0.00    +0.000 A 
ATOM     19  C   UNL     1       5.235   4.263  15.047  0.00  0.00    +0.000 A 
ATOM     20  C   UNL     1       4.732   4.201  16.348  0.00  0.00    +0.000 A 
BRANCH  18  21
ATOM     21  N   UNL     1       7.074   4.650  13.511  0.00  0.00    +0.000 N 
ATOM     22  H   UNL     1       6.351   4.915  12.848  0.00  0.00    +0.000 HD
ATOM     23  H   UNL     1       7.883   5.261  13.447  0.00  0.00    +0.000 HD
ENDBRANCH  18  21
ENDBRANCH   1  15
TORSDOF 4
ENDMDL
MODEL 3
REMARK VINA RESULT:      -6.6      2.894      6.990
REMARK  Name = 
REMARK  6 active torsions:
REMARK  status: ('A' for Active; 'I' for Inactive)
REMARK    1  A    between atoms: C_1  and  N_2
REMARK    2  A    between atoms: N_2  and  C_3
REMARK    3  A    between atoms: N_2  and  C_4
REMARK    4  A    between atoms: N_8  and  S_9
REMARK    5  A    between atoms: S_9  and  C_12
REMARK    6  A    between atoms: C_15  and  N_16
REMARK                            x       y       z     vdW  Elec       q    Type
REMARK                         _______ _______ _______ _____ _____    ______ ____
ROOT
ATOM      1  S   UNL     1       6.060   5.447  18.853  0.00  0.00    +0.000 S 
ATOM      2  O   UNL     1       6.884   5.606  20.042  0.00  0.00    +0.000 OA
ATOM      3  O   UNL     1       5.805   6.561  17.974  0.00  0.00    +0.000 OA
ENDROOT
BRANCH   1   8
ATOM      4  C   UNL     1       6.359   4.099  13.869  0.00  0.00    +0.000 A 
ATOM      5  C   UNL     1       5.536   3.290  14.665  0.00  0.00    +0.000 A 
ATOM      6  C   UNL     1       5.638   3.296  16.055  0.00  0.00    +0.000 A 
ATOM      7  C   UNL     1       6.581   4.112  16.634  0.00  0.00    +0.000 A 
ATOM      8  N   UNL     1       6.700   4.136  18.027  0.00  0.00    +0.000 N 
ATOM      9  N   UNL     1       7.459   4.848  15.944  0.00  0.00    +0.000 NA
ATOM     10  C   UNL     1       7.316   4.831  14.591  0.00  0.00    +0.000 A 
ATOM     11  H   UNL     1       7.526   3.723  18.446  0.00  0.00    +0.000 HD
BRANCH   4  13
ATOM     12  C   UNL     1       5.345   3.184  11.809  0.00  0.00    +0.000 C 
ATOM     13  N   UNL     1       6.231   4.130  12.480  0.00  0.00    +0.000 N 
ATOM     14  C   UNL     1       7.341   4.663  11.690  0.00  0.00    +0.000 C 
ENDBRANCH   4  13
ENDBRANCH   1   8
BRANCH   1  15
ATOM     15  C   UNL     1       4.495   4.803  19.402  0.00  0.00    +0.000 A 
ATOM     16  C   UNL     1       3.438   5.677  19.654  0.00  0.00    +0.000 A 
ATOM     17  C   UNL     1       2.198   5.161  20.039  0.00  0.00    +0.000 A 
ATOM     18  C   UNL     1       1.993   3.780  20.121  0.00  0.00    +0.000 A 
ATOM     19  C   UNL     1       3.081   2.921  19.926  0.00  0.00    +0.000 A 
ATOM     20  C   UNL     1       4.325   3.424  19.540  0.00  0.00    +0.000 A 
BRANCH  18  21
ATOM     21  N   UNL     1       0.778   3.278  20.604  0.00  0.00    +0.000 N 
ATOM     22  H   UNL     1      -0.020   3.531  20.028  0.00  0.00    +0.000 HD
ATOM     23  H   UNL     1       0.801   2.280  20.795  0.00  0.00    +0.000 HD
ENDBRANCH  18  21
ENDBRANCH   1  15
TORSDOF 4
ENDMDL
MODEL 4
REMARK VINA RESULT:      -6.6      2.703      6.951
REMARK  Name = 
REMARK  6 active torsions:
REMARK  status: ('A' for Active; 'I' for Inactive)
REMARK    1  A    between atoms: C_1  and  N_2
REMARK    2  A    between atoms: N_2  and  C_3
REMARK    3  A    between atoms: N_2  and  C_4
REMARK    4  A    between atoms: N_8  and  S_9
REMARK    5  A    between atoms: S_9  and  C_12
REMARK    6  A    between atoms: C_15  and  N_16
REMARK                            x       y       z     vdW  Elec       q    Type
REMARK                         _______ _______ _______ _____ _____    ______ ____
ROOT
ATOM      1  S   UNL     1       6.313   5.530  18.844  0.00  0.00    +0.000 S 
ATOM      2  O   UNL     1       7.073   5.566  20.084  0.00  0.00    +0.000 OA
ATOM      3  O   UNL     1       6.226   6.690  17.993  0.00  0.00    +0.000 OA
ENDROOT
BRANCH   1   8
ATOM      4  C   UNL     1       6.317   4.100  13.873  0.00  0.00    +0.000 A 
ATOM      5  C   UNL     1       5.510   3.330  14.722  0.00  0.00    +0.000 A 
ATOM      6  C   UNL     1       5.682   3.353  16.106  0.00  0.00    +0.000 A 
ATOM      7  C   UNL     1       6.679   4.146  16.624  0.00  0.00    +0.000 A 
ATOM      8  N   UNL     1       6.868   4.186  18.008  0.00  0.00    +0.000 N 
ATOM      9  N   UNL     1       7.544   4.842  15.879  0.00  0.00    +0.000 NA
ATOM     10  C   UNL     1       7.332   4.811  14.535  0.00  0.00    +0.000 A 
ATOM     11  H   UNL     1       7.701   3.753  18.392  0.00  0.00    +0.000 HD
BRANCH   4  13
ATOM     12  C   UNL     1       5.039   3.332  11.903  0.00  0.00    +0.000 C 
ATOM     13  N   UNL     1       6.120   4.115  12.492  0.00  0.00    +0.000 N 
ATOM     14  C   UNL     1       7.264   4.409  11.629  0.00  0.00    +0.000 C 
ENDBRANCH   4  13
ENDBRANCH   1   8
BRANCH   1  15
ATOM     15  C   UNL     1       4.661   5.032  19.276  0.00  0.00    +0.000 A 
ATOM     16  C   UNL     1       4.402   3.701  19.600  0.00  0.00    +0.000 A 
ATOM     17  C   UNL     1       3.112   3.325  19.983  0.00  0.00    +0.000 A 
ATOM     18  C   UNL     1       2.095   4.279  20.098  0.00  0.00    +0.000 A 
ATOM     19  C   UNL     1       2.357   5.598  19.708  0.00  0.00    +0.000 A 
ATOM     20  C   UNL     1       3.642   5.985  19.324  0.00  0.00    +0.000 A 
BRANCH  18  21
ATOM     21  N   UNL     1       0.785   3.877  20.386  0.00  0.00    +0.000 N 
ATOM     22  H   UNL     1       0.141   4.655  20.499  0.00  0.00    +0.000 HD
ATOM     23  H   UNL     1       0.423   3.183  19.738  0.00  0.00    +0.000 HD
ENDBRANCH  18  21
ENDBRANCH   1  15
TORSDOF 4
ENDMDL
MODEL 5
REMARK VINA RESULT:      -6.6      2.794      7.118
REMARK  Name = 
REMARK  6 active torsions:
REMARK  status: ('A' for Active; 'I' for Inactive)
REMARK    1  A    between atoms: C_1  and  N_2
REMARK    2  A    between atoms: N_2  and  C_3
REMARK    3  A    between atoms: N_2  and  C_4
REMARK    4  A    between atoms: N_8  and  S_9
REMARK    5  A    between atoms: S_9  and  C_12
REMARK    6  A    between atoms: C_15  and  N_16
REMARK                            x       y       z     vdW  Elec       q    Type
REMARK                         _______ _______ _______ _____ _____    ______ ____
ROOT
ATOM      1  S   UNL     1       6.937   6.568  17.563  0.00  0.00    +0.000 S 
ATOM      2  O   UNL     1       7.740   6.891  18.733  0.00  0.00    +0.000 OA
ATOM      3  O   UNL     1       6.745   7.531  16.508  0.00  0.00    +0.000 OA
ENDROOT
BRANCH   1   8
ATOM      4  C   UNL     1       6.142   3.768  13.288  0.00  0.00    +0.000 A 
ATOM      5  C   UNL     1       5.697   3.186  14.483  0.00  0.00    +0.000 A 
ATOM      6  C   UNL     1       6.155   3.630  15.722  0.00  0.00    +0.000 A 
ATOM      7  C   UNL     1       7.072   4.655  15.747  0.00  0.00    +0.000 A 
ATOM      8  N   UNL     1       7.543   5.118  16.979  0.00  0.00    +0.000 N 
ATOM      9  N   UNL     1       7.609   5.205  14.653  0.00  0.00    +0.000 NA
ATOM     10  C   UNL     1       7.123   4.759  13.463  0.00  0.00    +0.000 A 
ATOM     11  H   UNL     1       8.505   4.920  17.231  0.00  0.00    +0.000 HD
BRANCH   4  13
ATOM     12  C   UNL     1       4.262   3.616  11.691  0.00  0.00    +0.000 C 
ATOM     13  N   UNL     1       5.654   3.357  12.048  0.00  0.00    +0.000 N 
ATOM     14  C   UNL     1       6.302   2.225  11.385  0.00  0.00    +0.000 C 
ENDBRANCH   4  13
ENDBRANCH   1   8
BRANCH   1  15
ATOM     15  C   UNL     1       5.337   6.077  18.165  0.00  0.00    +0.000 A 
ATOM     16  C   UNL     1       5.242   5.133  19.187  0.00  0.00    +0.000 A 
ATOM     17  C   UNL     1       3.985   4.786  19.688  0.00  0.00    +0.000 A 
ATOM     18  C   UNL     1       2.829   5.415  19.214  0.00  0.00    +0.000 A 
ATOM     19  C   UNL     1       2.937   6.313  18.145  0.00  0.00    +0.000 A 
ATOM     20  C   UNL     1       4.188   6.669  17.637  0.00  0.00    +0.000 A 
BRANCH  18  21
ATOM     21  N   UNL     1       1.568   4.989  19.650  0.00  0.00    +0.000 N 
ATOM     22  H   UNL     1       1.610   4.217  20.309  0.00  0.00    +0.000 HD
ATOM     23  H   UNL     1       0.984   5.745  19.995  0.00  0.00    +0.000 HD
ENDBRANCH  18  21
ENDBRANCH   1  15
TORSDOF 4
ENDMDL
MODEL 6
REMARK VINA RESULT:      -6.6      3.010      3.805
REMARK  Name = 
REMARK  6 active torsions:
REMARK  status: ('A' for Active; 'I' for Inactive)
REMARK    1  A    between atoms: C_1  and  N_2
REMARK    2  A    between atoms: N_2  and  C_3
REMARK    3  A    between atoms: N_2  and  C_4
REMARK    4  A    between atoms: N_8  and  S_9
REMARK    5  A    between atoms: S_9  and  C_12
REMARK    6  A    between atoms: C_15  and  N_16
REMARK                            x       y       z     vdW  Elec       q    Type
REMARK                         _______ _______ _______ _____ _____    ______ ____
ROOT
ATOM      1  S   UNL     1       6.874   5.574  17.510  0.00  0.00    +0.000 S 
ATOM      2  O   UNL     1       7.858   6.643  17.438  0.00  0.00    +0.000 OA
ATOM      3  O   UNL     1       7.063   4.451  18.394  0.00  0.00    +0.000 OA
ENDROOT
BRANCH   1   8
ATOM      4  C   UNL     1       2.292   4.038  19.354  0.00  0.00    +0.000 A 
ATOM      5  C   UNL     1       2.312   4.381  17.995  0.00  0.00    +0.000 A 
ATOM      6  C   UNL     1       3.347   5.143  17.453  0.00  0.00    +0.000 A 
ATOM      7  C   UNL     1       4.351   5.565  18.292  0.00  0.00    +0.000 A 
ATOM      8  N   UNL     1       5.399   6.328  17.770  0.00  0.00    +0.000 N 
ATOM      9  N   UNL     1       4.362   5.353  19.612  0.00  0.00    +0.000 NA
ATOM     10  C   UNL     1       3.347   4.589  20.100  0.00  0.00    +0.000 A 
ATOM     11  H   UNL     1       5.456   7.308  18.027  0.00  0.00    +0.000 HD
BRANCH   4  13
ATOM     12  C   UNL     1       1.325   2.862  21.300  0.00  0.00    +0.000 C 
ATOM     13  N   UNL     1       1.284   3.238  19.891  0.00  0.00    +0.000 N 
ATOM     14  C   UNL     1       0.554   2.342  18.994  0.00  0.00    +0.000 C 
ENDBRANCH   4  13
ENDBRANCH   1   8
BRANCH   1  15
ATOM     15  C   UNL     1       6.677   4.952  15.855  0.00  0.00    +0.000 A 
ATOM     16  C   UNL     1       7.465   5.466  14.825  0.00  0.00    +0.000 A 
ATOM     17  C   UNL     1       7.339   4.941  13.537  0.00  0.00    +0.000 A 
ATOM     18  C   UNL     1       6.473   3.872  13.283  0.00  0.00    +0.000 A 
ATOM     19  C   UNL     1       5.645   3.411  14.314  0.00  0.00    +0.000 A 
ATOM     20  C   UNL     1       5.762   3.927  15.605  0.00  0.00    +0.000 A 
BRANCH  18  21
ATOM     21  N   UNL     1       6.281   3.420  11.971  0.00  0.00    +0.000 N 
ATOM     22  H   UNL     1       5.621   3.985  11.443  0.00  0.00    +0.000 HD
ATOM     23  H   UNL     1       7.148   3.281  11.460  0.00  0.00    +0.000 HD
ENDBRANCH  18  21
ENDBRANCH   1  15
TORSDOF 4
ENDMDL
MODEL 7
REMARK VINA RESULT:      -6.5      2.978      3.730
REMARK  Name = 
REMARK  6 active torsions:
REMARK  status: ('A' for Active; 'I' for Inactive)
REMARK    1  A    between atoms: C_1  and  N_2
REMARK    2  A    between atoms: N_2  and  C_3
REMARK    3  A    between atoms: N_2  and  C_4
REMARK    4  A    between atoms: N_8  and  S_9
REMARK    5  A    between atoms: S_9  and  C_12
REMARK    6  A    between atoms: C_15  and  N_16
REMARK                            x       y       z     vdW  Elec       q    Type
REMARK                         _______ _______ _______ _____ _____    ______ ____
ROOT
ATOM      1  S   UNL     1       6.871   5.787  17.350  0.00  0.00    +0.000 S 
ATOM      2  O   UNL     1       7.777   6.902  17.117  0.00  0.00    +0.000 OA
ATOM      3  O   UNL     1       7.153   4.803  18.364  0.00  0.00    +0.000 OA
ENDROOT
BRANCH   1   8
ATOM      4  C   UNL     1       2.394   4.138  19.346  0.00  0.00    +0.000 A 
ATOM      5  C   UNL     1       2.393   4.359  17.962  0.00  0.00    +0.000 A 
ATOM      6  C   UNL     1       3.378   5.133  17.349  0.00  0.00    +0.000 A 
ATOM      7  C   UNL     1       4.353   5.690  18.142  0.00  0.00    +0.000 A 
ATOM      8  N   UNL     1       5.352   6.468  17.549  0.00  0.00    +0.000 N 
ATOM      9  N   UNL     1       4.377   5.598  19.476  0.00  0.00    +0.000 NA
ATOM     10  C   UNL     1       3.412   4.819  20.035  0.00  0.00    +0.000 A 
ATOM     11  H   UNL     1       5.346   7.468  17.717  0.00  0.00    +0.000 HD
BRANCH   4  13
ATOM     12  C   UNL     1       1.603   2.930  21.352  0.00  0.00    +0.000 C 
ATOM     13  N   UNL     1       1.437   3.328  19.958  0.00  0.00    +0.000 N 
ATOM     14  C   UNL     1       0.632   2.444  19.115  0.00  0.00    +0.000 C 
ENDBRANCH   4  13
ENDBRANCH   1   8
BRANCH   1  15
ATOM     15  C   UNL     1       6.691   4.945  15.793  0.00  0.00    +0.000 A 
ATOM     16  C   UNL     1       5.878   3.816  15.708  0.00  0.00    +0.000 A 
ATOM     17  C   UNL     1       5.704   3.187  14.473  0.00  0.00    +0.000 A 
ATOM     18  C   UNL     1       6.291   3.709  13.316  0.00  0.00    +0.000 A 
ATOM     19  C   UNL     1       7.155   4.805  13.431  0.00  0.00    +0.000 A 
ATOM     20  C   UNL     1       7.336   5.443  14.659  0.00  0.00    +0.000 A 
BRANCH  18  21
ATOM     21  N   UNL     1       6.192   3.015  12.103  0.00  0.00    +0.000 N 
ATOM     22  H   UNL     1       5.398   3.303  11.539  0.00  0.00    +0.000 HD
ATOM     23  H   UNL     1       7.054   3.017  11.566  0.00  0.00    +0.000 HD
ENDBRANCH  18  21
ENDBRANCH   1  15
TORSDOF 4
ENDMDL
MODEL 8
REMARK VINA RESULT:      -6.5      2.947      7.262
REMARK  Name = 
REMARK  6 active torsions:
REMARK  status: ('A' for Active; 'I' for Inactive)
REMARK    1  A    between atoms: C_1  and  N_2
REMARK    2  A    between atoms: N_2  and  C_3
REMARK    3  A    between atoms: N_2  and  C_4
REMARK    4  A    between atoms: N_8  and  S_9
REMARK    5  A    between atoms: S_9  and  C_12
REMARK    6  A    between atoms: C_15  and  N_16
REMARK                            x       y       z     vdW  Elec       q    Type
REMARK                         _______ _______ _______ _____ _____    ______ ____
ROOT
ATOM      1  S   UNL     1       5.125   5.214  18.816  0.00  0.00    +0.000 S 
ATOM      2  O   UNL     1       6.180   5.604  19.738  0.00  0.00    +0.000 OA
ATOM      3  O   UNL     1       4.483   6.188  17.969  0.00  0.00    +0.000 OA
ENDROOT
BRANCH   1   8
ATOM      4  C   UNL     1       6.948   4.677  14.005  0.00  0.00    +0.000 A 
ATOM      5  C   UNL     1       5.747   4.007  14.274  0.00  0.00    +0.000 A 
ATOM      6  C   UNL     1       5.332   3.755  15.581  0.00  0.00    +0.000 A 
ATOM      7  C   UNL     1       6.142   4.172  16.612  0.00  0.00    +0.000 A 
ATOM      8  N   UNL     1       5.745   3.932  17.930  0.00  0.00    +0.000 N 
ATOM      9  N   UNL     1       7.340   4.740  16.439  0.00  0.00    +0.000 NA
ATOM     10  C   UNL     1       7.701   4.987  15.151  0.00  0.00    +0.000 A 
ATOM     11  H   UNL     1       6.259   3.244  18.469  0.00  0.00    +0.000 HD
BRANCH   4  13
ATOM     12  C   UNL     1       7.122   4.000  11.635  0.00  0.00    +0.000 C 
ATOM     13  N   UNL     1       7.346   4.971  12.701  0.00  0.00    +0.000 N 
ATOM     14  C   UNL     1       8.442   5.920  12.505  0.00  0.00    +0.000 C 
ENDBRANCH   4  13
ENDBRANCH   1   8
BRANCH   1  15
ATOM     15  C   UNL     1       3.871   4.411  19.789  0.00  0.00    +0.000 A 
ATOM     16  C   UNL     1       3.986   3.052  20.081  0.00  0.00    +0.000 A 
ATOM     17  C   UNL     1       3.023   2.438  20.885  0.00  0.00    +0.000 A 
ATOM     18  C   UNL     1       1.978   3.182  21.441  0.00  0.00    +0.000 A 
ATOM     19  C   UNL     1       1.842   4.530  21.086  0.00  0.00    +0.000 A 
ATOM     20  C   UNL     1       2.798   5.155  20.284  0.00  0.00    +0.000 A 
BRANCH  18  21
ATOM     21  N   UNL     1       0.963   2.539  22.162  0.00  0.00    +0.000 N 
ATOM     22  H   UNL     1       0.431   3.168  22.757  0.00  0.00    +0.000 HD
ATOM     23  H   UNL     1       0.355   1.968  21.582  0.00  0.00    +0.000 HD
ENDBRANCH  18  21
ENDBRANCH   1  15
TORSDOF 4
ENDMDL
MODEL 9
REMARK VINA RESULT:      -6.4      1.781      6.954
REMARK  Name = 
REMARK  6 active torsions:
REMARK  status: ('A' for Active; 'I' for Inactive)
REMARK    1  A    between atoms: C_1  and  N_2
REMARK    2  A    between atoms: N_2  and  C_3
REMARK    3  A    between atoms: N_2  and  C_4
REMARK    4  A    between atoms: N_8  and  S_9
REMARK    5  A    between atoms: S_9  and  C_12
REMARK    6  A    between atoms: C_15  and  N_16
REMARK                            x       y       z     vdW  Elec       q    Type
REMARK                         _______ _______ _______ _____ _____    ______ ____
ROOT
ATOM      1  S   UNL     1       3.026   5.582  19.034  0.00  0.00    +0.000 S 
ATOM      2  O   UNL     1       2.529   4.955  17.819  0.00  0.00    +0.000 OA
ATOM      3  O   UNL     1       2.836   4.961  20.320  0.00  0.00    +0.000 OA
ENDROOT
BRANCH   1   8
ATOM      4  C   UNL     1       6.234   4.804  15.052  0.00  0.00    +0.000 A 
ATOM      5  C   UNL     1       6.523   4.072  16.213  0.00  0.00    +0.000 A 
ATOM      6  C   UNL     1       5.994   4.435  17.451  0.00  0.00    +0.000 A 
ATOM      7  C   UNL     1       5.184   5.545  17.511  0.00  0.00    +0.000 A 
ATOM      8  N   UNL     1       4.642   5.926  18.742  0.00  0.00    +0.000 N 
ATOM      9  N   UNL     1       4.930   6.343  16.469  0.00  0.00    +0.000 NA
ATOM     10  C   UNL     1       5.447   5.946  15.275  0.00  0.00    +0.000 A 
ATOM     11  H   UNL     1       4.988   6.773  19.179  0.00  0.00    +0.000 HD
BRANCH   4  13
ATOM     12  C   UNL     1       7.743   5.227  13.141  0.00  0.00    +0.000 C 
ATOM     13  N   UNL     1       6.725   4.419  13.805  0.00  0.00    +0.000 N 
ATOM     14  C   UNL     1       5.869   3.604  12.942  0.00  0.00    +0.000 C 
ENDBRANCH   4  13
ENDBRANCH   1   8
BRANCH   1  15
ATOM     15  C   UNL     1       2.313   7.211  19.092  0.00  0.00    +0.000 A 
ATOM     16  C   UNL     1       2.269   7.989  17.935  0.00  0.00    +0.000 A 
ATOM     17  C   UNL     1       1.666   9.248  17.977  0.00  0.00    +0.000 A 
ATOM     18  C   UNL     1       1.061   9.712  19.149  0.00  0.00    +0.000 A 
ATOM     19  C   UNL     1       1.170   8.946  20.317  0.00  0.00    +0.000 A 
ATOM     20  C   UNL     1       1.770   7.686  20.288  0.00  0.00    +0.000 A 
BRANCH  18  21
ATOM     21  N   UNL     1       0.548  11.014  19.208  0.00  0.00    +0.000 N 
ATOM     22  H   UNL     1       0.876  11.540  20.013  0.00  0.00    +0.000 HD
ATOM     23  H   UNL     1       0.670  11.535  18.344  0.00  0.00    +0.000 HD
ENDBRANCH  18  21
ENDBRANCH   1  15
TORSDOF 4
ENDMDL
