MODEL 1
REMARK VINA RESULT:      -8.4      0.000      0.000
REMARK  Name = 
REMARK  2 active torsions:
REMARK  status: ('A' for Active; 'I' for Inactive)
REMARK    1  A    between atoms: C_1  and  N_2
REMARK    2  A    between atoms: C_12  and  C_13
REMARK                            x       y       z     vdW  Elec       q    Type
REMARK                         _______ _______ _______ _____ _____    ______ ____
ROOT
ATOM      1  C   UNL     1       1.460   8.816  19.245  0.00  0.00    +0.000 C 
ATOM      2  C   UNL     1       1.313   7.748  20.341  0.00  0.00    +0.000 C 
ATOM      3  C   UNL     1       2.573   6.885  20.480  0.00  0.00    +0.000 C 
ATOM      4  C   UNL     1       3.072   6.220  19.190  0.00  0.00    +0.000 C 
ATOM      5  C   UNL     1       3.006   7.230  18.005  0.00  0.00    +0.000 C 
ATOM      6  C   UNL     1       1.750   8.104  17.915  0.00  0.00    +0.000 C 
ATOM      7  O   UNL     1       4.511   6.007  19.399  0.00  0.00    +0.000 OA
ATOM      8  C   UNL     1       4.970   4.872  18.804  0.00  0.00    +0.000 C 
ATOM      9  O   UNL     1       6.084   4.399  18.903  0.00  0.00    +0.000 OA
ATOM     10  C   UNL     1       3.803   4.227  18.238  0.00  0.00    +0.000 A 
ATOM     11  C   UNL     1       3.805   3.069  17.472  0.00  0.00    +0.000 A 
ATOM     12  C   UNL     1       2.623   2.343  17.456  0.00  0.00    +0.000 A 
ATOM     13  C   UNL     1       1.558   2.754  18.282  0.00  0.00    +0.000 A 
ATOM     14  C   UNL     1       1.577   4.001  18.956  0.00  0.00    +0.000 A 
ATOM     15  C   UNL     1       2.683   4.819  18.807  0.00  0.00    +0.000 A 
ENDROOT
BRANCH   1  27
ATOM     16  C   UNL     1       0.668  11.005  21.292  0.00  0.00    +0.000 C 
ATOM     17  N   UNL     1      -0.097  10.673  20.110  0.00  0.00    +0.000 N 
ATOM     18  C   UNL     1      -1.285  11.246  19.737  0.00  0.00    +0.000 A 
ATOM     19  C   UNL     1      -2.112  12.235  20.315  0.00  0.00    +0.000 A 
ATOM     20  C   UNL     1      -3.312  12.547  19.659  0.00  0.00    +0.000 A 
ATOM     21 CL   UNL     1      -4.329  13.737  20.396  0.00  0.00    +0.000 Cl
ATOM     22  C   UNL     1      -3.668  11.901  18.468  0.00  0.00    +0.000 A 
ATOM     23 CL   UNL     1      -5.139  12.255  17.630  0.00  0.00    +0.000 Cl
ATOM     24  C   UNL     1      -2.831  10.924  17.908  0.00  0.00    +0.000 A 
ATOM     25  C   UNL     1      -1.642  10.585  18.570  0.00  0.00    +0.000 A 
ATOM     26  N   UNL     1      -0.689   9.655  18.227  0.00  0.00    +0.000 NA
ATOM     27  C   UNL     1       0.232   9.701  19.172  0.00  0.00    +0.000 A 
ENDBRANCH   1  27
TORSDOF 1
ENDMDL
MODEL 2
REMARK VINA RESULT:      -7.7      5.772      9.515
REMARK  Name = 
REMARK  2 active torsions:
REMARK  status: ('A' for Active; 'I' for Inactive)
REMARK    1  A    between atoms: C_1  and  N_2
REMARK    2  A    between atoms: C_12  and  C_13
REMARK                            x       y       z     vdW  Elec       q    Type
REMARK                         _______ _______ _______ _____ _____    ______ ____
ROOT
ATOM      1  C   UNL     1       0.401  11.969  19.956  0.00  0.00    +0.000 C 
ATOM      2  C   UNL     1       1.502  12.852  20.565  0.00  0.00    +0.000 C 
ATOM      3  C   UNL     1       1.015  14.281  20.834  0.00  0.00    +0.000 C 
ATOM      4  C   UNL     1       0.389  15.008  19.637  0.00  0.00    +0.000 C 
ATOM      5  C   UNL     1      -0.561  14.047  18.860  0.00  0.00    +0.000 C 
ATOM      6  C   UNL     1      -0.061  12.615  18.641  0.00  0.00    +0.000 C 
ATOM      7  O   UNL     1      -0.515  16.008  20.223  0.00  0.00    +0.000 OA
ATOM      8  C   UNL     1      -0.582  17.155  19.492  0.00  0.00    +0.000 C 
ATOM      9  O   UNL     1      -1.162  18.177  19.796  0.00  0.00    +0.000 OA
ATOM     10  C   UNL     1       0.368  16.986  18.412  0.00  0.00    +0.000 A 
ATOM     11  C   UNL     1       0.586  17.882  17.374  0.00  0.00    +0.000 A 
ATOM     12  C   UNL     1       1.826  17.816  16.757  0.00  0.00    +0.000 A 
ATOM     13  C   UNL     1       2.802  16.943  17.278  0.00  0.00    +0.000 A 
ATOM     14  C   UNL     1       2.486  15.978  18.268  0.00  0.00    +0.000 A 
ATOM     15  C   UNL     1       1.188  15.914  18.741  0.00  0.00    +0.000 A 
ENDROOT
BRANCH   1  27
ATOM     16  C   UNL     1       0.280   9.704  22.069  0.00  0.00    +0.000 C 
ATOM     17  N   UNL     1       0.816   9.552  20.735  0.00  0.00    +0.000 N 
ATOM     18  C   UNL     1       1.371   8.409  20.221  0.00  0.00    +0.000 A 
ATOM     19  C   UNL     1       1.617   7.123  20.750  0.00  0.00    +0.000 A 
ATOM     20  C   UNL     1       2.263   6.191  19.925  0.00  0.00    +0.000 A 
ATOM     21 CL   UNL     1       2.585   4.629  20.599  0.00  0.00    +0.000 Cl
ATOM     22  C   UNL     1       2.644   6.528  18.620  0.00  0.00    +0.000 A 
ATOM     23 CL   UNL     1       3.444   5.408  17.573  0.00  0.00    +0.000 Cl
ATOM     24  C   UNL     1       2.387   7.811  18.112  0.00  0.00    +0.000 A 
ATOM     25  C   UNL     1       1.766   8.758  18.937  0.00  0.00    +0.000 A 
ATOM     26  N   UNL     1       1.438  10.067  18.666  0.00  0.00    +0.000 NA
ATOM     27  C   UNL     1       0.882  10.545  19.765  0.00  0.00    +0.000 A 
ENDBRANCH   1  27
TORSDOF 1
ENDMDL
MODEL 3
REMARK VINA RESULT:      -7.5      2.784      3.601
REMARK  Name = 
REMARK  2 active torsions:
REMARK  status: ('A' for Active; 'I' for Inactive)
REMARK    1  A    between atoms: C_1  and  N_2
REMARK    2  A    between atoms: C_12  and  C_13
REMARK                            x       y       z     vdW  Elec       q    Type
REMARK                         _______ _______ _______ _____ _____    ______ ____
ROOT
ATOM      1  C   UNL     1       1.239   8.385  19.512  0.00  0.00    +0.000 C 
ATOM      2  C   UNL     1       1.787   8.607  18.093  0.00  0.00    +0.000 C 
ATOM      3  C   UNL     1       2.095   7.286  17.379  0.00  0.00    +0.000 C 
ATOM      4  C   UNL     1       3.018   6.320  18.132  0.00  0.00    +0.000 C 
ATOM      5  C   UNL     1       2.621   6.260  19.638  0.00  0.00    +0.000 C 
ATOM      6  C   UNL     1       2.283   7.594  20.313  0.00  0.00    +0.000 C 
ATOM      7  O   UNL     1       2.679   4.985  17.619  0.00  0.00    +0.000 OA
ATOM      8  C   UNL     1       3.755   4.152  17.557  0.00  0.00    +0.000 C 
ATOM      9  O   UNL     1       3.784   3.037  17.077  0.00  0.00    +0.000 OA
ATOM     10  C   UNL     1       4.894   4.955  17.955  0.00  0.00    +0.000 A 
ATOM     11  C   UNL     1       6.196   4.498  18.106  0.00  0.00    +0.000 A 
ATOM     12  C   UNL     1       7.197   5.450  17.986  0.00  0.00    +0.000 A 
ATOM     13  C   UNL     1       6.848   6.765  17.619  0.00  0.00    +0.000 A 
ATOM     14  C   UNL     1       5.498   7.195  17.584  0.00  0.00    +0.000 A 
ATOM     15  C   UNL     1       4.504   6.286  17.902  0.00  0.00    +0.000 A 
ENDROOT
BRANCH   1  27
ATOM     16  C   UNL     1      -0.517   8.730  22.044  0.00  0.00    +0.000 C 
ATOM     17  N   UNL     1       0.082   9.821  21.307  0.00  0.00    +0.000 N 
ATOM     18  C   UNL     1      -0.058  11.154  21.595  0.00  0.00    +0.000 A 
ATOM     19  C   UNL     1      -0.773  11.866  22.583  0.00  0.00    +0.000 A 
ATOM     20  C   UNL     1      -0.720  13.268  22.543  0.00  0.00    +0.000 A 
ATOM     21 CL   UNL     1      -1.628  14.127  23.741  0.00  0.00    +0.000 Cl
ATOM     22  C   UNL     1       0.025  13.931  21.560  0.00  0.00    +0.000 A 
ATOM     23 CL   UNL     1       0.114  15.656  21.476  0.00  0.00    +0.000 Cl
ATOM     24  C   UNL     1       0.732  13.204  20.590  0.00  0.00    +0.000 A 
ATOM     25  C   UNL     1       0.664  11.804  20.604  0.00  0.00    +0.000 A 
ATOM     26  N   UNL     1       1.248  10.895  19.752  0.00  0.00    +0.000 NA
ATOM     27  C   UNL     1       0.876   9.700  20.173  0.00  0.00    +0.000 A 
ENDBRANCH   1  27
TORSDOF 1
ENDMDL
MODEL 4
REMARK VINA RESULT:      -7.5      4.819      8.963
REMARK  Name = 
REMARK  2 active torsions:
REMARK  status: ('A' for Active; 'I' for Inactive)
REMARK    1  A    between atoms: C_1  and  N_2
REMARK    2  A    between atoms: C_12  and  C_13
REMARK                            x       y       z     vdW  Elec       q    Type
REMARK                         _______ _______ _______ _____ _____    ______ ____
ROOT
ATOM      1  C   UNL     1       1.025   9.734  20.199  0.00  0.00    +0.000 C 
ATOM      2  C   UNL     1       0.684  10.392  18.853  0.00  0.00    +0.000 C 
ATOM      3  C   UNL     1       0.209  11.841  19.021  0.00  0.00    +0.000 C 
ATOM      4  C   UNL     1      -0.956  12.051  19.997  0.00  0.00    +0.000 C 
ATOM      5  C   UNL     1      -0.740  11.200  21.284  0.00  0.00    +0.000 C 
ATOM      6  C   UNL     1      -0.230   9.769  21.084  0.00  0.00    +0.000 C 
ATOM      7  O   UNL     1      -0.824  13.440  20.460  0.00  0.00    +0.000 OA
ATOM      8  C   UNL     1      -2.025  14.039  20.691  0.00  0.00    +0.000 C 
ATOM      9  O   UNL     1      -2.213  15.204  20.975  0.00  0.00    +0.000 OA
ATOM     10  C   UNL     1      -3.027  13.070  20.294  0.00  0.00    +0.000 A 
ATOM     11  C   UNL     1      -4.401  13.223  20.423  0.00  0.00    +0.000 A 
ATOM     12  C   UNL     1      -5.184  12.470  19.561  0.00  0.00    +0.000 A 
ATOM     13  C   UNL     1      -4.555  11.700  18.563  0.00  0.00    +0.000 A 
ATOM     14  C   UNL     1      -3.151  11.498  18.552  0.00  0.00    +0.000 A 
ATOM     15  C   UNL     1      -2.388  12.095  19.539  0.00  0.00    +0.000 A 
ENDROOT
BRANCH   1  27
ATOM     16  C   UNL     1       2.531   8.686  17.700  0.00  0.00    +0.000 C 
ATOM     17  N   UNL     1       2.227   7.889  18.868  0.00  0.00    +0.000 N 
ATOM     18  C   UNL     1       2.529   6.562  19.033  0.00  0.00    +0.000 A 
ATOM     19  C   UNL     1       3.148   5.595  18.210  0.00  0.00    +0.000 A 
ATOM     20  C   UNL     1       3.249   4.286  18.704  0.00  0.00    +0.000 A 
ATOM     21 CL   UNL     1       3.982   3.106  17.671  0.00  0.00    +0.000 Cl
ATOM     22  C   UNL     1       2.756   3.957  19.973  0.00  0.00    +0.000 A 
ATOM     23 CL   UNL     1       2.859   2.355  20.617  0.00  0.00    +0.000 Cl
ATOM     24  C   UNL     1       2.147   4.934  20.776  0.00  0.00    +0.000 A 
ATOM     25  C   UNL     1       2.017   6.238  20.282  0.00  0.00    +0.000 A 
ATOM     26  N   UNL     1       1.444   7.341  20.873  0.00  0.00    +0.000 NA
ATOM     27  C   UNL     1       1.558   8.329  20.004  0.00  0.00    +0.000 A 
ENDBRANCH   1  27
TORSDOF 1
ENDMDL
MODEL 5
REMARK VINA RESULT:      -7.5      5.473      9.475
REMARK  Name = 
REMARK  2 active torsions:
REMARK  status: ('A' for Active; 'I' for Inactive)
REMARK    1  A    between atoms: C_1  and  N_2
REMARK    2  A    between atoms: C_12  and  C_13
REMARK                            x       y       z     vdW  Elec       q    Type
REMARK                         _______ _______ _______ _____ _____    ______ ____
ROOT
ATOM      1  C   UNL     1       0.304  11.155  19.910  0.00  0.00    +0.000 C 
ATOM      2  C   UNL     1       1.204  12.096  20.726  0.00  0.00    +0.000 C 
ATOM      3  C   UNL     1       0.466  13.367  21.162  0.00  0.00    +0.000 C 
ATOM      4  C   UNL     1      -0.211  14.164  20.040  0.00  0.00    +0.000 C 
ATOM      5  C   UNL     1      -0.941  13.197  19.059  0.00  0.00    +0.000 C 
ATOM      6  C   UNL     1      -0.192  11.917  18.672  0.00  0.00    +0.000 C 
ATOM      7  O   UNL     1      -1.302  14.900  20.694  0.00  0.00    +0.000 OA
ATOM      8  C   UNL     1      -1.526  16.122  20.137  0.00  0.00    +0.000 C 
ATOM      9  O   UNL     1      -2.288  16.977  20.542  0.00  0.00    +0.000 OA
ATOM     10  C   UNL     1      -0.506  16.281  19.121  0.00  0.00    +0.000 A 
ATOM     11  C   UNL     1      -0.391  17.353  18.245  0.00  0.00    +0.000 A 
ATOM     12  C   UNL     1       0.873  17.585  17.724  0.00  0.00    +0.000 A 
ATOM     13  C   UNL     1       1.955  16.810  18.186  0.00  0.00    +0.000 A 
ATOM     14  C   UNL     1       1.758  15.663  18.996  0.00  0.00    +0.000 A 
ATOM     15  C   UNL     1       0.467  15.317  19.352  0.00  0.00    +0.000 A 
ENDROOT
BRANCH   1  27
ATOM     16  C   UNL     1       0.541   8.629  21.692  0.00  0.00    +0.000 C 
ATOM     17  N   UNL     1       1.121   8.760  20.374  0.00  0.00    +0.000 N 
ATOM     18  C   UNL     1       1.878   7.812  19.735  0.00  0.00    +0.000 A 
ATOM     19  C   UNL     1       2.335   6.525  20.096  0.00  0.00    +0.000 A 
ATOM     20  C   UNL     1       3.151   5.842  19.182  0.00  0.00    +0.000 A 
ATOM     21 CL   UNL     1       3.729   4.280  19.653  0.00  0.00    +0.000 Cl
ATOM     22  C   UNL     1       3.492   6.419  17.952  0.00  0.00    +0.000 A 
ATOM     23 CL   UNL     1       4.496   5.611  16.800  0.00  0.00    +0.000 Cl
ATOM     24  C   UNL     1       3.024   7.697  17.610  0.00  0.00    +0.000 A 
ATOM     25  C   UNL     1       2.230   8.400  18.528  0.00  0.00    +0.000 A 
ATOM     26  N   UNL     1       1.683   9.658  18.422  0.00  0.00    +0.000 NA
ATOM     27  C   UNL     1       1.031   9.875  19.549  0.00  0.00    +0.000 A 
ENDBRANCH   1  27
TORSDOF 1
ENDMDL
MODEL 6
REMARK VINA RESULT:      -7.5      4.956      9.224
REMARK  Name = 
REMARK  2 active torsions:
REMARK  status: ('A' for Active; 'I' for Inactive)
REMARK    1  A    between atoms: C_1  and  N_2
REMARK    2  A    between atoms: C_12  and  C_13
REMARK                            x       y       z     vdW  Elec       q    Type
REMARK                         _______ _______ _______ _____ _____    ______ ____
ROOT
ATOM      1  C   UNL     1       0.753  10.207  19.774  0.00  0.00    +0.000 C 
ATOM      2  C   UNL     1      -0.773  10.201  19.596  0.00  0.00    +0.000 C 
ATOM      3  C   UNL     1      -1.346  11.617  19.462  0.00  0.00    +0.000 C 
ATOM      4  C   UNL     1      -0.972  12.596  20.583  0.00  0.00    +0.000 C 
ATOM      5  C   UNL     1       0.537  12.449  20.943  0.00  0.00    +0.000 C 
ATOM      6  C   UNL     1       1.087  11.022  21.033  0.00  0.00    +0.000 C 
ATOM      7  O   UNL     1      -1.066  13.931  19.975  0.00  0.00    +0.000 OA
ATOM      8  C   UNL     1      -1.495  14.882  20.850  0.00  0.00    +0.000 C 
ATOM      9  O   UNL     1      -1.764  16.038  20.592  0.00  0.00    +0.000 OA
ATOM     10  C   UNL     1      -1.793  14.176  22.080  0.00  0.00    +0.000 A 
ATOM     11  C   UNL     1      -2.195  14.759  23.274  0.00  0.00    +0.000 A 
ATOM     12  C   UNL     1      -2.904  13.945  24.145  0.00  0.00    +0.000 A 
ATOM     13  C   UNL     1      -3.258  12.646  23.730  0.00  0.00    +0.000 A 
ATOM     14  C   UNL     1      -2.727  12.071  22.547  0.00  0.00    +0.000 A 
ATOM     15  C   UNL     1      -1.855  12.822  21.778  0.00  0.00    +0.000 A 
ENDROOT
BRANCH   1  27
ATOM     16  C   UNL     1       2.528   8.851  17.624  0.00  0.00    +0.000 C 
ATOM     17  N   UNL     1       2.096   8.216  18.850  0.00  0.00    +0.000 N 
ATOM     18  C   UNL     1       2.377   6.928  19.227  0.00  0.00    +0.000 A 
ATOM     19  C   UNL     1       3.085   5.869  18.618  0.00  0.00    +0.000 A 
ATOM     20  C   UNL     1       3.130   4.641  19.294  0.00  0.00    +0.000 A 
ATOM     21 CL   UNL     1       3.974   3.342  18.520  0.00  0.00    +0.000 Cl
ATOM     22  C   UNL     1       2.498   4.480  20.534  0.00  0.00    +0.000 A 
ATOM     23 CL   UNL     1       2.528   2.982  21.398  0.00  0.00    +0.000 Cl
ATOM     24  C   UNL     1       1.803   5.547  21.124  0.00  0.00    +0.000 A 
ATOM     25  C   UNL     1       1.729   6.770  20.444  0.00  0.00    +0.000 A 
ATOM     26  N   UNL     1       1.094   7.934  20.811  0.00  0.00    +0.000 NA
ATOM     27  C   UNL     1       1.305   8.797  19.834  0.00  0.00    +0.000 A 
ENDBRANCH   1  27
TORSDOF 1
ENDMDL
MODEL 7
REMARK VINA RESULT:      -7.3      5.476     10.049
REMARK  Name = 
REMARK  2 active torsions:
REMARK  status: ('A' for Active; 'I' for Inactive)
REMARK    1  A    between atoms: C_1  and  N_2
REMARK    2  A    between atoms: C_12  and  C_13
REMARK                            x       y       z     vdW  Elec       q    Type
REMARK                         _______ _______ _______ _____ _____    ______ ____
ROOT
ATOM      1  C   UNL     1      -1.268  12.123  21.784  0.00  0.00    +0.000 C 
ATOM      2  C   UNL     1      -2.188  12.711  20.702  0.00  0.00    +0.000 C 
ATOM      3  C   UNL     1      -3.026  13.881  21.229  0.00  0.00    +0.000 C 
ATOM      4  C   UNL     1      -3.850  13.596  22.492  0.00  0.00    +0.000 C 
ATOM      5  C   UNL     1      -2.999  12.787  23.517  0.00  0.00    +0.000 C 
ATOM      6  C   UNL     1      -2.144  11.647  22.953  0.00  0.00    +0.000 C 
ATOM      7  O   UNL     1      -4.035  14.905  23.135  0.00  0.00    +0.000 OA
ATOM      8  C   UNL     1      -5.237  15.021  23.763  0.00  0.00    +0.000 C 
ATOM      9  O   UNL     1      -5.694  16.021  24.279  0.00  0.00    +0.000 OA
ATOM     10  C   UNL     1      -5.948  13.791  23.478  0.00  0.00    +0.000 A 
ATOM     11  C   UNL     1      -7.195  13.438  23.978  0.00  0.00    +0.000 A 
ATOM     12  C   UNL     1      -7.916  12.519  23.231  0.00  0.00    +0.000 A 
ATOM     13  C   UNL     1      -7.403  12.094  21.989  0.00  0.00    +0.000 A 
ATOM     14  C   UNL     1      -6.080  12.405  21.585  0.00  0.00    +0.000 A 
ATOM     15  C   UNL     1      -5.288  13.162  22.430  0.00  0.00    +0.000 A 
ENDROOT
BRANCH   1  27
ATOM     16  C   UNL     1       0.322  12.222  19.125  0.00  0.00    +0.000 C 
ATOM     17  N   UNL     1       0.300  11.090  20.024  0.00  0.00    +0.000 N 
ATOM     18  C   UNL     1       0.945   9.897  19.826  0.00  0.00    +0.000 A 
ATOM     19  C   UNL     1       1.749   9.387  18.784  0.00  0.00    +0.000 A 
ATOM     20  C   UNL     1       2.214   8.069  18.903  0.00  0.00    +0.000 A 
ATOM     21 CL   UNL     1       3.172   7.447  17.602  0.00  0.00    +0.000 Cl
ATOM     22  C   UNL     1       1.892   7.292  20.024  0.00  0.00    +0.000 A 
ATOM     23 CL   UNL     1       2.443   5.663  20.208  0.00  0.00    +0.000 Cl
ATOM     24  C   UNL     1       1.094   7.819  21.051  0.00  0.00    +0.000 A 
ATOM     25  C   UNL     1       0.603   9.126  20.929  0.00  0.00    +0.000 A 
ATOM     26  N   UNL     1      -0.205   9.836  21.787  0.00  0.00    +0.000 NA
ATOM     27  C   UNL     1      -0.399  11.015  21.224  0.00  0.00    +0.000 A 
ENDBRANCH   1  27
TORSDOF 1
ENDMDL
MODEL 8
REMARK VINA RESULT:      -7.3      4.757      8.989
REMARK  Name = 
REMARK  2 active torsions:
REMARK  status: ('A' for Active; 'I' for Inactive)
REMARK    1  A    between atoms: C_1  and  N_2
REMARK    2  A    between atoms: C_12  and  C_13
REMARK                            x       y       z     vdW  Elec       q    Type
REMARK                         _______ _______ _______ _____ _____    ______ ____
ROOT
ATOM      1  C   UNL     1       1.048   9.282  21.445  0.00  0.00    +0.000 C 
ATOM      2  C   UNL     1       0.965  10.425  20.420  0.00  0.00    +0.000 C 
ATOM      3  C   UNL     1       0.645  11.771  21.080  0.00  0.00    +0.000 C 
ATOM      4  C   UNL     1      -0.605  11.798  21.969  0.00  0.00    +0.000 C 
ATOM      5  C   UNL     1      -0.660  10.518  22.857  0.00  0.00    +0.000 C 
ATOM      6  C   UNL     1      -0.299   9.193  22.177  0.00  0.00    +0.000 C 
ATOM      7  O   UNL     1      -0.372  12.888  22.927  0.00  0.00    +0.000 OA
ATOM      8  C   UNL     1      -1.515  13.544  23.270  0.00  0.00    +0.000 C 
ATOM      9  O   UNL     1      -1.601  14.544  23.954  0.00  0.00    +0.000 OA
ATOM     10  C   UNL     1      -2.563  12.953  22.463  0.00  0.00    +0.000 A 
ATOM     11  C   UNL     1      -3.914  13.264  22.531  0.00  0.00    +0.000 A 
ATOM     12  C   UNL     1      -4.661  13.003  21.392  0.00  0.00    +0.000 A 
ATOM     13  C   UNL     1      -4.002  12.554  20.231  0.00  0.00    +0.000 A 
ATOM     14  C   UNL     1      -2.642  12.153  20.255  0.00  0.00    +0.000 A 
ATOM     15  C   UNL     1      -1.949  12.227  21.450  0.00  0.00    +0.000 A 
ENDROOT
BRANCH   1  27
ATOM     16  C   UNL     1       2.241   8.965  18.601  0.00  0.00    +0.000 C 
ATOM     17  N   UNL     1       1.964   7.867  19.500  0.00  0.00    +0.000 N 
ATOM     18  C   UNL     1       2.157   6.538  19.225  0.00  0.00    +0.000 A 
ATOM     19  C   UNL     1       2.616   5.836  18.089  0.00  0.00    +0.000 A 
ATOM     20  C   UNL     1       2.638   4.435  18.152  0.00  0.00    +0.000 A 
ATOM     21 CL   UNL     1       3.174   3.588  16.740  0.00  0.00    +0.000 Cl
ATOM     22  C   UNL     1       2.224   3.762  19.308  0.00  0.00    +0.000 A 
ATOM     23 CL   UNL     1       2.234   2.036  19.426  0.00  0.00    +0.000 Cl
ATOM     24  C   UNL     1       1.774   4.478  20.428  0.00  0.00    +0.000 A 
ATOM     25  C   UNL     1       1.723   5.877  20.366  0.00  0.00    +0.000 A 
ATOM     26  N   UNL     1       1.302   6.777  21.318  0.00  0.00    +0.000 NA
ATOM     27  C   UNL     1       1.434   7.976  20.781  0.00  0.00    +0.000 A 
ENDBRANCH   1  27
TORSDOF 1
ENDMDL
MODEL 9
REMARK VINA RESULT:      -7.3      5.431      9.958
REMARK  Name = 
REMARK  2 active torsions:
REMARK  status: ('A' for Active; 'I' for Inactive)
REMARK    1  A    between atoms: C_1  and  N_2
REMARK    2  A    between atoms: C_12  and  C_13
REMARK                            x       y       z     vdW  Elec       q    Type
REMARK                         _______ _______ _______ _____ _____    ______ ____
ROOT
ATOM      1  C   UNL     1      -1.154  12.096  21.622  0.00  0.00    +0.000 C 
ATOM      2  C   UNL     1      -2.082  12.756  20.589  0.00  0.00    +0.000 C 
ATOM      3  C   UNL     1      -2.865  13.932  21.183  0.00  0.00    +0.000 C 
ATOM      4  C   UNL     1      -3.663  13.627  22.457  0.00  0.00    +0.000 C 
ATOM      5  C   UNL     1      -2.813  12.751  23.427  0.00  0.00    +0.000 C 
ATOM      6  C   UNL     1      -2.013  11.606  22.797  0.00  0.00    +0.000 C 
ATOM      7  O   UNL     1      -3.786  14.916  23.153  0.00  0.00    +0.000 OA
ATOM      8  C   UNL     1      -4.966  15.048  23.820  0.00  0.00    +0.000 C 
ATOM      9  O   UNL     1      -5.373  16.042  24.386  0.00  0.00    +0.000 OA
ATOM     10  C   UNL     1      -5.726  13.854  23.509  0.00  0.00    +0.000 A 
ATOM     11  C   UNL     1      -6.970  13.524  24.031  0.00  0.00    +0.000 A 
ATOM     12  C   UNL     1      -7.743  12.659  23.271  0.00  0.00    +0.000 A 
ATOM     13  C   UNL     1      -7.278  12.265  22.001  0.00  0.00    +0.000 A 
ATOM     14  C   UNL     1      -5.957  12.547  21.571  0.00  0.00    +0.000 A 
ATOM     15  C   UNL     1      -5.117  13.244  22.421  0.00  0.00    +0.000 A 
ENDROOT
BRANCH   1  27
ATOM     16  C   UNL     1      -0.244   9.489  23.031  0.00  0.00    +0.000 C 
ATOM     17  N   UNL     1       0.056   9.826  21.658  0.00  0.00    +0.000 N 
ATOM     18  C   UNL     1       0.803   9.068  20.792  0.00  0.00    +0.000 A 
ATOM     19  C   UNL     1       1.491   7.842  20.918  0.00  0.00    +0.000 A 
ATOM     20  C   UNL     1       2.207   7.378  19.804  0.00  0.00    +0.000 A 
ATOM     21 CL   UNL     1       3.072   5.889  19.984  0.00  0.00    +0.000 Cl
ATOM     22  C   UNL     1       2.230   8.109  18.610  0.00  0.00    +0.000 A 
ATOM     23 CL   UNL     1       3.102   7.573  17.216  0.00  0.00    +0.000 Cl
ATOM     24  C   UNL     1       1.536   9.324  18.504  0.00  0.00    +0.000 A 
ATOM     25  C   UNL     1       0.839   9.810  19.619  0.00  0.00    +0.000 A 
ATOM     26  N   UNL     1       0.115  10.972  19.756  0.00  0.00    +0.000 NA
ATOM     27  C   UNL     1      -0.339  10.983  20.996  0.00  0.00    +0.000 A 
ENDBRANCH   1  27
TORSDOF 1
ENDMDL
