MODEL 1
REMARK VINA RESULT:      -8.5      0.000      0.000
REMARK  Name = 
REMARK  8 active torsions:
REMARK  status: ('A' for Active; 'I' for Inactive)
REMARK    1  A    between atoms: C_1  and  C_2
REMARK    2  A    between atoms: C_2  and  N_3
REMARK    3  A    between atoms: C_6  and  N_7
REMARK    4  A    between atoms: C_8  and  C_10
REMARK    5  A    between atoms: C_12  and  C_13
REMARK    6  A    between atoms: C_21  and  N_22
REMARK    7  A    between atoms: C_23  and  N_24
REMARK    8  A    between atoms: C_28  and  N_29
REMARK                            x       y       z     vdW  Elec       q    Type
REMARK                         _______ _______ _______ _____ _____    ______ ____
ROOT
ATOM      1  N   UNL     1       2.838   7.341  18.552  0.00  0.00    +0.000 N 
ATOM      2  C   UNL     1       2.279   8.544  18.148  0.00  0.00    +0.000 C 
ATOM      3  O   UNL     1       2.560   9.112  17.092  0.00  0.00    +0.000 OA
ATOM      4  H   UNL     1       2.338   6.827  19.267  0.00  0.00    +0.000 HD
ENDROOT
BRANCH   1   8
ATOM      5  N   UNL     1       4.960   5.111  16.753  0.00  0.00    +0.000 N 
ATOM      6  N   UNL     1       5.406   6.278  16.237  0.00  0.00    +0.000 NA
ATOM      7  C   UNL     1       4.614   7.194  16.787  0.00  0.00    +0.000 A 
ATOM      8  C   UNL     1       3.732   6.649  17.744  0.00  0.00    +0.000 A 
ATOM      9  C   UNL     1       3.975   5.271  17.734  0.00  0.00    +0.000 A 
BRANCH   9  10
ATOM     10  N   UNL     1       3.341   4.233  18.395  0.00  0.00    +0.000 N 
ATOM     11  C   UNL     1       2.428   3.302  17.727  0.00  0.00    +0.000 C 
ATOM     12  C   UNL     1       1.022   3.331  18.347  0.00  0.00    +0.000 C 
ATOM     13  C   UNL     1       0.961   2.578  19.676  0.00  0.00    +0.000 C 
ATOM     14  C   UNL     1       1.371   3.404  20.906  0.00  0.00    +0.000 C 
ATOM     15  C   UNL     1       2.502   4.417  20.701  0.00  0.00    +0.000 C 
ATOM     16  C   UNL     1       3.634   3.933  19.805  0.00  0.00    +0.000 C 
BRANCH  14  17
ATOM     17  N   UNL     1       1.709   2.484  22.001  0.00  0.00    +0.000 NA
ATOM     18  H   UNL     1       1.148   1.636  21.936  0.00  0.00    +0.000 HD
ATOM     19  H   UNL     1       1.464   2.913  22.894  0.00  0.00    +0.000 HD
ENDBRANCH  14  17
ENDBRANCH   9  10
BRANCH   5  21
ATOM     20  C   UNL     1       6.011   3.956  14.759  0.00  0.00    +0.000 C 
ATOM     21  C   UNL     1       5.500   3.883  16.193  0.00  0.00    +0.000 C 
ENDBRANCH   5  21
ENDBRANCH   1   8
BRANCH   2  22
ATOM     22  C   UNL     1       1.230   9.048  19.056  0.00  0.00    +0.000 A 
ATOM     23  N   UNL     1       0.216   9.925  18.619  0.00  0.00    +0.000 NA
ATOM     24  C   UNL     1      -0.622  10.197  19.606  0.00  0.00    +0.000 A 
ATOM     25  S   UNL     1      -0.243   9.410  21.092  0.00  0.00    +0.000 S 
ATOM     26  C   UNL     1       1.173   8.746  20.412  0.00  0.00    +0.000 A 
BRANCH  24  27
ATOM     27  C   UNL     1      -1.800  11.090  19.540  0.00  0.00    +0.000 A 
ATOM     28  C   UNL     1      -1.973  12.162  20.441  0.00  0.00    +0.000 A 
ATOM     29  C   UNL     1      -3.081  13.015  20.362  0.00  0.00    +0.000 A 
ATOM     30  C   UNL     1      -4.041  12.822  19.376  0.00  0.00    +0.000 A 
ATOM     31  C   UNL     1      -3.896  11.765  18.481  0.00  0.00    +0.000 A 
ATOM     32  C   UNL     1      -2.787  10.914  18.564  0.00  0.00    +0.000 A 
ATOM     33  F   UNL     1      -2.712   9.904  17.685  0.00  0.00    +0.000 F 
ENDBRANCH  24  27
BRANCH  26  34
ATOM     34  N   UNL     1       2.027   8.046  21.190  0.00  0.00    +0.000 N 
ATOM     35  H   UNL     1       1.807   7.876  22.169  0.00  0.00    +0.000 HD
ATOM     36  H   UNL     1       3.025   8.048  20.974  0.00  0.00    +0.000 HD
ENDBRANCH  26  34
ENDBRANCH   2  22
TORSDOF 7
ENDMDL
MODEL 2
REMARK VINA RESULT:      -8.4      0.887      1.129
REMARK  Name = 
REMARK  8 active torsions:
REMARK  status: ('A' for Active; 'I' for Inactive)
REMARK    1  A    between atoms: C_1  and  C_2
REMARK    2  A    between atoms: C_2  and  N_3
REMARK    3  A    between atoms: C_6  and  N_7
REMARK    4  A    between atoms: C_8  and  C_10
REMARK    5  A    between atoms: C_12  and  C_13
REMARK    6  A    between atoms: C_21  and  N_22
REMARK    7  A    between atoms: C_23  and  N_24
REMARK    8  A    between atoms: C_28  and  N_29
REMARK                            x       y       z     vdW  Elec       q    Type
REMARK                         _______ _______ _______ _____ _____    ______ ____
ROOT
ATOM      1  N   UNL     1       2.478   7.522  18.191  0.00  0.00    +0.000 N 
ATOM      2  C   UNL     1       2.284   8.888  18.058  0.00  0.00    +0.000 C 
ATOM      3  O   UNL     1       3.048   9.634  17.444  0.00  0.00    +0.000 OA
ATOM      4  H   UNL     1       1.668   6.973  18.449  0.00  0.00    +0.000 HD
ENDROOT
BRANCH   1   8
ATOM      5  N   UNL     1       5.056   5.420  16.906  0.00  0.00    +0.000 N 
ATOM      6  N   UNL     1       5.447   6.587  16.347  0.00  0.00    +0.000 NA
ATOM      7  C   UNL     1       4.494   7.445  16.699  0.00  0.00    +0.000 A 
ATOM      8  C   UNL     1       3.546   6.878  17.577  0.00  0.00    +0.000 A 
ATOM      9  C   UNL     1       3.929   5.541  17.728  0.00  0.00    +0.000 A 
BRANCH   9  10
ATOM     10  N   UNL     1       3.319   4.491  18.393  0.00  0.00    +0.000 N 
ATOM     11  C   UNL     1       2.448   3.522  17.722  0.00  0.00    +0.000 C 
ATOM     12  C   UNL     1       1.032   3.513  18.320  0.00  0.00    +0.000 C 
ATOM     13  C   UNL     1       0.974   2.775  19.657  0.00  0.00    +0.000 C 
ATOM     14  C   UNL     1       1.336   3.630  20.883  0.00  0.00    +0.000 C 
ATOM     15  C   UNL     1       2.436   4.677  20.682  0.00  0.00    +0.000 C 
ATOM     16  C   UNL     1       3.599   4.218  19.811  0.00  0.00    +0.000 C 
BRANCH  14  17
ATOM     17  N   UNL     1       1.686   2.736  21.995  0.00  0.00    +0.000 NA
ATOM     18  H   UNL     1       2.565   3.029  22.421  0.00  0.00    +0.000 HD
ATOM     19  H   UNL     1       1.850   1.794  21.637  0.00  0.00    +0.000 HD
ENDBRANCH  14  17
ENDBRANCH   9  10
BRANCH   5  21
ATOM     20  C   UNL     1       6.047   4.007  15.052  0.00  0.00    +0.000 C 
ATOM     21  C   UNL     1       5.795   4.223  16.540  0.00  0.00    +0.000 C 
ENDBRANCH   5  21
ENDBRANCH   1   8
BRANCH   2  22
ATOM     22  C   UNL     1       1.014   9.369  18.636  0.00  0.00    +0.000 A 
ATOM     23  N   UNL     1      -0.052   9.825  17.833  0.00  0.00    +0.000 NA
ATOM     24  C   UNL     1      -1.089  10.161  18.583  0.00  0.00    +0.000 A 
ATOM     25  S   UNL     1      -0.840   9.938  20.275  0.00  0.00    +0.000 S 
ATOM     26  C   UNL     1       0.773   9.458  20.002  0.00  0.00    +0.000 A 
BRANCH  24  27
ATOM     27  C   UNL     1      -2.382  10.700  18.107  0.00  0.00    +0.000 A 
ATOM     28  C   UNL     1      -3.144  11.603  18.879  0.00  0.00    +0.000 A 
ATOM     29  C   UNL     1      -4.358  12.123  18.415  0.00  0.00    +0.000 A 
ATOM     30  C   UNL     1      -4.840  11.757  17.164  0.00  0.00    +0.000 A 
ATOM     31  C   UNL     1      -4.110  10.860  16.387  0.00  0.00    +0.000 A 
ATOM     32  C   UNL     1      -2.896  10.343  16.856  0.00  0.00    +0.000 A 
ATOM     33  F   UNL     1      -2.249   9.470  16.069  0.00  0.00    +0.000 F 
ENDBRANCH  24  27
BRANCH  26  34
ATOM     34  N   UNL     1       1.591   9.226  21.053  0.00  0.00    +0.000 N 
ATOM     35  H   UNL     1       1.220   9.219  22.000  0.00  0.00    +0.000 HD
ATOM     36  H   UNL     1       2.580   9.470  20.986  0.00  0.00    +0.000 HD
ENDBRANCH  26  34
ENDBRANCH   2  22
TORSDOF 7
ENDMDL
MODEL 3
REMARK VINA RESULT:      -8.3      0.805      1.064
REMARK  Name = 
REMARK  8 active torsions:
REMARK  status: ('A' for Active; 'I' for Inactive)
REMARK    1  A    between atoms: C_1  and  C_2
REMARK    2  A    between atoms: C_2  and  N_3
REMARK    3  A    between atoms: C_6  and  N_7
REMARK    4  A    between atoms: C_8  and  C_10
REMARK    5  A    between atoms: C_12  and  C_13
REMARK    6  A    between atoms: C_21  and  N_22
REMARK    7  A    between atoms: C_23  and  N_24
REMARK    8  A    between atoms: C_28  and  N_29
REMARK                            x       y       z     vdW  Elec       q    Type
REMARK                         _______ _______ _______ _____ _____    ______ ____
ROOT
ATOM      1  N   UNL     1       3.119   7.385  18.680  0.00  0.00    +0.000 N 
ATOM      2  C   UNL     1       2.293   8.435  18.311  0.00  0.00    +0.000 C 
ATOM      3  O   UNL     1       2.208   8.872  17.163  0.00  0.00    +0.000 OA
ATOM      4  H   UNL     1       2.901   6.922  19.554  0.00  0.00    +0.000 HD
ENDROOT
BRANCH   1   8
ATOM      5  N   UNL     1       4.903   5.167  16.533  0.00  0.00    +0.000 N 
ATOM      6  N   UNL     1       5.386   6.337  16.063  0.00  0.00    +0.000 NA
ATOM      7  C   UNL     1       4.716   7.259  16.749  0.00  0.00    +0.000 A 
ATOM      8  C   UNL     1       3.885   6.700  17.744  0.00  0.00    +0.000 A 
ATOM      9  C   UNL     1       4.023   5.314  17.611  0.00  0.00    +0.000 A 
BRANCH   9  10
ATOM     10  N   UNL     1       3.376   4.272  18.253  0.00  0.00    +0.000 N 
ATOM     11  C   UNL     1       2.327   3.474  17.616  0.00  0.00    +0.000 C 
ATOM     12  C   UNL     1       0.998   3.552  18.385  0.00  0.00    +0.000 C 
ATOM     13  C   UNL     1       1.010   2.692  19.648  0.00  0.00    +0.000 C 
ATOM     14  C   UNL     1       1.609   3.375  20.889  0.00  0.00    +0.000 C 
ATOM     15  C   UNL     1       2.793   4.316  20.643  0.00  0.00    +0.000 C 
ATOM     16  C   UNL     1       3.785   3.828  19.595  0.00  0.00    +0.000 C 
BRANCH  14  17
ATOM     17  N   UNL     1       1.980   2.340  21.864  0.00  0.00    +0.000 NA
ATOM     18  H   UNL     1       2.047   2.743  22.798  0.00  0.00    +0.000 HD
ATOM     19  H   UNL     1       2.911   1.984  21.646  0.00  0.00    +0.000 HD
ENDBRANCH  14  17
ENDBRANCH   9  10
BRANCH   5  21
ATOM     20  C   UNL     1       5.971   4.134  14.481  0.00  0.00    +0.000 C 
ATOM     21  C   UNL     1       5.299   3.953  15.838  0.00  0.00    +0.000 C 
ENDBRANCH   5  21
ENDBRANCH   1   8
BRANCH   2  22
ATOM     22  C   UNL     1       1.434   8.930  19.405  0.00  0.00    +0.000 A 
ATOM     23  N   UNL     1       0.733  10.151  19.316  0.00  0.00    +0.000 NA
ATOM     24  C   UNL     1       0.005  10.349  20.403  0.00  0.00    +0.000 A 
ATOM     25  S   UNL     1       0.117   9.085  21.570  0.00  0.00    +0.000 S 
ATOM     26  C   UNL     1       1.275   8.272  20.619  0.00  0.00    +0.000 A 
BRANCH  24  27
ATOM     27  C   UNL     1      -0.849  11.523  20.687  0.00  0.00    +0.000 A 
ATOM     28  C   UNL     1      -0.604  12.376  21.785  0.00  0.00    +0.000 A 
ATOM     29  C   UNL     1      -1.406  13.496  22.037  0.00  0.00    +0.000 A 
ATOM     30  C   UNL     1      -2.471  13.794  21.197  0.00  0.00    +0.000 A 
ATOM     31  C   UNL     1      -2.739  12.962  20.112  0.00  0.00    +0.000 A 
ATOM     32  C   UNL     1      -1.934  11.843  19.864  0.00  0.00    +0.000 A 
ATOM     33  F   UNL     1      -2.253  11.071  18.814  0.00  0.00    +0.000 F 
ENDBRANCH  24  27
BRANCH  26  34
ATOM     34  N   UNL     1       1.874   7.158  21.096  0.00  0.00    +0.000 N 
ATOM     35  H   UNL     1       2.857   6.983  20.907  0.00  0.00    +0.000 HD
ATOM     36  H   UNL     1       1.317   6.318  21.264  0.00  0.00    +0.000 HD
ENDBRANCH  26  34
ENDBRANCH   2  22
TORSDOF 7
ENDMDL
MODEL 4
REMARK VINA RESULT:      -8.3      1.175      1.510
REMARK  Name = 
REMARK  8 active torsions:
REMARK  status: ('A' for Active; 'I' for Inactive)
REMARK    1  A    between atoms: C_1  and  C_2
REMARK    2  A    between atoms: C_2  and  N_3
REMARK    3  A    between atoms: C_6  and  N_7
REMARK    4  A    between atoms: C_8  and  C_10
REMARK    5  A    between atoms: C_12  and  C_13
REMARK    6  A    between atoms: C_21  and  N_22
REMARK    7  A    between atoms: C_23  and  N_24
REMARK    8  A    between atoms: C_28  and  N_29
REMARK                            x       y       z     vdW  Elec       q    Type
REMARK                         _______ _______ _______ _____ _____    ______ ____
ROOT
ATOM      1  N   UNL     1       2.958   7.401  18.695  0.00  0.00    +0.000 N 
ATOM      2  C   UNL     1       2.221   8.504  18.292  0.00  0.00    +0.000 C 
ATOM      3  O   UNL     1       2.259   8.979  17.157  0.00  0.00    +0.000 OA
ATOM      4  H   UNL     1       2.641   6.925  19.531  0.00  0.00    +0.000 HD
ENDROOT
BRANCH   1   8
ATOM      5  N   UNL     1       4.853   5.159  16.672  0.00  0.00    +0.000 N 
ATOM      6  N   UNL     1       5.335   6.325  16.189  0.00  0.00    +0.000 NA
ATOM      7  C   UNL     1       4.626   7.253  16.827  0.00  0.00    +0.000 A 
ATOM      8  C   UNL     1       3.768   6.706  17.805  0.00  0.00    +0.000 A 
ATOM      9  C   UNL     1       3.933   5.319  17.714  0.00  0.00    +0.000 A 
BRANCH   9  10
ATOM     10  N   UNL     1       3.278   4.284  18.359  0.00  0.00    +0.000 N 
ATOM     11  C   UNL     1       2.254   3.462  17.710  0.00  0.00    +0.000 C 
ATOM     12  C   UNL     1       0.905   3.542  18.442  0.00  0.00    +0.000 C 
ATOM     13  C   UNL     1       0.891   2.707  19.722  0.00  0.00    +0.000 C 
ATOM     14  C   UNL     1       1.451   3.420  20.965  0.00  0.00    +0.000 C 
ATOM     15  C   UNL     1       2.632   4.368  20.731  0.00  0.00    +0.000 C 
ATOM     16  C   UNL     1       3.656   3.871  19.720  0.00  0.00    +0.000 C 
BRANCH  14  17
ATOM     17  N   UNL     1       1.805   2.409  21.970  0.00  0.00    +0.000 NA
ATOM     18  H   UNL     1       2.178   1.576  21.517  0.00  0.00    +0.000 HD
ATOM     19  H   UNL     1       0.963   2.107  22.460  0.00  0.00    +0.000 HD
ENDBRANCH  14  17
ENDBRANCH   9  10
BRANCH   5  21
ATOM     20  C   UNL     1       5.908   4.082  14.636  0.00  0.00    +0.000 C 
ATOM     21  C   UNL     1       5.293   3.934  16.024  0.00  0.00    +0.000 C 
ENDBRANCH   5  21
ENDBRANCH   1   8
BRANCH   2  22
ATOM     22  C   UNL     1       1.295   9.011  19.324  0.00  0.00    +0.000 A 
ATOM     23  N   UNL     1       0.488  10.149  19.117  0.00  0.00    +0.000 NA
ATOM     24  C   UNL     1      -0.280  10.373  20.170  0.00  0.00    +0.000 A 
ATOM     25  S   UNL     1      -0.080   9.232  21.447  0.00  0.00    +0.000 S 
ATOM     26  C   UNL     1       1.170   8.450  20.590  0.00  0.00    +0.000 A 
BRANCH  24  27
ATOM     27  C   UNL     1      -1.245  11.482  20.335  0.00  0.00    +0.000 A 
ATOM     28  C   UNL     1      -2.374  11.620  19.499  0.00  0.00    +0.000 A 
ATOM     29  C   UNL     1      -3.293  12.661  19.673  0.00  0.00    +0.000 A 
ATOM     30  C   UNL     1      -3.111  13.590  20.690  0.00  0.00    +0.000 A 
ATOM     31  C   UNL     1      -1.999  13.481  21.523  0.00  0.00    +0.000 A 
ATOM     32  C   UNL     1      -1.083  12.437  21.345  0.00  0.00    +0.000 A 
ATOM     33  F   UNL     1      -0.024  12.395  22.167  0.00  0.00    +0.000 F 
ENDBRANCH  24  27
BRANCH  26  34
ATOM     34  N   UNL     1       1.856   7.444  21.174  0.00  0.00    +0.000 N 
ATOM     35  H   UNL     1       2.873   7.464  21.201  0.00  0.00    +0.000 HD
ATOM     36  H   UNL     1       1.449   6.508  21.209  0.00  0.00    +0.000 HD
ENDBRANCH  26  34
ENDBRANCH   2  22
TORSDOF 7
ENDMDL
MODEL 5
REMARK VINA RESULT:      -8.2      3.586      9.151
REMARK  Name = 
REMARK  8 active torsions:
REMARK  status: ('A' for Active; 'I' for Inactive)
REMARK    1  A    between atoms: C_1  and  C_2
REMARK    2  A    between atoms: C_2  and  N_3
REMARK    3  A    between atoms: C_6  and  N_7
REMARK    4  A    between atoms: C_8  and  C_10
REMARK    5  A    between atoms: C_12  and  C_13
REMARK    6  A    between atoms: C_21  and  N_22
REMARK    7  A    between atoms: C_23  and  N_24
REMARK    8  A    between atoms: C_28  and  N_29
REMARK                            x       y       z     vdW  Elec       q    Type
REMARK                         _______ _______ _______ _____ _____    ______ ____
ROOT
ATOM      1  N   UNL     1       1.252   9.045  18.218  0.00  0.00    +0.000 N 
ATOM      2  C   UNL     1       1.656   8.388  19.370  0.00  0.00    +0.000 C 
ATOM      3  O   UNL     1       1.272   8.686  20.501  0.00  0.00    +0.000 OA
ATOM      4  H   UNL     1       1.386   8.550  17.344  0.00  0.00    +0.000 HD
ENDROOT
BRANCH   1   8
ATOM      5  N   UNL     1      -0.739  11.983  18.555  0.00  0.00    +0.000 N 
ATOM      6  N   UNL     1      -1.695  11.139  18.108  0.00  0.00    +0.000 NA
ATOM      7  C   UNL     1      -1.037  10.009  17.865  0.00  0.00    +0.000 A 
ATOM      8  C   UNL     1       0.317  10.072  18.258  0.00  0.00    +0.000 A 
ATOM      9  C   UNL     1       0.508  11.375  18.731  0.00  0.00    +0.000 A 
BRANCH   9  10
ATOM     10  N   UNL     1       1.654  12.027  19.155  0.00  0.00    +0.000 N 
ATOM     11  C   UNL     1       1.964  12.256  20.568  0.00  0.00    +0.000 C 
ATOM     12  C   UNL     1       2.104  13.752  20.890  0.00  0.00    +0.000 C 
ATOM     13  C   UNL     1       3.438  14.324  20.412  0.00  0.00    +0.000 C 
ATOM     14  C   UNL     1       3.457  14.780  18.944  0.00  0.00    +0.000 C 
ATOM     15  C   UNL     1       2.636  13.940  17.960  0.00  0.00    +0.000 C 
ATOM     16  C   UNL     1       2.697  12.438  18.201  0.00  0.00    +0.000 C 
BRANCH  14  17
ATOM     17  N   UNL     1       4.853  14.865  18.493  0.00  0.00    +0.000 NA
ATOM     18  H   UNL     1       4.905  14.756  17.481  0.00  0.00    +0.000 HD
ATOM     19  H   UNL     1       5.385  14.088  18.886  0.00  0.00    +0.000 HD
ENDBRANCH  14  17
ENDBRANCH   9  10
BRANCH   5  21
ATOM     20  C   UNL     1      -1.499  13.812  20.133  0.00  0.00    +0.000 C 
ATOM     21  C   UNL     1      -1.106  13.379  18.725  0.00  0.00    +0.000 C 
ENDBRANCH   5  21
ENDBRANCH   1   8
BRANCH   2  22
ATOM     22  C   UNL     1       2.523   7.220  19.117  0.00  0.00    +0.000 A 
ATOM     23  N   UNL     1       3.354   7.132  17.981  0.00  0.00    +0.000 NA
ATOM     24  C   UNL     1       4.058   6.013  18.005  0.00  0.00    +0.000 A 
ATOM     25  S   UNL     1       3.767   5.023  19.387  0.00  0.00    +0.000 S 
ATOM     26  C   UNL     1       2.564   6.099  19.938  0.00  0.00    +0.000 A 
BRANCH  24  27
ATOM     27  C   UNL     1       5.024   5.558  16.981  0.00  0.00    +0.000 A 
ATOM     28  C   UNL     1       4.771   4.437  16.162  0.00  0.00    +0.000 A 
ATOM     29  C   UNL     1       5.681   4.023  15.182  0.00  0.00    +0.000 A 
ATOM     30  C   UNL     1       6.866   4.723  14.991  0.00  0.00    +0.000 A 
ATOM     31  C   UNL     1       7.143   5.828  15.793  0.00  0.00    +0.000 A 
ATOM     32  C   UNL     1       6.229   6.237  16.772  0.00  0.00    +0.000 A 
ATOM     33  F   UNL     1       6.561   7.298  17.525  0.00  0.00    +0.000 F 
ENDBRANCH  24  27
BRANCH  26  34
ATOM     34  N   UNL     1       1.831   5.784  21.029  0.00  0.00    +0.000 N 
ATOM     35  H   UNL     1       0.853   6.057  21.086  0.00  0.00    +0.000 HD
ATOM     36  H   UNL     1       2.294   5.671  21.932  0.00  0.00    +0.000 HD
ENDBRANCH  26  34
ENDBRANCH   2  22
TORSDOF 7
ENDMDL
MODEL 6
REMARK VINA RESULT:      -8.1      3.544      9.111
REMARK  Name = 
REMARK  8 active torsions:
REMARK  status: ('A' for Active; 'I' for Inactive)
REMARK    1  A    between atoms: C_1  and  C_2
REMARK    2  A    between atoms: C_2  and  N_3
REMARK    3  A    between atoms: C_6  and  N_7
REMARK    4  A    between atoms: C_8  and  C_10
REMARK    5  A    between atoms: C_12  and  C_13
REMARK    6  A    between atoms: C_21  and  N_22
REMARK    7  A    between atoms: C_23  and  N_24
REMARK    8  A    between atoms: C_28  and  N_29
REMARK                            x       y       z     vdW  Elec       q    Type
REMARK                         _______ _______ _______ _____ _____    ______ ____
ROOT
ATOM      1  N   UNL     1       1.250   9.086  18.267  0.00  0.00    +0.000 N 
ATOM      2  C   UNL     1       1.628   8.419  19.422  0.00  0.00    +0.000 C 
ATOM      3  O   UNL     1       1.223   8.709  20.548  0.00  0.00    +0.000 OA
ATOM      4  H   UNL     1       1.400   8.597  17.393  0.00  0.00    +0.000 HD
ENDROOT
BRANCH   1   8
ATOM      5  N   UNL     1      -0.728  12.036  18.573  0.00  0.00    +0.000 N 
ATOM      6  N   UNL     1      -1.687  11.192  18.135  0.00  0.00    +0.000 NA
ATOM      7  C   UNL     1      -1.034  10.057  17.904  0.00  0.00    +0.000 A 
ATOM      8  C   UNL     1       0.320  10.117  18.297  0.00  0.00    +0.000 A 
ATOM      9  C   UNL     1       0.517  11.425  18.757  0.00  0.00    +0.000 A 
BRANCH   9  10
ATOM     10  N   UNL     1       1.666  12.076  19.174  0.00  0.00    +0.000 N 
ATOM     11  C   UNL     1       1.984  12.303  20.585  0.00  0.00    +0.000 C 
ATOM     12  C   UNL     1       2.126  13.799  20.908  0.00  0.00    +0.000 C 
ATOM     13  C   UNL     1       3.458  14.371  20.423  0.00  0.00    +0.000 C 
ATOM     14  C   UNL     1       3.468  14.829  18.955  0.00  0.00    +0.000 C 
ATOM     15  C   UNL     1       2.641  13.990  17.975  0.00  0.00    +0.000 C 
ATOM     16  C   UNL     1       2.703  12.488  18.214  0.00  0.00    +0.000 C 
BRANCH  14  17
ATOM     17  N   UNL     1       4.861  14.914  18.496  0.00  0.00    +0.000 NA
ATOM     18  H   UNL     1       5.286  15.784  18.815  0.00  0.00    +0.000 HD
ATOM     19  H   UNL     1       4.882  14.950  17.477  0.00  0.00    +0.000 HD
ENDBRANCH  14  17
ENDBRANCH   9  10
BRANCH   5  21
ATOM     20  C   UNL     1      -1.468  13.888  20.135  0.00  0.00    +0.000 C 
ATOM     21  C   UNL     1      -1.089  13.436  18.729  0.00  0.00    +0.000 C 
ENDBRANCH   5  21
ENDBRANCH   1   8
BRANCH   2  22
ATOM     22  C   UNL     1       2.494   7.248  19.178  0.00  0.00    +0.000 A 
ATOM     23  N   UNL     1       3.339   7.159  18.052  0.00  0.00    +0.000 NA
ATOM     24  C   UNL     1       4.039   6.037  18.083  0.00  0.00    +0.000 A 
ATOM     25  S   UNL     1       3.727   5.046  19.459  0.00  0.00    +0.000 S 
ATOM     26  C   UNL     1       2.521   6.125  19.997  0.00  0.00    +0.000 A 
BRANCH  24  27
ATOM     27  C   UNL     1       5.015   5.581  17.069  0.00  0.00    +0.000 A 
ATOM     28  C   UNL     1       6.229   6.265  16.842  0.00  0.00    +0.000 A 
ATOM     29  C   UNL     1       7.157   5.818  15.894  0.00  0.00    +0.000 A 
ATOM     30  C   UNL     1       6.898   4.673  15.152  0.00  0.00    +0.000 A 
ATOM     31  C   UNL     1       5.703   3.985  15.351  0.00  0.00    +0.000 A 
ATOM     32  C   UNL     1       4.778   4.436  16.301  0.00  0.00    +0.000 A 
ATOM     33  F   UNL     1       3.638   3.742  16.435  0.00  0.00    +0.000 F 
ENDBRANCH  24  27
BRANCH  26  34
ATOM     34  N   UNL     1       1.774   5.811  21.079  0.00  0.00    +0.000 N 
ATOM     35  H   UNL     1       1.986   6.221  21.985  0.00  0.00    +0.000 HD
ATOM     36  H   UNL     1       1.303   4.906  21.122  0.00  0.00    +0.000 HD
ENDBRANCH  26  34
ENDBRANCH   2  22
TORSDOF 7
ENDMDL
MODEL 7
REMARK VINA RESULT:      -8.1      3.315      9.212
REMARK  Name = 
REMARK  8 active torsions:
REMARK  status: ('A' for Active; 'I' for Inactive)
REMARK    1  A    between atoms: C_1  and  C_2
REMARK    2  A    between atoms: C_2  and  N_3
REMARK    3  A    between atoms: C_6  and  N_7
REMARK    4  A    between atoms: C_8  and  C_10
REMARK    5  A    between atoms: C_12  and  C_13
REMARK    6  A    between atoms: C_21  and  N_22
REMARK    7  A    between atoms: C_23  and  N_24
REMARK    8  A    between atoms: C_28  and  N_29
REMARK                            x       y       z     vdW  Elec       q    Type
REMARK                         _______ _______ _______ _____ _____    ______ ____
ROOT
ATOM      1  N   UNL     1      -0.508  10.127  20.807  0.00  0.00    +0.000 N 
ATOM      2  C   UNL     1       0.763  10.348  20.300  0.00  0.00    +0.000 C 
ATOM      3  O   UNL     1       1.367  11.416  20.402  0.00  0.00    +0.000 OA
ATOM      4  H   UNL     1      -0.785   9.160  20.929  0.00  0.00    +0.000 HD
ENDROOT
BRANCH   1   8
ATOM      5  N   UNL     1      -2.446  12.787  22.177  0.00  0.00    +0.000 N 
ATOM      6  N   UNL     1      -1.780  12.425  23.295  0.00  0.00    +0.000 NA
ATOM      7  C   UNL     1      -1.071  11.365  22.915  0.00  0.00    +0.000 A 
ATOM      8  C   UNL     1      -1.180  11.103  21.532  0.00  0.00    +0.000 A 
ATOM      9  C   UNL     1      -2.078  12.058  21.041  0.00  0.00    +0.000 A 
BRANCH   9  10
ATOM     10  N   UNL     1      -2.631  12.220  19.782  0.00  0.00    +0.000 N 
ATOM     11  C   UNL     1      -4.061  12.444  19.563  0.00  0.00    +0.000 C 
ATOM     12  C   UNL     1      -4.687  11.348  18.686  0.00  0.00    +0.000 C 
ATOM     13  C   UNL     1      -4.342  11.524  17.208  0.00  0.00    +0.000 C 
ATOM     14  C   UNL     1      -3.000  10.907  16.780  0.00  0.00    +0.000 C 
ATOM     15  C   UNL     1      -1.861  10.979  17.802  0.00  0.00    +0.000 C 
ATOM     16  C   UNL     1      -1.786  12.287  18.579  0.00  0.00    +0.000 C 
BRANCH  14  17
ATOM     17  N   UNL     1      -2.581  11.521  15.512  0.00  0.00    +0.000 NA
ATOM     18  H   UNL     1      -3.267  12.213  15.211  0.00  0.00    +0.000 HD
ATOM     19  H   UNL     1      -2.561  10.810  14.780  0.00  0.00    +0.000 HD
ENDBRANCH  14  17
ENDBRANCH   9  10
BRANCH   5  21
ATOM     20  C   UNL     1      -4.717  13.426  23.102  0.00  0.00    +0.000 C 
ATOM     21  C   UNL     1      -3.471  13.810  22.312  0.00  0.00    +0.000 C 
ENDBRANCH   5  21
ENDBRANCH   1   8
BRANCH   2  22
ATOM     22  C   UNL     1       1.384   9.148  19.705  0.00  0.00    +0.000 A 
ATOM     23  N   UNL     1       1.470   7.924  20.398  0.00  0.00    +0.000 NA
ATOM     24  C   UNL     1       2.030   6.996  19.639  0.00  0.00    +0.000 A 
ATOM     25  S   UNL     1       2.468   7.543  18.063  0.00  0.00    +0.000 S 
ATOM     26  C   UNL     1       1.973   9.130  18.445  0.00  0.00    +0.000 A 
BRANCH  24  27
ATOM     27  C   UNL     1       2.307   5.595  20.021  0.00  0.00    +0.000 A 
ATOM     28  C   UNL     1       1.337   4.788  20.654  0.00  0.00    +0.000 A 
ATOM     29  C   UNL     1       1.600   3.457  20.997  0.00  0.00    +0.000 A 
ATOM     30  C   UNL     1       2.838   2.895  20.712  0.00  0.00    +0.000 A 
ATOM     31  C   UNL     1       3.816   3.673  20.097  0.00  0.00    +0.000 A 
ATOM     32  C   UNL     1       3.548   5.005  19.756  0.00  0.00    +0.000 A 
ATOM     33  F   UNL     1       4.535   5.708  19.181  0.00  0.00    +0.000 F 
ENDBRANCH  24  27
BRANCH  26  34
ATOM     34  N   UNL     1       2.181  10.129  17.560  0.00  0.00    +0.000 N 
ATOM     35  H   UNL     1       2.402  11.066  17.887  0.00  0.00    +0.000 HD
ATOM     36  H   UNL     1       1.731  10.094  16.644  0.00  0.00    +0.000 HD
ENDBRANCH  26  34
ENDBRANCH   2  22
TORSDOF 7
ENDMDL
MODEL 8
REMARK VINA RESULT:      -8.0      1.690      2.292
REMARK  Name = 
REMARK  8 active torsions:
REMARK  status: ('A' for Active; 'I' for Inactive)
REMARK    1  A    between atoms: C_1  and  C_2
REMARK    2  A    between atoms: C_2  and  N_3
REMARK    3  A    between atoms: C_6  and  N_7
REMARK    4  A    between atoms: C_8  and  C_10
REMARK    5  A    between atoms: C_12  and  C_13
REMARK    6  A    between atoms: C_21  and  N_22
REMARK    7  A    between atoms: C_23  and  N_24
REMARK    8  A    between atoms: C_28  and  N_29
REMARK                            x       y       z     vdW  Elec       q    Type
REMARK                         _______ _______ _______ _____ _____    ______ ____
ROOT
ATOM      1  N   UNL     1       1.903   8.438  18.092  0.00  0.00    +0.000 N 
ATOM      2  C   UNL     1       1.545   8.829  19.373  0.00  0.00    +0.000 C 
ATOM      3  O   UNL     1       2.130   8.462  20.393  0.00  0.00    +0.000 OA
ATOM      4  H   UNL     1       1.560   9.011  17.331  0.00  0.00    +0.000 HD
ENDROOT
BRANCH   1   8
ATOM      5  N   UNL     1       4.448   5.963  17.758  0.00  0.00    +0.000 N 
ATOM      6  N   UNL     1       5.133   7.025  17.281  0.00  0.00    +0.000 NA
ATOM      7  C   UNL     1       4.239   8.010  17.283  0.00  0.00    +0.000 A 
ATOM      8  C   UNL     1       3.010   7.629  17.864  0.00  0.00    +0.000 A 
ATOM      9  C   UNL     1       3.156   6.277  18.195  0.00  0.00    +0.000 A 
BRANCH   9  10
ATOM     10  N   UNL     1       2.247   5.364  18.701  0.00  0.00    +0.000 N 
ATOM     11  C   UNL     1       1.910   5.282  20.124  0.00  0.00    +0.000 C 
ATOM     12  C   UNL     1       2.228   3.897  20.710  0.00  0.00    +0.000 C 
ATOM     13  C   UNL     1       1.190   2.848  20.311  0.00  0.00    +0.000 C 
ATOM     14  C   UNL     1       1.441   2.176  18.950  0.00  0.00    +0.000 C 
ATOM     15  C   UNL     1       2.030   3.066  17.851  0.00  0.00    +0.000 C 
ATOM     16  C   UNL     1       1.473   4.483  17.812  0.00  0.00    +0.000 C 
BRANCH  14  17
ATOM     17  N   UNL     1       0.187   1.565  18.488  0.00  0.00    +0.000 NA
ATOM     18  H   UNL     1       0.162   1.537  17.469  0.00  0.00    +0.000 HD
ATOM     19  H   UNL     1      -0.601   2.148  18.771  0.00  0.00    +0.000 HD
ENDBRANCH  14  17
ENDBRANCH   9  10
BRANCH   5  21
ATOM     20  C   UNL     1       5.302   4.070  16.307  0.00  0.00    +0.000 C 
ATOM     21  C   UNL     1       5.099   4.665  17.697  0.00  0.00    +0.000 C 
ENDBRANCH   5  21
ENDBRANCH   1   8
BRANCH   2  22
ATOM     22  C   UNL     1       0.448   9.817  19.409  0.00  0.00    +0.000 A 
ATOM     23  N   UNL     1      -0.639   9.767  18.512  0.00  0.00    +0.000 NA
ATOM     24  C   UNL     1      -1.504  10.733  18.775  0.00  0.00    +0.000 A 
ATOM     25  S   UNL     1      -1.062  11.735  20.107  0.00  0.00    +0.000 S 
ATOM     26  C   UNL     1       0.412  10.896  20.285  0.00  0.00    +0.000 A 
BRANCH  24  27
ATOM     27  C   UNL     1      -2.757  11.016  18.041  0.00  0.00    +0.000 A 
ATOM     28  C   UNL     1      -3.851  11.663  18.655  0.00  0.00    +0.000 A 
ATOM     29  C   UNL     1      -5.027  11.943  17.950  0.00  0.00    +0.000 A 
ATOM     30  C   UNL     1      -5.139  11.589  16.611  0.00  0.00    +0.000 A 
ATOM     31  C   UNL     1      -4.076  10.941  15.985  0.00  0.00    +0.000 A 
ATOM     32  C   UNL     1      -2.901  10.662  16.695  0.00  0.00    +0.000 A 
ATOM     33  F   UNL     1      -1.920  10.021  16.043  0.00  0.00    +0.000 F 
ENDBRANCH  24  27
BRANCH  26  34
ATOM     34  N   UNL     1       1.322  11.323  21.188  0.00  0.00    +0.000 N 
ATOM     35  H   UNL     1       1.177  12.196  21.689  0.00  0.00    +0.000 HD
ATOM     36  H   UNL     1       2.301  11.050  21.086  0.00  0.00    +0.000 HD
ENDBRANCH  26  34
ENDBRANCH   2  22
TORSDOF 7
ENDMDL
MODEL 9
REMARK VINA RESULT:      -8.0      3.237      8.892
REMARK  Name = 
REMARK  8 active torsions:
REMARK  status: ('A' for Active; 'I' for Inactive)
REMARK    1  A    between atoms: C_1  and  C_2
REMARK    2  A    between atoms: C_2  and  N_3
REMARK    3  A    between atoms: C_6  and  N_7
REMARK    4  A    between atoms: C_8  and  C_10
REMARK    5  A    between atoms: C_12  and  C_13
REMARK    6  A    between atoms: C_21  and  N_22
REMARK    7  A    between atoms: C_23  and  N_24
REMARK    8  A    between atoms: C_28  and  N_29
REMARK                            x       y       z     vdW  Elec       q    Type
REMARK                         _______ _______ _______ _____ _____    ______ ____
ROOT
ATOM      1  N   UNL     1       1.529   8.184  21.337  0.00  0.00    +0.000 N 
ATOM      2  C   UNL     1       0.961   6.981  20.948  0.00  0.00    +0.000 C 
ATOM      3  O   UNL     1      -0.211   6.673  21.166  0.00  0.00    +0.000 OA
ATOM      4  H   UNL     1       2.383   8.456  20.865  0.00  0.00    +0.000 HD
ENDROOT
BRANCH   1   8
ATOM      5  N   UNL     1      -0.407  10.963  22.452  0.00  0.00    +0.000 N 
ATOM      6  N   UNL     1      -0.213  10.358  23.645  0.00  0.00    +0.000 NA
ATOM      7  C   UNL     1       0.443   9.243  23.335  0.00  0.00    +0.000 A 
ATOM      8  C   UNL     1       0.780   9.170  21.966  0.00  0.00    +0.000 A 
ATOM      9  C   UNL     1       0.232  10.319  21.386  0.00  0.00    +0.000 A 
BRANCH   9  10
ATOM     10  N   UNL     1       0.167  10.725  20.063  0.00  0.00    +0.000 N 
ATOM     11  C   UNL     1       1.084  11.711  19.487  0.00  0.00    +0.000 C 
ATOM     12  C   UNL     1       0.337  12.937  18.937  0.00  0.00    +0.000 C 
ATOM     13  C   UNL     1      -0.338  12.649  17.597  0.00  0.00    +0.000 C 
ATOM     14  C   UNL     1      -1.736  12.017  17.700  0.00  0.00    +0.000 C 
ATOM     15  C   UNL     1      -1.950  11.023  18.847  0.00  0.00    +0.000 C 
ATOM     16  C   UNL     1      -0.770  10.099  19.117  0.00  0.00    +0.000 C 
BRANCH  14  17
ATOM     17  N   UNL     1      -2.064  11.385  16.415  0.00  0.00    +0.000 NA
ATOM     18  H   UNL     1      -2.521  12.055  15.798  0.00  0.00    +0.000 HD
ATOM     19  H   UNL     1      -2.743  10.638  16.567  0.00  0.00    +0.000 HD
ENDBRANCH  14  17
ENDBRANCH   9  10
BRANCH   5  21
ATOM     20  C   UNL     1      -2.568  12.029  23.231  0.00  0.00    +0.000 C 
ATOM     21  C   UNL     1      -1.277  12.127  22.426  0.00  0.00    +0.000 C 
ENDBRANCH   5  21
ENDBRANCH   1   8
BRANCH   2  22
ATOM     22  C   UNL     1       1.862   6.127  20.149  0.00  0.00    +0.000 A 
ATOM     23  N   UNL     1       2.962   6.652  19.439  0.00  0.00    +0.000 NA
ATOM     24  C   UNL     1       3.634   5.683  18.839  0.00  0.00    +0.000 A 
ATOM     25  S   UNL     1       2.988   4.106  19.103  0.00  0.00    +0.000 S 
ATOM     26  C   UNL     1       1.684   4.758  19.987  0.00  0.00    +0.000 A 
BRANCH  24  27
ATOM     27  C   UNL     1       4.834   5.841  17.988  0.00  0.00    +0.000 A 
ATOM     28  C   UNL     1       4.738   6.078  16.600  0.00  0.00    +0.000 A 
ATOM     29  C   UNL     1       5.878   6.244  15.804  0.00  0.00    +0.000 A 
ATOM     30  C   UNL     1       7.143   6.182  16.376  0.00  0.00    +0.000 A 
ATOM     31  C   UNL     1       7.263   5.940  17.743  0.00  0.00    +0.000 A 
ATOM     32  C   UNL     1       6.120   5.774  18.535  0.00  0.00    +0.000 A 
ATOM     33  F   UNL     1       6.301   5.526  19.840  0.00  0.00    +0.000 F 
ENDBRANCH  24  27
BRANCH  26  34
ATOM     34  N   UNL     1       0.690   3.947  20.413  0.00  0.00    +0.000 N 
ATOM     35  H   UNL     1      -0.108   3.755  19.813  0.00  0.00    +0.000 HD
ATOM     36  H   UNL     1       0.499   3.864  21.413  0.00  0.00    +0.000 HD
ENDBRANCH  26  34
ENDBRANCH   2  22
TORSDOF 7
ENDMDL
