MODEL 1
REMARK VINA RESULT:      -7.9      0.000      0.000
REMARK  Name = 
REMARK  3 active torsions:
REMARK  status: ('A' for Active; 'I' for Inactive)
REMARK    1  A    between atoms: C_1  and  C_2
REMARK    2  A    between atoms: C_2  and  C_3
REMARK    3  A    between atoms: C_9  and  O_10
REMARK                            x       y       z     vdW  Elec       q    Type
REMARK                         _______ _______ _______ _____ _____    ______ ____
ROOT
ATOM      1  C   UNL     1       7.471   4.508  16.949  0.00  0.00    +0.000 C 
ATOM      2  C   UNL     1       6.335   4.818  15.963  0.00  0.00    +0.000 C 
ATOM      3  C   UNL     1       6.884   4.813  14.531  0.00  0.00    +0.000 C 
ATOM      4  C   UNL     1       5.735   6.172  16.273  0.00  0.00    +0.000 C 
ATOM      5  C   UNL     1       4.634   6.303  17.020  0.00  0.00    +0.000 C 
ATOM      6  C   UNL     1       4.020   5.084  17.535  0.00  0.00    +0.000 A 
ATOM      7  C   UNL     1       4.404   3.853  16.990  0.00  0.00    +0.000 A 
ATOM      8  C   UNL     1       3.798   2.665  17.401  0.00  0.00    +0.000 A 
ATOM      9  C   UNL     1       2.834   2.698  18.410  0.00  0.00    +0.000 A 
ATOM     10  C   UNL     1       2.457   3.910  19.001  0.00  0.00    +0.000 A 
ATOM     11  C   UNL     1       1.480   3.992  20.079  0.00  0.00    +0.000 A 
ATOM     12  C   UNL     1       1.209   5.168  20.653  0.00  0.00    +0.000 A 
ATOM     13  C   UNL     1       1.858   6.417  20.225  0.00  0.00    +0.000 A 
ATOM     14  O   UNL     1       1.628   7.475  20.798  0.00  0.00    +0.000 OA
ATOM     15  O   UNL     1       2.723   6.329  19.146  0.00  0.00    +0.000 OA
ATOM     16  C   UNL     1       3.055   5.088  18.549  0.00  0.00    +0.000 A 
ATOM     17  O   UNL     1       5.373   3.739  16.024  0.00  0.00    +0.000 OA
ENDROOT
BRANCH   9  18
ATOM     18  O   UNL     1       2.258   1.533  18.839  0.00  0.00    +0.000 OA
ATOM     19  H   UNL     1       2.495   1.386  19.770  0.00  0.00    +0.000 HD
ENDBRANCH   9  18
TORSDOF 1
ENDMDL
MODEL 2
REMARK VINA RESULT:      -7.8      1.746      5.761
REMARK  Name = 
REMARK  3 active torsions:
REMARK  status: ('A' for Active; 'I' for Inactive)
REMARK    1  A    between atoms: C_1  and  C_2
REMARK    2  A    between atoms: C_2  and  C_3
REMARK    3  A    between atoms: C_9  and  O_10
REMARK                            x       y       z     vdW  Elec       q    Type
REMARK                         _______ _______ _______ _____ _____    ______ ____
ROOT
ATOM      1  C   UNL     1       2.738   2.213  20.091  0.00  0.00    +0.000 C 
ATOM      2  C   UNL     1       2.179   3.552  19.584  0.00  0.00    +0.000 C 
ATOM      3  C   UNL     1       0.933   3.926  20.394  0.00  0.00    +0.000 C 
ATOM      4  C   UNL     1       1.820   3.442  18.119  0.00  0.00    +0.000 C 
ATOM      5  C   UNL     1       2.656   3.839  17.154  0.00  0.00    +0.000 C 
ATOM      6  C   UNL     1       3.944   4.390  17.562  0.00  0.00    +0.000 A 
ATOM      7  C   UNL     1       4.125   4.761  18.899  0.00  0.00    +0.000 A 
ATOM      8  C   UNL     1       5.315   5.354  19.325  0.00  0.00    +0.000 A 
ATOM      9  C   UNL     1       6.359   5.529  18.416  0.00  0.00    +0.000 A 
ATOM     10  C   UNL     1       6.222   5.131  17.081  0.00  0.00    +0.000 A 
ATOM     11  C   UNL     1       7.295   5.262  16.104  0.00  0.00    +0.000 A 
ATOM     12  C   UNL     1       7.131   4.803  14.860  0.00  0.00    +0.000 A 
ATOM     13  C   UNL     1       5.880   4.168  14.417  0.00  0.00    +0.000 A 
ATOM     14  O   UNL     1       5.771   3.712  13.285  0.00  0.00    +0.000 OA
ATOM     15  O   UNL     1       4.845   4.126  15.339  0.00  0.00    +0.000 OA
ATOM     16  C   UNL     1       5.010   4.570  16.673  0.00  0.00    +0.000 A 
ATOM     17  O   UNL     1       3.158   4.584  19.857  0.00  0.00    +0.000 OA
ENDROOT
BRANCH   9  18
ATOM     18  O   UNL     1       7.540   6.082  18.835  0.00  0.00    +0.000 OA
ATOM     19  H   UNL     1       8.062   6.340  18.057  0.00  0.00    +0.000 HD
ENDBRANCH   9  18
TORSDOF 1
ENDMDL
MODEL 3
REMARK VINA RESULT:      -7.7      1.784      5.518
REMARK  Name = 
REMARK  3 active torsions:
REMARK  status: ('A' for Active; 'I' for Inactive)
REMARK    1  A    between atoms: C_1  and  C_2
REMARK    2  A    between atoms: C_2  and  C_3
REMARK    3  A    between atoms: C_9  and  O_10
REMARK                            x       y       z     vdW  Elec       q    Type
REMARK                         _______ _______ _______ _____ _____    ______ ____
ROOT
ATOM      1  C   UNL     1       1.770   2.907  20.743  0.00  0.00    +0.000 C 
ATOM      2  C   UNL     1       1.544   2.721  19.235  0.00  0.00    +0.000 C 
ATOM      3  C   UNL     1       0.235   1.958  19.003  0.00  0.00    +0.000 C 
ATOM      4  C   UNL     1       2.697   1.951  18.629  0.00  0.00    +0.000 C 
ATOM      5  C   UNL     1       3.723   2.567  18.032  0.00  0.00    +0.000 C 
ATOM      6  C   UNL     1       3.697   4.025  17.982  0.00  0.00    +0.000 A 
ATOM      7  C   UNL     1       2.498   4.689  18.267  0.00  0.00    +0.000 A 
ATOM      8  C   UNL     1       2.405   6.078  18.168  0.00  0.00    +0.000 A 
ATOM      9  C   UNL     1       3.538   6.821  17.833  0.00  0.00    +0.000 A 
ATOM     10  C   UNL     1       4.762   6.188  17.581  0.00  0.00    +0.000 A 
ATOM     11  C   UNL     1       5.979   6.922  17.261  0.00  0.00    +0.000 A 
ATOM     12  C   UNL     1       7.133   6.270  17.097  0.00  0.00    +0.000 A 
ATOM     13  C   UNL     1       7.231   4.807  17.214  0.00  0.00    +0.000 A 
ATOM     14  O   UNL     1       8.310   4.236  17.106  0.00  0.00    +0.000 OA
ATOM     15  O   UNL     1       6.047   4.122  17.439  0.00  0.00    +0.000 OA
ATOM     16  C   UNL     1       4.820   4.794  17.655  0.00  0.00    +0.000 A 
ATOM     17  O   UNL     1       1.355   4.028  18.640  0.00  0.00    +0.000 OA
ENDROOT
BRANCH   9  18
ATOM     18  O   UNL     1       3.461   8.186  17.764  0.00  0.00    +0.000 OA
ATOM     19  H   UNL     1       3.835   8.566  18.576  0.00  0.00    +0.000 HD
ENDBRANCH   9  18
TORSDOF 1
ENDMDL
MODEL 4
REMARK VINA RESULT:      -7.3      2.494      5.345
REMARK  Name = 
REMARK  3 active torsions:
REMARK  status: ('A' for Active; 'I' for Inactive)
REMARK    1  A    between atoms: C_1  and  C_2
REMARK    2  A    between atoms: C_2  and  C_3
REMARK    3  A    between atoms: C_9  and  O_10
REMARK                            x       y       z     vdW  Elec       q    Type
REMARK                         _______ _______ _______ _____ _____    ______ ____
ROOT
ATOM      1  C   UNL     1       1.037   4.461  19.973  0.00  0.00    +0.000 C 
ATOM      2  C   UNL     1       1.746   3.333  19.208  0.00  0.00    +0.000 C 
ATOM      3  C   UNL     1       0.744   2.214  18.901  0.00  0.00    +0.000 C 
ATOM      4  C   UNL     1       2.886   2.783  20.036  0.00  0.00    +0.000 C 
ATOM      5  C   UNL     1       4.146   3.197  19.867  0.00  0.00    +0.000 C 
ATOM      6  C   UNL     1       4.392   4.212  18.847  0.00  0.00    +0.000 A 
ATOM      7  C   UNL     1       3.393   4.474  17.903  0.00  0.00    +0.000 A 
ATOM      8  C   UNL     1       3.604   5.386  16.868  0.00  0.00    +0.000 A 
ATOM      9  C   UNL     1       4.810   6.088  16.805  0.00  0.00    +0.000 A 
ATOM     10  C   UNL     1       5.813   5.876  17.759  0.00  0.00    +0.000 A 
ATOM     11  C   UNL     1       7.073   6.607  17.755  0.00  0.00    +0.000 A 
ATOM     12  C   UNL     1       7.966   6.412  18.729  0.00  0.00    +0.000 A 
ATOM     13  C   UNL     1       7.735   5.458  19.826  0.00  0.00    +0.000 A 
ATOM     14  O   UNL     1       8.549   5.332  20.733  0.00  0.00    +0.000 OA
ATOM     15  O   UNL     1       6.566   4.716  19.766  0.00  0.00    +0.000 OA
ATOM     16  C   UNL     1       5.588   4.933  18.766  0.00  0.00    +0.000 A 
ATOM     17  O   UNL     1       2.169   3.853  17.924  0.00  0.00    +0.000 OA
ENDROOT
BRANCH   9  18
ATOM     18  O   UNL     1       5.011   7.006  15.810  0.00  0.00    +0.000 OA
ATOM     19  H   UNL     1       4.687   7.873  16.108  0.00  0.00    +0.000 HD
ENDBRANCH   9  18
TORSDOF 1
ENDMDL
MODEL 5
REMARK VINA RESULT:      -7.3      2.680      5.138
REMARK  Name = 
REMARK  3 active torsions:
REMARK  status: ('A' for Active; 'I' for Inactive)
REMARK    1  A    between atoms: C_1  and  C_2
REMARK    2  A    between atoms: C_2  and  C_3
REMARK    3  A    between atoms: C_9  and  O_10
REMARK                            x       y       z     vdW  Elec       q    Type
REMARK                         _______ _______ _______ _____ _____    ______ ____
ROOT
ATOM      1  C   UNL     1       1.450   4.050  17.903  0.00  0.00    +0.000 C 
ATOM      2  C   UNL     1       2.753   4.523  18.564  0.00  0.00    +0.000 C 
ATOM      3  C   UNL     1       3.877   3.530  18.247  0.00  0.00    +0.000 C 
ATOM      4  C   UNL     1       2.569   4.622  20.062  0.00  0.00    +0.000 C 
ATOM      5  C   UNL     1       2.271   5.778  20.663  0.00  0.00    +0.000 C 
ATOM      6  C   UNL     1       2.125   6.960  19.818  0.00  0.00    +0.000 A 
ATOM      7  C   UNL     1       2.596   6.908  18.501  0.00  0.00    +0.000 A 
ATOM      8  C   UNL     1       2.541   8.032  17.674  0.00  0.00    +0.000 A 
ATOM      9  C   UNL     1       1.960   9.207  18.150  0.00  0.00    +0.000 A 
ATOM     10  C   UNL     1       1.444   9.277  19.450  0.00  0.00    +0.000 A 
ATOM     11  C   UNL     1       0.798  10.471  19.981  0.00  0.00    +0.000 A 
ATOM     12  C   UNL     1       0.264  10.458  21.205  0.00  0.00    +0.000 A 
ATOM     13  C   UNL     1       0.313   9.269  22.070  0.00  0.00    +0.000 A 
ATOM     14  O   UNL     1      -0.226   9.267  23.170  0.00  0.00    +0.000 OA
ATOM     15  O   UNL     1       1.002   8.171  21.577  0.00  0.00    +0.000 OA
ATOM     16  C   UNL     1       1.541   8.149  20.268  0.00  0.00    +0.000 A 
ATOM     17  O   UNL     1       3.144   5.776  17.952  0.00  0.00    +0.000 OA
ENDROOT
BRANCH   9  18
ATOM     18  O   UNL     1       1.875  10.303  17.334  0.00  0.00    +0.000 OA
ATOM     19  H   UNL     1       2.693  10.822  17.415  0.00  0.00    +0.000 HD
ENDBRANCH   9  18
TORSDOF 1
ENDMDL
MODEL 6
REMARK VINA RESULT:      -6.8      1.611      2.013
REMARK  Name = 
REMARK  3 active torsions:
REMARK  status: ('A' for Active; 'I' for Inactive)
REMARK    1  A    between atoms: C_1  and  C_2
REMARK    2  A    between atoms: C_2  and  C_3
REMARK    3  A    between atoms: C_9  and  O_10
REMARK                            x       y       z     vdW  Elec       q    Type
REMARK                         _______ _______ _______ _____ _____    ______ ____
ROOT
ATOM      1  C   UNL     1       7.247   5.397  17.816  0.00  0.00    +0.000 C 
ATOM      2  C   UNL     1       6.074   5.036  16.893  0.00  0.00    +0.000 C 
ATOM      3  C   UNL     1       6.594   4.233  15.695  0.00  0.00    +0.000 C 
ATOM      4  C   UNL     1       5.392   6.295  16.405  0.00  0.00    +0.000 C 
ATOM      5  C   UNL     1       4.299   6.784  17.001  0.00  0.00    +0.000 C 
ATOM      6  C   UNL     1       3.778   6.056  18.154  0.00  0.00    +0.000 A 
ATOM      7  C   UNL     1       4.232   4.754  18.391  0.00  0.00    +0.000 A 
ATOM      8  C   UNL     1       3.715   3.992  19.441  0.00  0.00    +0.000 A 
ATOM      9  C   UNL     1       2.770   4.558  20.299  0.00  0.00    +0.000 A 
ATOM     10  C   UNL     1       2.326   5.872  20.111  0.00  0.00    +0.000 A 
ATOM     11  C   UNL     1       1.367   6.516  20.999  0.00  0.00    +0.000 A 
ATOM     12  C   UNL     1       1.031   7.795  20.811  0.00  0.00    +0.000 A 
ATOM     13  C   UNL     1       1.587   8.599  19.711  0.00  0.00    +0.000 A 
ATOM     14  O   UNL     1       1.299   9.783  19.587  0.00  0.00    +0.000 OA
ATOM     15  O   UNL     1       2.434   7.944  18.831  0.00  0.00    +0.000 OA
ATOM     16  C   UNL     1       2.836   6.601  19.034  0.00  0.00    +0.000 A 
ATOM     17  O   UNL     1       5.187   4.147  17.613  0.00  0.00    +0.000 OA
ENDROOT
BRANCH   9  18
ATOM     18  O   UNL     1       2.282   3.827  21.348  0.00  0.00    +0.000 OA
ATOM     19  H   UNL     1       1.639   4.367  21.839  0.00  0.00    +0.000 HD
ENDBRANCH   9  18
TORSDOF 1
ENDMDL
MODEL 7
REMARK VINA RESULT:      -6.8      2.691      4.734
REMARK  Name = 
REMARK  3 active torsions:
REMARK  status: ('A' for Active; 'I' for Inactive)
REMARK    1  A    between atoms: C_1  and  C_2
REMARK    2  A    between atoms: C_2  and  C_3
REMARK    3  A    between atoms: C_9  and  O_10
REMARK                            x       y       z     vdW  Elec       q    Type
REMARK                         _______ _______ _______ _____ _____    ______ ____
ROOT
ATOM      1  C   UNL     1       1.816   2.757  18.592  0.00  0.00    +0.000 C 
ATOM      2  C   UNL     1       2.976   3.303  19.438  0.00  0.00    +0.000 C 
ATOM      3  C   UNL     1       4.076   2.240  19.544  0.00  0.00    +0.000 C 
ATOM      4  C   UNL     1       2.484   3.665  20.821  0.00  0.00    +0.000 C 
ATOM      5  C   UNL     1       2.139   4.916  21.144  0.00  0.00    +0.000 C 
ATOM      6  C   UNL     1       2.253   5.936  20.106  0.00  0.00    +0.000 A 
ATOM      7  C   UNL     1       2.988   5.644  18.951  0.00  0.00    +0.000 A 
ATOM      8  C   UNL     1       3.183   6.607  17.960  0.00  0.00    +0.000 A 
ATOM      9  C   UNL     1       2.589   7.863  18.097  0.00  0.00    +0.000 A 
ATOM     10  C   UNL     1       1.815   8.172  19.222  0.00  0.00    +0.000 A 
ATOM     11  C   UNL     1       1.148   9.456  19.394  0.00  0.00    +0.000 A 
ATOM     12  C   UNL     1       0.366   9.670  20.456  0.00  0.00    +0.000 A 
ATOM     13  C   UNL     1       0.153   8.648  21.493  0.00  0.00    +0.000 A 
ATOM     14  O   UNL     1      -0.606   8.852  22.432  0.00  0.00    +0.000 OA
ATOM     15  O   UNL     1       0.860   7.464  21.351  0.00  0.00    +0.000 OA
ATOM     16  C   UNL     1       1.663   7.200  20.215  0.00  0.00    +0.000 A 
ATOM     17  O   UNL     1       3.567   4.419  18.730  0.00  0.00    +0.000 OA
ENDROOT
BRANCH   9  18
ATOM     18  O   UNL     1       2.750   8.802  17.114  0.00  0.00    +0.000 OA
ATOM     19  H   UNL     1       2.284   9.615  17.373  0.00  0.00    +0.000 HD
ENDBRANCH   9  18
TORSDOF 1
ENDMDL
MODEL 8
REMARK VINA RESULT:      -6.5      2.361      3.563
REMARK  Name = 
REMARK  3 active torsions:
REMARK  status: ('A' for Active; 'I' for Inactive)
REMARK    1  A    between atoms: C_1  and  C_2
REMARK    2  A    between atoms: C_2  and  C_3
REMARK    3  A    between atoms: C_9  and  O_10
REMARK                            x       y       z     vdW  Elec       q    Type
REMARK                         _______ _______ _______ _____ _____    ______ ____
ROOT
ATOM      1  C   UNL     1       7.489   6.346  16.131  0.00  0.00    +0.000 C 
ATOM      2  C   UNL     1       7.124   7.069  17.436  0.00  0.00    +0.000 C 
ATOM      3  C   UNL     1       7.726   8.478  17.427  0.00  0.00    +0.000 C 
ATOM      4  C   UNL     1       7.657   6.296  18.623  0.00  0.00    +0.000 C 
ATOM      5  C   UNL     1       6.894   5.439  19.309  0.00  0.00    +0.000 C 
ATOM      6  C   UNL     1       5.512   5.267  18.871  0.00  0.00    +0.000 A 
ATOM      7  C   UNL     1       4.964   6.202  17.985  0.00  0.00    +0.000 A 
ATOM      8  C   UNL     1       3.628   6.120  17.590  0.00  0.00    +0.000 A 
ATOM      9  C   UNL     1       2.841   5.060  18.042  0.00  0.00    +0.000 A 
ATOM     10  C   UNL     1       3.372   4.087  18.898  0.00  0.00    +0.000 A 
ATOM     11  C   UNL     1       2.601   2.944  19.370  0.00  0.00    +0.000 A 
ATOM     12  C   UNL     1       3.179   2.011  20.131  0.00  0.00    +0.000 A 
ATOM     13  C   UNL     1       4.591   2.094  20.536  0.00  0.00    +0.000 A 
ATOM     14  O   UNL     1       5.111   1.201  21.194  0.00  0.00    +0.000 OA
ATOM     15  O   UNL     1       5.284   3.229  20.143  0.00  0.00    +0.000 OA
ATOM     16  C   UNL     1       4.703   4.210  19.304  0.00  0.00    +0.000 A 
ATOM     17  O   UNL     1       5.688   7.248  17.469  0.00  0.00    +0.000 OA
ENDROOT
BRANCH   9  18
ATOM     18  O   UNL     1       1.539   4.957  17.634  0.00  0.00    +0.000 OA
ATOM     19  H   UNL     1       1.513   4.532  16.760  0.00  0.00    +0.000 HD
ENDBRANCH   9  18
TORSDOF 1
ENDMDL
MODEL 9
REMARK VINA RESULT:      -6.5      1.700      3.129
REMARK  Name = 
REMARK  3 active torsions:
REMARK  status: ('A' for Active; 'I' for Inactive)
REMARK    1  A    between atoms: C_1  and  C_2
REMARK    2  A    between atoms: C_2  and  C_3
REMARK    3  A    between atoms: C_9  and  O_10
REMARK                            x       y       z     vdW  Elec       q    Type
REMARK                         _______ _______ _______ _____ _____    ______ ____
ROOT
ATOM      1  C   UNL     1       5.201   4.471  14.252  0.00  0.00    +0.000 C 
ATOM      2  C   UNL     1       6.204   5.042  15.265  0.00  0.00    +0.000 C 
ATOM      3  C   UNL     1       7.514   5.389  14.547  0.00  0.00    +0.000 C 
ATOM      4  C   UNL     1       6.474   4.028  16.354  0.00  0.00    +0.000 C 
ATOM      5  C   UNL     1       5.828   4.059  17.525  0.00  0.00    +0.000 C 
ATOM      6  C   UNL     1       4.840   5.115  17.722  0.00  0.00    +0.000 A 
ATOM      7  C   UNL     1       4.831   6.202  16.841  0.00  0.00    +0.000 A 
ATOM      8  C   UNL     1       3.951   7.270  17.026  0.00  0.00    +0.000 A 
ATOM      9  C   UNL     1       3.030   7.226  18.074  0.00  0.00    +0.000 A 
ATOM     10  C   UNL     1       2.989   6.134  18.948  0.00  0.00    +0.000 A 
ATOM     11  C   UNL     1       2.024   6.028  20.035  0.00  0.00    +0.000 A 
ATOM     12  C   UNL     1       1.987   4.930  20.796  0.00  0.00    +0.000 A 
ATOM     13  C   UNL     1       2.908   3.802  20.590  0.00  0.00    +0.000 A 
ATOM     14  O   UNL     1       2.823   2.787  21.271  0.00  0.00    +0.000 OA
ATOM     15  O   UNL     1       3.869   3.957  19.604  0.00  0.00    +0.000 OA
ATOM     16  C   UNL     1       3.902   5.094  18.760  0.00  0.00    +0.000 A 
ATOM     17  O   UNL     1       5.680   6.295  15.766  0.00  0.00    +0.000 OA
ENDROOT
BRANCH   9  18
ATOM     18  O   UNL     1       2.143   8.256  18.243  0.00  0.00    +0.000 OA
ATOM     19  H   UNL     1       2.231   8.875  17.498  0.00  0.00    +0.000 HD
ENDBRANCH   9  18
TORSDOF 1
ENDMDL
