MODEL 1
REMARK VINA RESULT:      -7.9      0.000      0.000
REMARK  Name = 
REMARK  8 active torsions:
REMARK  status: ('A' for Active; 'I' for Inactive)
REMARK    1  A    between atoms: C_1  and  C_2
REMARK    2  A    between atoms: C_2  and  N_3
REMARK    3  A    between atoms: N_3  and  C_24
REMARK    4  A    between atoms: C_9  and  C_10
REMARK    5  A    between atoms: C_10  and  C_12
REMARK    6  A    between atoms: N_18  and  C_19
REMARK    7  A    between atoms: C_27  and  C_28
REMARK    8  A    between atoms: C_28  and  O_30
REMARK                            x       y       z     vdW  Elec       q    Type
REMARK                         _______ _______ _______ _____ _____    ______ ____
ROOT
ATOM      1  N   UNL     1       2.581   6.931  18.589  0.00  0.00    +0.000 N 
ATOM      2  C   UNL     1       1.861   7.451  19.664  0.00  0.00    +0.000 C 
ATOM      3  O   UNL     1       1.597   6.715  20.628  0.00  0.00    +0.000 OA
ATOM      4  N   UNL     1       1.401   8.766  19.699  0.00  0.00    +0.000 N 
ATOM      5  C   UNL     1       0.894   9.236  21.002  0.00  0.00    +0.000 C 
ATOM      6  C   UNL     1      -0.389  10.056  20.862  0.00  0.00    +0.000 C 
ATOM      7  C   UNL     1      -0.211  11.236  19.905  0.00  0.00    +0.000 C 
ATOM      8  C   UNL     1       0.332  10.718  18.576  0.00  0.00    +0.000 C 
ATOM      9  C   UNL     1       1.579   9.848  18.735  0.00  0.00    +0.000 C 
ENDROOT
BRANCH   1  10
ATOM     10  C   UNL     1       3.115   5.608  18.756  0.00  0.00    +0.000 A 
ATOM     11  C   UNL     1       4.303   5.405  19.466  0.00  0.00    +0.000 A 
ATOM     12  C   UNL     1       4.776   4.106  19.682  0.00  0.00    +0.000 A 
ATOM     13  C   UNL     1       4.055   3.000  19.212  0.00  0.00    +0.000 A 
ATOM     14  C   UNL     1       2.853   3.200  18.522  0.00  0.00    +0.000 A 
ATOM     15  C   UNL     1       2.399   4.500  18.281  0.00  0.00    +0.000 A 
BRANCH  13  16
ATOM     16  C   UNL     1       4.576   1.642  19.525  0.00  0.00    +0.000 C 
ATOM     17  O   UNL     1       5.204   1.399  20.541  0.00  0.00    +0.000 OA
BRANCH  16  18
ATOM     18  O   UNL     1       4.315   0.710  18.586  0.00  0.00    +0.000 OA
ATOM     19  H   UNL     1       3.431   0.306  18.635  0.00  0.00    +0.000 HD
ENDBRANCH  16  18
ENDBRANCH  13  16
ENDBRANCH   1  10
BRANCH   1  21
ATOM     20  C   UNL     1       4.518   7.064  16.986  0.00  0.00    +0.000 C 
ATOM     21  C   UNL     1       3.160   7.613  17.417  0.00  0.00    +0.000 C 
ENDBRANCH   1  21
BRANCH   7  22
ATOM     22  C   UNL     1       0.688  12.334  20.487  0.00  0.00    +0.000 C 
ATOM     23  O   UNL     1       1.257  12.212  21.571  0.00  0.00    +0.000 OA
BRANCH  22  24
ATOM     24  C   UNL     1       0.856  13.612  19.743  0.00  0.00    +0.000 A 
ATOM     25  C   UNL     1      -0.199  14.519  19.594  0.00  0.00    +0.000 A 
ATOM     26  C   UNL     1      -0.013  15.729  18.909  0.00  0.00    +0.000 A 
ATOM     27  C   UNL     1       1.253  16.023  18.384  0.00  0.00    +0.000 A 
ATOM     28  N   UNL     1       1.677  17.137  17.707  0.00  0.00    +0.000 NA
ATOM     29  C   UNL     1       2.947  16.923  17.454  0.00  0.00    +0.000 A 
ATOM     30  N   UNL     1       3.360  15.712  17.931  0.00  0.00    +0.000 N 
ATOM     31  C   UNL     1       4.699  15.188  17.847  0.00  0.00    +0.000 C 
ATOM     32  C   UNL     1       2.287  15.104  18.535  0.00  0.00    +0.000 A 
ATOM     33  C   UNL     1       2.123  13.878  19.189  0.00  0.00    +0.000 A 
ENDBRANCH  22  24
ENDBRANCH   7  22
TORSDOF 6
ENDMDL
MODEL 2
REMARK VINA RESULT:      -7.8      2.841      9.590
REMARK  Name = 
REMARK  8 active torsions:
REMARK  status: ('A' for Active; 'I' for Inactive)
REMARK    1  A    between atoms: C_1  and  C_2
REMARK    2  A    between atoms: C_2  and  N_3
REMARK    3  A    between atoms: N_3  and  C_24
REMARK    4  A    between atoms: C_9  and  C_10
REMARK    5  A    between atoms: C_10  and  C_12
REMARK    6  A    between atoms: N_18  and  C_19
REMARK    7  A    between atoms: C_27  and  C_28
REMARK    8  A    between atoms: C_28  and  O_30
REMARK                            x       y       z     vdW  Elec       q    Type
REMARK                         _______ _______ _______ _____ _____    ______ ____
ROOT
ATOM      1  N   UNL     1       0.999   9.251  20.187  0.00  0.00    +0.000 N 
ATOM      2  C   UNL     1       1.424   8.480  19.106  0.00  0.00    +0.000 C 
ATOM      3  O   UNL     1       1.398   8.971  17.966  0.00  0.00    +0.000 OA
ATOM      4  N   UNL     1       1.863   7.165  19.242  0.00  0.00    +0.000 N 
ATOM      5  C   UNL     1       2.522   6.581  18.059  0.00  0.00    +0.000 C 
ATOM      6  C   UNL     1       2.077   5.141  17.800  0.00  0.00    +0.000 C 
ATOM      7  C   UNL     1       2.292   4.247  19.023  0.00  0.00    +0.000 C 
ATOM      8  C   UNL     1       1.614   4.890  20.231  0.00  0.00    +0.000 C 
ATOM      9  C   UNL     1       2.021   6.348  20.441  0.00  0.00    +0.000 C 
ENDROOT
BRANCH   1  10
ATOM     10  C   UNL     1       0.716  10.633  19.917  0.00  0.00    +0.000 A 
ATOM     11  C   UNL     1      -0.446  11.001  19.232  0.00  0.00    +0.000 A 
ATOM     12  C   UNL     1      -0.745  12.353  19.036  0.00  0.00    +0.000 A 
ATOM     13  C   UNL     1       0.100  13.349  19.545  0.00  0.00    +0.000 A 
ATOM     14  C   UNL     1       1.251  12.983  20.253  0.00  0.00    +0.000 A 
ATOM     15  C   UNL     1       1.563  11.631  20.419  0.00  0.00    +0.000 A 
BRANCH  13  16
ATOM     16  C   UNL     1      -0.303  14.769  19.359  0.00  0.00    +0.000 C 
ATOM     17  O   UNL     1       0.450  15.609  18.897  0.00  0.00    +0.000 OA
BRANCH  16  18
ATOM     18  O   UNL     1      -1.557  15.054  19.763  0.00  0.00    +0.000 OA
ATOM     19  H   UNL     1      -1.866  14.558  20.542  0.00  0.00    +0.000 HD
ENDBRANCH  16  18
ENDBRANCH  13  16
ENDBRANCH   1  10
BRANCH   1  21
ATOM     20  C   UNL     1      -0.264   9.059  22.357  0.00  0.00    +0.000 C 
ATOM     21  C   UNL     1       1.079   8.979  21.634  0.00  0.00    +0.000 C 
ENDBRANCH   1  21
BRANCH   7  22
ATOM     22  C   UNL     1       3.775   3.972  19.294  0.00  0.00    +0.000 C 
ATOM     23  O   UNL     1       4.157   3.325  20.269  0.00  0.00    +0.000 OA
BRANCH  22  24
ATOM     24  C   UNL     1       4.804   4.532  18.375  0.00  0.00    +0.000 A 
ATOM     25  C   UNL     1       5.779   5.429  18.825  0.00  0.00    +0.000 A 
ATOM     26  C   UNL     1       6.753   5.928  17.946  0.00  0.00    +0.000 A 
ATOM     27  C   UNL     1       6.743   5.503  16.611  0.00  0.00    +0.000 A 
ATOM     28  N   UNL     1       7.596   5.828  15.588  0.00  0.00    +0.000 NA
ATOM     29  C   UNL     1       7.162   5.150  14.551  0.00  0.00    +0.000 A 
ATOM     30  N   UNL     1       6.057   4.408  14.857  0.00  0.00    +0.000 N 
ATOM     31  C   UNL     1       5.358   3.530  13.956  0.00  0.00    +0.000 C 
ATOM     32  C   UNL     1       5.759   4.616  16.181  0.00  0.00    +0.000 A 
ATOM     33  C   UNL     1       4.759   4.125  17.028  0.00  0.00    +0.000 A 
ENDBRANCH  22  24
ENDBRANCH   7  22
TORSDOF 6
ENDMDL
MODEL 3
REMARK VINA RESULT:      -7.8      0.946      2.015
REMARK  Name = 
REMARK  8 active torsions:
REMARK  status: ('A' for Active; 'I' for Inactive)
REMARK    1  A    between atoms: C_1  and  C_2
REMARK    2  A    between atoms: C_2  and  N_3
REMARK    3  A    between atoms: N_3  and  C_24
REMARK    4  A    between atoms: C_9  and  C_10
REMARK    5  A    between atoms: C_10  and  C_12
REMARK    6  A    between atoms: N_18  and  C_19
REMARK    7  A    between atoms: C_27  and  C_28
REMARK    8  A    between atoms: C_28  and  O_30
REMARK                            x       y       z     vdW  Elec       q    Type
REMARK                         _______ _______ _______ _____ _____    ______ ____
ROOT
ATOM      1  N   UNL     1       2.260   7.528  18.721  0.00  0.00    +0.000 N 
ATOM      2  C   UNL     1       1.576   8.113  19.786  0.00  0.00    +0.000 C 
ATOM      3  O   UNL     1       1.232   7.405  20.747  0.00  0.00    +0.000 OA
ATOM      4  N   UNL     1       1.237   9.464  19.816  0.00  0.00    +0.000 N 
ATOM      5  C   UNL     1       0.757   9.979  21.112  0.00  0.00    +0.000 C 
ATOM      6  C   UNL     1      -0.444  10.913  20.955  0.00  0.00    +0.000 C 
ATOM      7  C   UNL     1      -0.145  12.071  20.001  0.00  0.00    +0.000 C 
ATOM      8  C   UNL     1       0.366  11.504  18.679  0.00  0.00    +0.000 C 
ATOM      9  C   UNL     1       1.526  10.524  18.855  0.00  0.00    +0.000 C 
ENDROOT
BRANCH   1  10
ATOM     10  C   UNL     1       2.669   6.162  18.895  0.00  0.00    +0.000 A 
ATOM     11  C   UNL     1       1.920   5.119  18.341  0.00  0.00    +0.000 A 
ATOM     12  C   UNL     1       2.366   3.798  18.458  0.00  0.00    +0.000 A 
ATOM     13  C   UNL     1       3.574   3.511  19.106  0.00  0.00    +0.000 A 
ATOM     14  C   UNL     1       4.338   4.556  19.640  0.00  0.00    +0.000 A 
ATOM     15  C   UNL     1       3.874   5.871  19.549  0.00  0.00    +0.000 A 
BRANCH  13  16
ATOM     16  C   UNL     1       4.027   2.094  19.144  0.00  0.00    +0.000 C 
ATOM     17  O   UNL     1       3.491   1.217  18.490  0.00  0.00    +0.000 OA
BRANCH  16  18
ATOM     18  O   UNL     1       5.061   1.858  19.977  0.00  0.00    +0.000 OA
ATOM     19  H   UNL     1       5.849   2.411  19.829  0.00  0.00    +0.000 HD
ENDBRANCH  16  18
ENDBRANCH  13  16
ENDBRANCH   1  10
BRANCH   1  21
ATOM     20  C   UNL     1       4.094   7.357  17.006  0.00  0.00    +0.000 C 
ATOM     21  C   UNL     1       2.914   8.153  17.558  0.00  0.00    +0.000 C 
ENDBRANCH   1  21
BRANCH   7  22
ATOM     22  C   UNL     1       0.841  13.082  20.596  0.00  0.00    +0.000 C 
ATOM     23  O   UNL     1       1.212  13.029  21.768  0.00  0.00    +0.000 OA
BRANCH  22  24
ATOM     24  C   UNL     1       1.348  14.196  19.747  0.00  0.00    +0.000 A 
ATOM     25  C   UNL     1       2.662  14.210  19.264  0.00  0.00    +0.000 A 
ATOM     26  C   UNL     1       3.112  15.258  18.447  0.00  0.00    +0.000 A 
ATOM     27  C   UNL     1       2.222  16.286  18.110  0.00  0.00    +0.000 A 
ATOM     28  N   UNL     1       2.423  17.386  17.316  0.00  0.00    +0.000 NA
ATOM     29  C   UNL     1       1.273  18.020  17.310  0.00  0.00    +0.000 A 
ATOM     30  N   UNL     1       0.339  17.381  18.075  0.00  0.00    +0.000 N 
ATOM     31  C   UNL     1      -1.028  17.796  18.252  0.00  0.00    +0.000 C 
ATOM     32  C   UNL     1       0.922  16.258  18.608  0.00  0.00    +0.000 A 
ATOM     33  C   UNL     1       0.454  15.240  19.447  0.00  0.00    +0.000 A 
ENDBRANCH  22  24
ENDBRANCH   7  22
TORSDOF 6
ENDMDL
MODEL 4
REMARK VINA RESULT:      -7.8      0.663      1.584
REMARK  Name = 
REMARK  8 active torsions:
REMARK  status: ('A' for Active; 'I' for Inactive)
REMARK    1  A    between atoms: C_1  and  C_2
REMARK    2  A    between atoms: C_2  and  N_3
REMARK    3  A    between atoms: N_3  and  C_24
REMARK    4  A    between atoms: C_9  and  C_10
REMARK    5  A    between atoms: C_10  and  C_12
REMARK    6  A    between atoms: N_18  and  C_19
REMARK    7  A    between atoms: C_27  and  C_28
REMARK    8  A    between atoms: C_28  and  O_30
REMARK                            x       y       z     vdW  Elec       q    Type
REMARK                         _______ _______ _______ _____ _____    ______ ____
ROOT
ATOM      1  N   UNL     1       2.740   7.140  18.544  0.00  0.00    +0.000 N 
ATOM      2  C   UNL     1       1.919   7.638  19.554  0.00  0.00    +0.000 C 
ATOM      3  O   UNL     1       1.521   6.869  20.445  0.00  0.00    +0.000 OA
ATOM      4  N   UNL     1       1.501   8.966  19.603  0.00  0.00    +0.000 N 
ATOM      5  C   UNL     1       0.862   9.394  20.862  0.00  0.00    +0.000 C 
ATOM      6  C   UNL     1      -0.368  10.269  20.618  0.00  0.00    +0.000 C 
ATOM      7  C   UNL     1      -0.042  11.484  19.747  0.00  0.00    +0.000 C 
ATOM      8  C   UNL     1       0.633  11.006  18.465  0.00  0.00    +0.000 C 
ATOM      9  C   UNL     1       1.824  10.083  18.721  0.00  0.00    +0.000 C 
ENDROOT
BRANCH   1  10
ATOM     10  C   UNL     1       3.208   5.791  18.704  0.00  0.00    +0.000 A 
ATOM     11  C   UNL     1       4.401   5.528  19.385  0.00  0.00    +0.000 A 
ATOM     12  C   UNL     1       4.811   4.207  19.596  0.00  0.00    +0.000 A 
ATOM     13  C   UNL     1       4.020   3.139  19.150  0.00  0.00    +0.000 A 
ATOM     14  C   UNL     1       2.814   3.400  18.490  0.00  0.00    +0.000 A 
ATOM     15  C   UNL     1       2.423   4.721  18.253  0.00  0.00    +0.000 A 
BRANCH  13  16
ATOM     16  C   UNL     1       4.477   1.757  19.457  0.00  0.00    +0.000 C 
ATOM     17  O   UNL     1       5.088   1.479  20.474  0.00  0.00    +0.000 OA
BRANCH  16  18
ATOM     18  O   UNL     1       4.180   0.844  18.510  0.00  0.00    +0.000 OA
ATOM     19  H   UNL     1       4.943   0.362  18.143  0.00  0.00    +0.000 HD
ENDBRANCH  16  18
ENDBRANCH  13  16
ENDBRANCH   1  10
BRANCH   1  21
ATOM     20  C   UNL     1       4.499   6.991  16.748  0.00  0.00    +0.000 C 
ATOM     21  C   UNL     1       3.472   7.852  17.481  0.00  0.00    +0.000 C 
ENDBRANCH   1  21
BRANCH   7  22
ATOM     22  C   UNL     1       0.819  12.518  20.482  0.00  0.00    +0.000 C 
ATOM     23  O   UNL     1       1.062  12.437  21.685  0.00  0.00    +0.000 OA
BRANCH  22  24
ATOM     24  C   UNL     1       1.355  13.688  19.733  0.00  0.00    +0.000 A 
ATOM     25  C   UNL     1       2.683  13.730  19.291  0.00  0.00    +0.000 A 
ATOM     26  C   UNL     1       3.162  14.831  18.567  0.00  0.00    +0.000 A 
ATOM     27  C   UNL     1       2.286  15.887  18.280  0.00  0.00    +0.000 A 
ATOM     28  N   UNL     1       2.515  17.041  17.576  0.00  0.00    +0.000 NA
ATOM     29  C   UNL     1       1.368  17.680  17.582  0.00  0.00    +0.000 A 
ATOM     30  N   UNL     1       0.409  16.993  18.269  0.00  0.00    +0.000 N 
ATOM     31  C   UNL     1      -0.961  17.402  18.436  0.00  0.00    +0.000 C 
ATOM     32  C   UNL     1       0.972  15.830  18.735  0.00  0.00    +0.000 A 
ATOM     33  C   UNL     1       0.475  14.757  19.484  0.00  0.00    +0.000 A 
ENDBRANCH  22  24
ENDBRANCH   7  22
TORSDOF 6
ENDMDL
MODEL 5
REMARK VINA RESULT:      -7.7      0.506      1.137
REMARK  Name = 
REMARK  8 active torsions:
REMARK  status: ('A' for Active; 'I' for Inactive)
REMARK    1  A    between atoms: C_1  and  C_2
REMARK    2  A    between atoms: C_2  and  N_3
REMARK    3  A    between atoms: N_3  and  C_24
REMARK    4  A    between atoms: C_9  and  C_10
REMARK    5  A    between atoms: C_10  and  C_12
REMARK    6  A    between atoms: N_18  and  C_19
REMARK    7  A    between atoms: C_27  and  C_28
REMARK    8  A    between atoms: C_28  and  O_30
REMARK                            x       y       z     vdW  Elec       q    Type
REMARK                         _______ _______ _______ _____ _____    ______ ____
ROOT
ATOM      1  N   UNL     1       2.201   7.266  18.744  0.00  0.00    +0.000 N 
ATOM      2  C   UNL     1       1.548   7.850  19.829  0.00  0.00    +0.000 C 
ATOM      3  O   UNL     1       1.273   7.151  20.818  0.00  0.00    +0.000 OA
ATOM      4  N   UNL     1       1.168   9.190  19.850  0.00  0.00    +0.000 N 
ATOM      5  C   UNL     1       0.732   9.715  21.158  0.00  0.00    +0.000 C 
ATOM      6  C   UNL     1      -0.504  10.608  21.040  0.00  0.00    +0.000 C 
ATOM      7  C   UNL     1      -0.288  11.756  20.052  0.00  0.00    +0.000 C 
ATOM      8  C   UNL     1       0.180  11.179  18.718  0.00  0.00    +0.000 C 
ATOM      9  C   UNL     1       1.377  10.240  18.858  0.00  0.00    +0.000 C 
ENDROOT
BRANCH   1  10
ATOM     10  C   UNL     1       2.661   5.917  18.924  0.00  0.00    +0.000 A 
ATOM     11  C   UNL     1       1.986   4.849  18.324  0.00  0.00    +0.000 A 
ATOM     12  C   UNL     1       2.484   3.547  18.449  0.00  0.00    +0.000 A 
ATOM     13  C   UNL     1       3.673   3.306  19.151  0.00  0.00    +0.000 A 
ATOM     14  C   UNL     1       4.364   4.377  19.731  0.00  0.00    +0.000 A 
ATOM     15  C   UNL     1       3.846   5.672  19.631  0.00  0.00    +0.000 A 
BRANCH  13  16
ATOM     16  C   UNL     1       4.186   1.910  19.197  0.00  0.00    +0.000 C 
ATOM     17  O   UNL     1       3.753   1.029  18.474  0.00  0.00    +0.000 OA
BRANCH  16  18
ATOM     18  O   UNL     1       5.149   1.696  20.115  0.00  0.00    +0.000 OA
ATOM     19  H   UNL     1       5.524   0.797  20.123  0.00  0.00    +0.000 HD
ENDBRANCH  16  18
ENDBRANCH  13  16
ENDBRANCH   1  10
BRANCH   1  21
ATOM     20  C   UNL     1       4.175   7.378  17.186  0.00  0.00    +0.000 C 
ATOM     21  C   UNL     1       2.780   7.888  17.540  0.00  0.00    +0.000 C 
ENDBRANCH   1  21
BRANCH   7  22
ATOM     22  C   UNL     1       0.692  12.809  20.581  0.00  0.00    +0.000 C 
ATOM     23  O   UNL     1       1.227  12.715  21.685  0.00  0.00    +0.000 OA
BRANCH  22  24
ATOM     24  C   UNL     1       0.988  14.012  19.755  0.00  0.00    +0.000 A 
ATOM     25  C   UNL     1       0.022  14.998  19.523  0.00  0.00    +0.000 A 
ATOM     26  C   UNL     1       0.329  16.135  18.761  0.00  0.00    +0.000 A 
ATOM     27  C   UNL     1       1.624  16.277  18.246  0.00  0.00    +0.000 A 
ATOM     28  N   UNL     1       2.158  17.299  17.504  0.00  0.00    +0.000 NA
ATOM     29  C   UNL     1       3.408  16.954  17.294  0.00  0.00    +0.000 A 
ATOM     30  N   UNL     1       3.701  15.747  17.860  0.00  0.00    +0.000 N 
ATOM     31  C   UNL     1       4.988  15.100  17.842  0.00  0.00    +0.000 C 
ATOM     32  C   UNL     1       2.568  15.281  18.481  0.00  0.00    +0.000 A 
ATOM     33  C   UNL     1       2.282  14.124  19.213  0.00  0.00    +0.000 A 
ENDBRANCH  22  24
ENDBRANCH   7  22
TORSDOF 6
ENDMDL
MODEL 6
REMARK VINA RESULT:      -7.6      2.936      9.757
REMARK  Name = 
REMARK  8 active torsions:
REMARK  status: ('A' for Active; 'I' for Inactive)
REMARK    1  A    between atoms: C_1  and  C_2
REMARK    2  A    between atoms: C_2  and  N_3
REMARK    3  A    between atoms: N_3  and  C_24
REMARK    4  A    between atoms: C_9  and  C_10
REMARK    5  A    between atoms: C_10  and  C_12
REMARK    6  A    between atoms: N_18  and  C_19
REMARK    7  A    between atoms: C_27  and  C_28
REMARK    8  A    between atoms: C_28  and  O_30
REMARK                            x       y       z     vdW  Elec       q    Type
REMARK                         _______ _______ _______ _____ _____    ______ ____
ROOT
ATOM      1  N   UNL     1       0.823   9.894  20.411  0.00  0.00    +0.000 N 
ATOM      2  C   UNL     1       1.351   9.285  19.273  0.00  0.00    +0.000 C 
ATOM      3  O   UNL     1       1.311   9.890  18.190  0.00  0.00    +0.000 OA
ATOM      4  N   UNL     1       1.908   8.008  19.290  0.00  0.00    +0.000 N 
ATOM      5  C   UNL     1       2.654   7.616  18.079  0.00  0.00    +0.000 C 
ATOM      6  C   UNL     1       2.355   6.177  17.656  0.00  0.00    +0.000 C 
ATOM      7  C   UNL     1       2.619   5.183  18.788  0.00  0.00    +0.000 C 
ATOM      8  C   UNL     1       1.849   5.629  20.028  0.00  0.00    +0.000 C 
ATOM      9  C   UNL     1       2.108   7.087  20.403  0.00  0.00    +0.000 C 
ENDROOT
BRANCH   1  10
ATOM     10  C   UNL     1       0.417  11.266  20.274  0.00  0.00    +0.000 A 
ATOM     11  C   UNL     1      -0.926  11.593  20.063  0.00  0.00    +0.000 A 
ATOM     12  C   UNL     1      -1.318  12.934  20.001  0.00  0.00    +0.000 A 
ATOM     13  C   UNL     1      -0.378  13.958  20.174  0.00  0.00    +0.000 A 
ATOM     14  C   UNL     1       0.964  13.633  20.410  0.00  0.00    +0.000 A 
ATOM     15  C   UNL     1       1.358  12.292  20.440  0.00  0.00    +0.000 A 
BRANCH  13  16
ATOM     16  C   UNL     1      -0.865  15.364  20.160  0.00  0.00    +0.000 C 
ATOM     17  O   UNL     1      -1.126  15.978  21.180  0.00  0.00    +0.000 OA
BRANCH  16  18
ATOM     18  O   UNL     1      -1.014  15.893  18.929  0.00  0.00    +0.000 OA
ATOM     19  H   UNL     1      -0.472  15.485  18.232  0.00  0.00    +0.000 HD
ENDBRANCH  16  18
ENDBRANCH  13  16
ENDBRANCH   1  10
BRANCH   1  21
ATOM     20  C   UNL     1      -0.402   8.845  22.344  0.00  0.00    +0.000 C 
ATOM     21  C   UNL     1       0.886   9.479  21.824  0.00  0.00    +0.000 C 
ENDBRANCH   1  21
BRANCH   7  22
ATOM     22  C   UNL     1       4.114   5.016  19.087  0.00  0.00    +0.000 C 
ATOM     23  O   UNL     1       4.533   4.733  20.208  0.00  0.00    +0.000 OA
BRANCH  22  24
ATOM     24  C   UNL     1       5.106   5.239  17.999  0.00  0.00    +0.000 A 
ATOM     25  C   UNL     1       6.259   6.007  18.204  0.00  0.00    +0.000 A 
ATOM     26  C   UNL     1       7.192   6.185  17.173  0.00  0.00    +0.000 A 
ATOM     27  C   UNL     1       6.960   5.571  15.935  0.00  0.00    +0.000 A 
ATOM     28  N   UNL     1       7.732   5.581  14.801  0.00  0.00    +0.000 NA
ATOM     29  C   UNL     1       7.077   4.842  13.934  0.00  0.00    +0.000 A 
ATOM     30  N   UNL     1       5.910   4.364  14.457  0.00  0.00    +0.000 N 
ATOM     31  C   UNL     1       4.979   3.498  13.781  0.00  0.00    +0.000 C 
ATOM     32  C   UNL     1       5.804   4.820  15.748  0.00  0.00    +0.000 A 
ATOM     33  C   UNL     1       4.842   4.648  16.750  0.00  0.00    +0.000 A 
ENDBRANCH  22  24
ENDBRANCH   7  22
TORSDOF 6
ENDMDL
MODEL 7
REMARK VINA RESULT:      -7.4      2.931      3.968
REMARK  Name = 
REMARK  8 active torsions:
REMARK  status: ('A' for Active; 'I' for Inactive)
REMARK    1  A    between atoms: C_1  and  C_2
REMARK    2  A    between atoms: C_2  and  N_3
REMARK    3  A    between atoms: N_3  and  C_24
REMARK    4  A    between atoms: C_9  and  C_10
REMARK    5  A    between atoms: C_10  and  C_12
REMARK    6  A    between atoms: N_18  and  C_19
REMARK    7  A    between atoms: C_27  and  C_28
REMARK    8  A    between atoms: C_28  and  O_30
REMARK                            x       y       z     vdW  Elec       q    Type
REMARK                         _______ _______ _______ _____ _____    ______ ____
ROOT
ATOM      1  N   UNL     1       2.390   7.028  18.878  0.00  0.00    +0.000 N 
ATOM      2  C   UNL     1       1.695   7.466  20.005  0.00  0.00    +0.000 C 
ATOM      3  O   UNL     1       1.478   6.666  20.930  0.00  0.00    +0.000 OA
ATOM      4  N   UNL     1       1.210   8.765  20.136  0.00  0.00    +0.000 N 
ATOM      5  C   UNL     1       0.736   9.142  21.481  0.00  0.00    +0.000 C 
ATOM      6  C   UNL     1      -0.567   9.941  21.433  0.00  0.00    +0.000 C 
ATOM      7  C   UNL     1      -0.445  11.181  20.546  0.00  0.00    +0.000 C 
ATOM      8  C   UNL     1       0.065  10.757  19.171  0.00  0.00    +0.000 C 
ATOM      9  C   UNL     1       1.333   9.907  19.236  0.00  0.00    +0.000 C 
ENDROOT
BRANCH   1  10
ATOM     10  C   UNL     1       2.956   5.710  18.946  0.00  0.00    +0.000 A 
ATOM     11  C   UNL     1       4.188   5.497  19.573  0.00  0.00    +0.000 A 
ATOM     12  C   UNL     1       4.696   4.199  19.694  0.00  0.00    +0.000 A 
ATOM     13  C   UNL     1       3.968   3.103  19.212  0.00  0.00    +0.000 A 
ATOM     14  C   UNL     1       2.723   3.312  18.606  0.00  0.00    +0.000 A 
ATOM     15  C   UNL     1       2.233   4.613  18.458  0.00  0.00    +0.000 A 
BRANCH  13  16
ATOM     16  C   UNL     1       4.530   1.742  19.425  0.00  0.00    +0.000 C 
ATOM     17  O   UNL     1       5.229   1.464  20.384  0.00  0.00    +0.000 OA
BRANCH  16  18
ATOM     18  O   UNL     1       4.224   0.851  18.460  0.00  0.00    +0.000 OA
ATOM     19  H   UNL     1       4.643   1.013  17.596  0.00  0.00    +0.000 HD
ENDBRANCH  16  18
ENDBRANCH  13  16
ENDBRANCH   1  10
BRANCH   1  21
ATOM     20  C   UNL     1       4.146   7.169  17.079  0.00  0.00    +0.000 C 
ATOM     21  C   UNL     1       2.915   7.793  17.733  0.00  0.00    +0.000 C 
ENDBRANCH   1  21
BRANCH   7  22
ATOM     22  C   UNL     1       0.450  12.261  21.166  0.00  0.00    +0.000 C 
ATOM     23  O   UNL     1       1.668  12.283  20.997  0.00  0.00    +0.000 OA
BRANCH  22  24
ATOM     24  C   UNL     1      -0.159  13.304  22.036  0.00  0.00    +0.000 A 
ATOM     25  C   UNL     1       0.390  14.588  22.136  0.00  0.00    +0.000 A 
ATOM     26  C   UNL     1      -0.213  15.563  22.945  0.00  0.00    +0.000 A 
ATOM     27  C   UNL     1      -1.383  15.237  23.642  0.00  0.00    +0.000 A 
ATOM     28  N   UNL     1      -2.155  16.020  24.462  0.00  0.00    +0.000 NA
ATOM     29  C   UNL     1      -3.143  15.245  24.846  0.00  0.00    +0.000 A 
ATOM     30  N   UNL     1      -3.038  13.991  24.317  0.00  0.00    +0.000 N 
ATOM     31  C   UNL     1      -3.973  12.914  24.514  0.00  0.00    +0.000 C 
ATOM     32  C   UNL     1      -1.909  13.952  23.536  0.00  0.00    +0.000 A 
ATOM     33  C   UNL     1      -1.314  12.951  22.760  0.00  0.00    +0.000 A 
ENDBRANCH  22  24
ENDBRANCH   7  22
TORSDOF 6
ENDMDL
MODEL 8
REMARK VINA RESULT:      -7.4      5.392      9.499
REMARK  Name = 
REMARK  8 active torsions:
REMARK  status: ('A' for Active; 'I' for Inactive)
REMARK    1  A    between atoms: C_1  and  C_2
REMARK    2  A    between atoms: C_2  and  N_3
REMARK    3  A    between atoms: N_3  and  C_24
REMARK    4  A    between atoms: C_9  and  C_10
REMARK    5  A    between atoms: C_10  and  C_12
REMARK    6  A    between atoms: N_18  and  C_19
REMARK    7  A    between atoms: C_27  and  C_28
REMARK    8  A    between atoms: C_28  and  O_30
REMARK                            x       y       z     vdW  Elec       q    Type
REMARK                         _______ _______ _______ _____ _____    ______ ____
ROOT
ATOM      1  N   UNL     1       5.928  15.199  19.919  0.00  0.00    +0.000 N 
ATOM      2  C   UNL     1       4.822  14.922  19.117  0.00  0.00    +0.000 C 
ATOM      3  O   UNL     1       4.892  15.135  17.895  0.00  0.00    +0.000 OA
ATOM      4  N   UNL     1       3.622  14.432  19.627  0.00  0.00    +0.000 N 
ATOM      5  C   UNL     1       2.649  13.945  18.630  0.00  0.00    +0.000 C 
ATOM      6  C   UNL     1       1.221  14.384  18.953  0.00  0.00    +0.000 C 
ATOM      7  C   UNL     1       0.796  13.961  20.360  0.00  0.00    +0.000 C 
ATOM      8  C   UNL     1       1.832  14.464  21.362  0.00  0.00    +0.000 C 
ATOM      9  C   UNL     1       3.263  14.071  20.995  0.00  0.00    +0.000 C 
ENDROOT
BRANCH   1  10
ATOM     10  C   UNL     1       7.141  15.557  19.237  0.00  0.00    +0.000 A 
ATOM     11  C   UNL     1       8.052  14.573  18.842  0.00  0.00    +0.000 A 
ATOM     12  C   UNL     1       9.196  14.928  18.118  0.00  0.00    +0.000 A 
ATOM     13  C   UNL     1       9.424  16.264  17.762  0.00  0.00    +0.000 A 
ATOM     14  C   UNL     1       8.500  17.248  18.135  0.00  0.00    +0.000 A 
ATOM     15  C   UNL     1       7.375  16.894  18.886  0.00  0.00    +0.000 A 
BRANCH  13  16
ATOM     16  C   UNL     1      10.625  16.572  16.939  0.00  0.00    +0.000 C 
ATOM     17  O   UNL     1      11.476  17.369  17.293  0.00  0.00    +0.000 OA
BRANCH  16  18
ATOM     18  O   UNL     1      10.682  15.915  15.762  0.00  0.00    +0.000 OA
ATOM     19  H   UNL     1      11.390  15.249  15.692  0.00  0.00    +0.000 HD
ENDBRANCH  16  18
ENDBRANCH  13  16
ENDBRANCH   1  10
BRANCH   1  21
ATOM     20  C   UNL     1       6.389  16.125  22.214  0.00  0.00    +0.000 C 
ATOM     21  C   UNL     1       6.167  14.892  21.341  0.00  0.00    +0.000 C 
ENDBRANCH   1  21
BRANCH   7  22
ATOM     22  C   UNL     1       0.591  12.447  20.480  0.00  0.00    +0.000 C 
ATOM     23  O   UNL     1       1.209  11.761  21.294  0.00  0.00    +0.000 OA
BRANCH  22  24
ATOM     24  C   UNL     1      -0.361  11.762  19.562  0.00  0.00    +0.000 A 
ATOM     25  C   UNL     1       0.060  10.751  18.690  0.00  0.00    +0.000 A 
ATOM     26  C   UNL     1      -0.857  10.103  17.849  0.00  0.00    +0.000 A 
ATOM     27  C   UNL     1      -2.206  10.476  17.903  0.00  0.00    +0.000 A 
ATOM     28  N   UNL     1      -3.276   9.975  17.206  0.00  0.00    +0.000 NA
ATOM     29  C   UNL     1      -4.314  10.652  17.638  0.00  0.00    +0.000 A 
ATOM     30  N   UNL     1      -3.960  11.577  18.578  0.00  0.00    +0.000 N 
ATOM     31  C   UNL     1      -4.863  12.457  19.274  0.00  0.00    +0.000 C 
ATOM     32  C   UNL     1      -2.604  11.490  18.770  0.00  0.00    +0.000 A 
ATOM     33  C   UNL     1      -1.706  12.172  19.600  0.00  0.00    +0.000 A 
ENDBRANCH  22  24
ENDBRANCH   7  22
TORSDOF 6
ENDMDL
MODEL 9
REMARK VINA RESULT:      -7.3      0.930      1.379
REMARK  Name = 
REMARK  8 active torsions:
REMARK  status: ('A' for Active; 'I' for Inactive)
REMARK    1  A    between atoms: C_1  and  C_2
REMARK    2  A    between atoms: C_2  and  N_3
REMARK    3  A    between atoms: N_3  and  C_24
REMARK    4  A    between atoms: C_9  and  C_10
REMARK    5  A    between atoms: C_10  and  C_12
REMARK    6  A    between atoms: N_18  and  C_19
REMARK    7  A    between atoms: C_27  and  C_28
REMARK    8  A    between atoms: C_28  and  O_30
REMARK                            x       y       z     vdW  Elec       q    Type
REMARK                         _______ _______ _______ _____ _____    ______ ____
ROOT
ATOM      1  N   UNL     1       2.001   7.147  19.150  0.00  0.00    +0.000 N 
ATOM      2  C   UNL     1       1.615   7.822  20.307  0.00  0.00    +0.000 C 
ATOM      3  O   UNL     1       1.667   7.232  21.398  0.00  0.00    +0.000 OA
ATOM      4  N   UNL     1       1.150   9.136  20.295  0.00  0.00    +0.000 N 
ATOM      5  C   UNL     1       1.035   9.789  21.613  0.00  0.00    +0.000 C 
ATOM      6  C   UNL     1      -0.254  10.601  21.746  0.00  0.00    +0.000 C 
ATOM      7  C   UNL     1      -0.398  11.633  20.626  0.00  0.00    +0.000 C 
ATOM      8  C   UNL     1      -0.255  10.927  19.281  0.00  0.00    +0.000 C 
ATOM      9  C   UNL     1       1.006  10.070  19.183  0.00  0.00    +0.000 C 
ENDROOT
BRANCH   1  10
ATOM     10  C   UNL     1       2.597   5.852  19.332  0.00  0.00    +0.000 A 
ATOM     11  C   UNL     1       1.803   4.702  19.369  0.00  0.00    +0.000 A 
ATOM     12  C   UNL     1       2.400   3.442  19.476  0.00  0.00    +0.000 A 
ATOM     13  C   UNL     1       3.796   3.319  19.524  0.00  0.00    +0.000 A 
ATOM     14  C   UNL     1       4.594   4.467  19.463  0.00  0.00    +0.000 A 
ATOM     15  C   UNL     1       3.992   5.727  19.387  0.00  0.00    +0.000 A 
BRANCH  13  16
ATOM     16  C   UNL     1       4.375   1.949  19.576  0.00  0.00    +0.000 C 
ATOM     17  O   UNL     1       5.123   1.587  20.467  0.00  0.00    +0.000 OA
BRANCH  16  18
ATOM     18  O   UNL     1       4.023   1.151  18.548  0.00  0.00    +0.000 OA
ATOM     19  H   UNL     1       3.590   0.316  18.799  0.00  0.00    +0.000 HD
ENDBRANCH  16  18
ENDBRANCH  13  16
ENDBRANCH   1  10
BRANCH   1  21
ATOM     20  C   UNL     1       3.600   8.164  17.493  0.00  0.00    +0.000 C 
ATOM     21  C   UNL     1       2.191   7.650  17.778  0.00  0.00    +0.000 C 
ENDBRANCH   1  21
BRANCH   7  22
ATOM     22  C   UNL     1       0.602  12.788  20.761  0.00  0.00    +0.000 C 
ATOM     23  O   UNL     1       1.627  12.696  21.435  0.00  0.00    +0.000 OA
BRANCH  22  24
ATOM     24  C   UNL     1       0.316  14.085  20.088  0.00  0.00    +0.000 A 
ATOM     25  C   UNL     1      -0.931  14.711  20.201  0.00  0.00    +0.000 A 
ATOM     26  C   UNL     1      -1.173  15.944  19.578  0.00  0.00    +0.000 A 
ATOM     27  C   UNL     1      -0.140  16.548  18.848  0.00  0.00    +0.000 A 
ATOM     28  N   UNL     1      -0.132  17.747  18.183  0.00  0.00    +0.000 NA
ATOM     29  C   UNL     1       1.078  17.854  17.683  0.00  0.00    +0.000 A 
ATOM     30  N   UNL     1       1.849  16.769  17.990  0.00  0.00    +0.000 N 
ATOM     31  C   UNL     1       3.230  16.589  17.623  0.00  0.00    +0.000 C 
ATOM     32  C   UNL     1       1.090  15.906  18.740  0.00  0.00    +0.000 A 
ATOM     33  C   UNL     1       1.350  14.663  19.328  0.00  0.00    +0.000 A 
ENDBRANCH  22  24
ENDBRANCH   7  22
TORSDOF 6
ENDMDL
