MODEL 1
REMARK VINA RESULT:      -7.9      0.000      0.000
REMARK  Name = 
REMARK  11 active torsions:
REMARK  status: ('A' for Active; 'I' for Inactive)
REMARK    1  A    between atoms: C_1  and  O_2
REMARK    2  A    between atoms: O_2  and  C_3
REMARK    3  A    between atoms: C_5  and  C_6
REMARK    4  A    between atoms: C_7  and  C_8
REMARK    5  A    between atoms: C_8  and  O_10
REMARK    6  A    between atoms: C_12  and  S_13
REMARK    7  A    between atoms: S_13  and  N_16
REMARK    8  A    between atoms: N_16  and  C_17
REMARK    9  A    between atoms: C_17  and  C_18
REMARK   10  A    between atoms: C_27  and  O_28
REMARK   11  A    between atoms: O_28  and  C_29
REMARK                            x       y       z     vdW  Elec       q    Type
REMARK                         _______ _______ _______ _____ _____    ______ ____
ROOT
ATOM      1  C   UNL     1       6.946   5.815  16.851  0.00  0.00    +0.000 A 
ATOM      2  C   UNL     1       6.692   5.253  15.587  0.00  0.00    +0.000 A 
ATOM      3  C   UNL     1       5.692   4.299  15.410  0.00  0.00    +0.000 A 
ATOM      4  C   UNL     1       5.054   3.795  16.538  0.00  0.00    +0.000 A 
ATOM      5  C   UNL     1       5.310   4.328  17.809  0.00  0.00    +0.000 A 
ATOM      6  C   UNL     1       6.251   5.356  17.989  0.00  0.00    +0.000 A 
ENDROOT
BRANCH   5   7
ATOM      7  S   UNL     1       4.241   3.764  19.118  0.00  0.00    +0.000 S 
ATOM      8  O   UNL     1       3.023   3.238  18.546  0.00  0.00    +0.000 OA
ATOM      9  O   UNL     1       5.053   2.943  19.993  0.00  0.00    +0.000 OA
BRANCH   7  10
ATOM     10  N   UNL     1       3.919   5.163  19.996  0.00  0.00    +0.000 NA
ATOM     11  H   UNL     1       4.520   5.943  19.735  0.00  0.00    +0.000 HD
BRANCH  10  12
ATOM     12  C   UNL     1       2.512   5.547  20.096  0.00  0.00    +0.000 C 
BRANCH  12  13
ATOM     13  C   UNL     1       2.309   6.959  19.616  0.00  0.00    +0.000 A 
ATOM     14  C   UNL     1       2.660   7.337  18.299  0.00  0.00    +0.000 A 
ATOM     15  C   UNL     1       2.276   8.578  17.787  0.00  0.00    +0.000 A 
ATOM     16  C   UNL     1       1.518   9.389  18.604  0.00  0.00    +0.000 A 
ATOM     17  C   UNL     1       1.241   9.052  19.912  0.00  0.00    +0.000 A 
ATOM     18  C   UNL     1       1.647   7.866  20.460  0.00  0.00    +0.000 A 
ATOM     19  O   UNL     1       0.420   9.959  20.513  0.00  0.00    +0.000 OA
ATOM     20  C   UNL     1      -0.061  10.627  19.333  0.00  0.00    +0.000 C 
ATOM     21  O   UNL     1       0.864  10.525  18.234  0.00  0.00    +0.000 OA
ENDBRANCH  12  13
ENDBRANCH  10  12
ENDBRANCH   7  10
ENDBRANCH   5   7
BRANCH   1  23
ATOM     22  C   UNL     1       7.406   8.061  17.448  0.00  0.00    +0.000 C 
ATOM     23  O   UNL     1       7.891   6.800  16.984  0.00  0.00    +0.000 OA
ENDBRANCH   1  23
BRANCH   3  24
ATOM     24  C   UNL     1       5.279   3.912  14.054  0.00  0.00    +0.000 C 
ATOM     25  C   UNL     1       6.171   3.536  13.123  0.00  0.00    +0.000 C 
BRANCH  25  26
ATOM     26  C   UNL     1       5.721   3.037  11.814  0.00  0.00    +0.000 C 
ATOM     27  O   UNL     1       6.169   2.050  11.258  0.00  0.00    +0.000 OA
BRANCH  26  28
ATOM     28  O   UNL     1       4.751   3.817  11.275  0.00  0.00    +0.000 OA
ATOM     29  H   UNL     1       4.976   4.761  11.188  0.00  0.00    +0.000 HD
ENDBRANCH  26  28
ENDBRANCH  25  26
ENDBRANCH   3  24
BRANCH   6  30
ATOM     30  O   UNL     1       6.408   5.801  19.269  0.00  0.00    +0.000 OA
ATOM     31  C   UNL     1       7.584   5.489  20.002  0.00  0.00    +0.000 C 
ENDBRANCH   6  30
TORSDOF 9
ENDMDL
MODEL 2
REMARK VINA RESULT:      -7.8      0.759      1.097
REMARK  Name = 
REMARK  11 active torsions:
REMARK  status: ('A' for Active; 'I' for Inactive)
REMARK    1  A    between atoms: C_1  and  O_2
REMARK    2  A    between atoms: O_2  and  C_3
REMARK    3  A    between atoms: C_5  and  C_6
REMARK    4  A    between atoms: C_7  and  C_8
REMARK    5  A    between atoms: C_8  and  O_10
REMARK    6  A    between atoms: C_12  and  S_13
REMARK    7  A    between atoms: S_13  and  N_16
REMARK    8  A    between atoms: N_16  and  C_17
REMARK    9  A    between atoms: C_17  and  C_18
REMARK   10  A    between atoms: C_27  and  O_28
REMARK   11  A    between atoms: O_28  and  C_29
REMARK                            x       y       z     vdW  Elec       q    Type
REMARK                         _______ _______ _______ _____ _____    ______ ____
ROOT
ATOM      1  C   UNL     1       6.987   5.899  16.647  0.00  0.00    +0.000 A 
ATOM      2  C   UNL     1       6.784   5.396  15.348  0.00  0.00    +0.000 A 
ATOM      3  C   UNL     1       5.828   4.414  15.098  0.00  0.00    +0.000 A 
ATOM      4  C   UNL     1       5.187   3.825  16.182  0.00  0.00    +0.000 A 
ATOM      5  C   UNL     1       5.393   4.299  17.485  0.00  0.00    +0.000 A 
ATOM      6  C   UNL     1       6.287   5.352  17.742  0.00  0.00    +0.000 A 
ENDROOT
BRANCH   5   7
ATOM      7  S   UNL     1       4.320   3.623  18.736  0.00  0.00    +0.000 S 
ATOM      8  O   UNL     1       3.398   2.695  18.123  0.00  0.00    +0.000 OA
ATOM      9  O   UNL     1       5.171   3.197  19.828  0.00  0.00    +0.000 OA
BRANCH   7  10
ATOM     10  N   UNL     1       3.494   4.969  19.318  0.00  0.00    +0.000 NA
ATOM     11  H   UNL     1       4.095   5.613  19.829  0.00  0.00    +0.000 HD
BRANCH  10  12
ATOM     12  C   UNL     1       2.625   5.651  18.361  0.00  0.00    +0.000 C 
BRANCH  12  13
ATOM     13  C   UNL     1       2.279   7.034  18.846  0.00  0.00    +0.000 A 
ATOM     14  C   UNL     1       2.164   8.115  17.940  0.00  0.00    +0.000 A 
ATOM     15  C   UNL     1       1.636   9.339  18.356  0.00  0.00    +0.000 A 
ATOM     16  C   UNL     1       1.206   9.429  19.661  0.00  0.00    +0.000 A 
ATOM     17  C   UNL     1       1.388   8.401  20.562  0.00  0.00    +0.000 A 
ATOM     18  C   UNL     1       1.949   7.206  20.200  0.00  0.00    +0.000 A 
ATOM     19  O   UNL     1       0.827   8.673  21.773  0.00  0.00    +0.000 OA
ATOM     20  C   UNL     1      -0.022   9.765  21.375  0.00  0.00    +0.000 C 
ATOM     21  O   UNL     1       0.473  10.441  20.204  0.00  0.00    +0.000 OA
ENDBRANCH  12  13
ENDBRANCH  10  12
ENDBRANCH   7  10
ENDBRANCH   5   7
BRANCH   1  23
ATOM     22  C   UNL     1       7.338   8.134  17.349  0.00  0.00    +0.000 C 
ATOM     23  O   UNL     1       7.888   6.912  16.854  0.00  0.00    +0.000 OA
ENDBRANCH   1  23
BRANCH   3  24
ATOM     24  C   UNL     1       5.461   4.084  13.713  0.00  0.00    +0.000 C 
ATOM     25  C   UNL     1       5.925   2.982  13.103  0.00  0.00    +0.000 C 
BRANCH  25  26
ATOM     26  C   UNL     1       5.446   2.612  11.761  0.00  0.00    +0.000 C 
ATOM     27  O   UNL     1       4.467   3.093  11.219  0.00  0.00    +0.000 OA
BRANCH  26  28
ATOM     28  O   UNL     1       6.214   1.651  11.190  0.00  0.00    +0.000 OA
ATOM     29  H   UNL     1       6.599   1.884  10.326  0.00  0.00    +0.000 HD
ENDBRANCH  26  28
ENDBRANCH  25  26
ENDBRANCH   3  24
BRANCH   6  30
ATOM     30  O   UNL     1       6.398   5.733  19.047  0.00  0.00    +0.000 OA
ATOM     31  C   UNL     1       7.615   5.544  19.753  0.00  0.00    +0.000 C 
ENDBRANCH   6  30
TORSDOF 9
ENDMDL
MODEL 3
REMARK VINA RESULT:      -7.8      0.693      1.450
REMARK  Name = 
REMARK  11 active torsions:
REMARK  status: ('A' for Active; 'I' for Inactive)
REMARK    1  A    between atoms: C_1  and  O_2
REMARK    2  A    between atoms: O_2  and  C_3
REMARK    3  A    between atoms: C_5  and  C_6
REMARK    4  A    between atoms: C_7  and  C_8
REMARK    5  A    between atoms: C_8  and  O_10
REMARK    6  A    between atoms: C_12  and  S_13
REMARK    7  A    between atoms: S_13  and  N_16
REMARK    8  A    between atoms: N_16  and  C_17
REMARK    9  A    between atoms: C_17  and  C_18
REMARK   10  A    between atoms: C_27  and  O_28
REMARK   11  A    between atoms: O_28  and  C_29
REMARK                            x       y       z     vdW  Elec       q    Type
REMARK                         _______ _______ _______ _____ _____    ______ ____
ROOT
ATOM      1  C   UNL     1       7.159   6.085  16.630  0.00  0.00    +0.000 A 
ATOM      2  C   UNL     1       6.900   5.568  15.348  0.00  0.00    +0.000 A 
ATOM      3  C   UNL     1       5.913   4.606  15.145  0.00  0.00    +0.000 A 
ATOM      4  C   UNL     1       5.296   4.049  16.260  0.00  0.00    +0.000 A 
ATOM      5  C   UNL     1       5.558   4.537  17.547  0.00  0.00    +0.000 A 
ATOM      6  C   UNL     1       6.485   5.572  17.757  0.00  0.00    +0.000 A 
ENDROOT
BRANCH   5   7
ATOM      7  S   UNL     1       4.512   3.906  18.844  0.00  0.00    +0.000 S 
ATOM      8  O   UNL     1       3.334   3.308  18.260  0.00  0.00    +0.000 OA
ATOM      9  O   UNL     1       5.364   3.134  19.727  0.00  0.00    +0.000 OA
BRANCH   7  10
ATOM     10  N   UNL     1       4.097   5.281  19.721  0.00  0.00    +0.000 NA
ATOM     11  H   UNL     1       4.367   6.146  19.255  0.00  0.00    +0.000 HD
BRANCH  10  12
ATOM     12  C   UNL     1       2.730   5.323  20.237  0.00  0.00    +0.000 C 
BRANCH  12  13
ATOM     13  C   UNL     1       2.086   6.650  19.932  0.00  0.00    +0.000 A 
ATOM     14  C   UNL     1       1.440   7.396  20.946  0.00  0.00    +0.000 A 
ATOM     15  C   UNL     1       1.037   8.712  20.714  0.00  0.00    +0.000 A 
ATOM     16  C   UNL     1       1.327   9.252  19.481  0.00  0.00    +0.000 A 
ATOM     17  C   UNL     1       1.888   8.502  18.469  0.00  0.00    +0.000 A 
ATOM     18  C   UNL     1       2.248   7.194  18.647  0.00  0.00    +0.000 A 
ATOM     19  O   UNL     1       2.155   9.250  17.362  0.00  0.00    +0.000 OA
ATOM     20  C   UNL     1       2.064  10.556  17.959  0.00  0.00    +0.000 C 
ATOM     21  O   UNL     1       1.221  10.564  19.126  0.00  0.00    +0.000 OA
ENDBRANCH  12  13
ENDBRANCH  10  12
ENDBRANCH   7  10
ENDBRANCH   5   7
BRANCH   1  23
ATOM     22  C   UNL     1       7.620   8.266  17.434  0.00  0.00    +0.000 C 
ATOM     23  O   UNL     1       8.090   7.080  16.791  0.00  0.00    +0.000 OA
ENDBRANCH   1  23
BRANCH   3  24
ATOM     24  C   UNL     1       5.492   4.264  13.779  0.00  0.00    +0.000 C 
ATOM     25  C   UNL     1       5.933   3.157  13.159  0.00  0.00    +0.000 C 
BRANCH  25  26
ATOM     26  C   UNL     1       5.401   2.776  11.841  0.00  0.00    +0.000 C 
ATOM     27  O   UNL     1       4.408   3.261  11.329  0.00  0.00    +0.000 OA
BRANCH  26  28
ATOM     28  O   UNL     1       6.137   1.799  11.255  0.00  0.00    +0.000 OA
ATOM     29  H   UNL     1       6.865   1.444  11.798  0.00  0.00    +0.000 HD
ENDBRANCH  26  28
ENDBRANCH  25  26
ENDBRANCH   3  24
BRANCH   6  30
ATOM     30  O   UNL     1       6.649   5.970  19.051  0.00  0.00    +0.000 OA
ATOM     31  C   UNL     1       7.808   5.595  19.780  0.00  0.00    +0.000 C 
ENDBRANCH   6  30
TORSDOF 9
ENDMDL
MODEL 4
REMARK VINA RESULT:      -7.5      4.685      9.551
REMARK  Name = 
REMARK  11 active torsions:
REMARK  status: ('A' for Active; 'I' for Inactive)
REMARK    1  A    between atoms: C_1  and  O_2
REMARK    2  A    between atoms: O_2  and  C_3
REMARK    3  A    between atoms: C_5  and  C_6
REMARK    4  A    between atoms: C_7  and  C_8
REMARK    5  A    between atoms: C_8  and  O_10
REMARK    6  A    between atoms: C_12  and  S_13
REMARK    7  A    between atoms: S_13  and  N_16
REMARK    8  A    between atoms: N_16  and  C_17
REMARK    9  A    between atoms: C_17  and  C_18
REMARK   10  A    between atoms: C_27  and  O_28
REMARK   11  A    between atoms: O_28  and  C_29
REMARK                            x       y       z     vdW  Elec       q    Type
REMARK                         _______ _______ _______ _____ _____    ______ ____
ROOT
ATOM      1  C   UNL     1      -4.272  11.619  17.734  0.00  0.00    +0.000 A 
ATOM      2  C   UNL     1      -4.227  11.266  16.372  0.00  0.00    +0.000 A 
ATOM      3  C   UNL     1      -3.073  10.728  15.806  0.00  0.00    +0.000 A 
ATOM      4  C   UNL     1      -1.915  10.696  16.574  0.00  0.00    +0.000 A 
ATOM      5  C   UNL     1      -1.936  11.064  17.926  0.00  0.00    +0.000 A 
ATOM      6  C   UNL     1      -3.116  11.521  18.536  0.00  0.00    +0.000 A 
ENDROOT
BRANCH   5   7
ATOM      7  S   UNL     1      -0.446  10.731  18.845  0.00  0.00    +0.000 S 
ATOM      8  O   UNL     1       0.261  11.969  19.074  0.00  0.00    +0.000 OA
ATOM      9  O   UNL     1      -0.825   9.887  19.959  0.00  0.00    +0.000 OA
BRANCH   7  10
ATOM     10  N   UNL     1       0.438   9.735  17.815  0.00  0.00    +0.000 NA
ATOM     11  H   UNL     1       0.169   9.836  16.838  0.00  0.00    +0.000 HD
BRANCH  10  12
ATOM     12  C   UNL     1       1.887   9.743  18.004  0.00  0.00    +0.000 C 
BRANCH  12  13
ATOM     13  C   UNL     1       2.370   8.401  18.486  0.00  0.00    +0.000 A 
ATOM     14  C   UNL     1       1.909   7.859  19.709  0.00  0.00    +0.000 A 
ATOM     15  C   UNL     1       2.185   6.532  20.049  0.00  0.00    +0.000 A 
ATOM     16  C   UNL     1       2.884   5.780  19.132  0.00  0.00    +0.000 A 
ATOM     17  C   UNL     1       3.397   6.329  17.976  0.00  0.00    +0.000 A 
ATOM     18  C   UNL     1       3.189   7.639  17.638  0.00  0.00    +0.000 A 
ATOM     19  O   UNL     1       3.990   5.394  17.182  0.00  0.00    +0.000 OA
ATOM     20  C   UNL     1       3.434   4.214  17.789  0.00  0.00    +0.000 C 
ATOM     21  O   UNL     1       3.068   4.430  19.164  0.00  0.00    +0.000 OA
ENDBRANCH  12  13
ENDBRANCH  10  12
ENDBRANCH   7  10
ENDBRANCH   5   7
BRANCH   1  23
ATOM     22  C   UNL     1      -6.235  12.910  17.428  0.00  0.00    +0.000 C 
ATOM     23  O   UNL     1      -5.441  12.084  18.281  0.00  0.00    +0.000 OA
ENDBRANCH   1  23
BRANCH   3  24
ATOM     24  C   UNL     1      -3.123  10.141  14.460  0.00  0.00    +0.000 C 
ATOM     25  C   UNL     1      -4.247  10.150  13.725  0.00  0.00    +0.000 C 
BRANCH  25  26
ATOM     26  C   UNL     1      -4.237   9.665  12.336  0.00  0.00    +0.000 C 
ATOM     27  O   UNL     1      -5.234   9.430  11.677  0.00  0.00    +0.000 OA
BRANCH  26  28
ATOM     28  O   UNL     1      -2.977   9.488  11.865  0.00  0.00    +0.000 OA
ATOM     29  H   UNL     1      -2.402   8.924  12.415  0.00  0.00    +0.000 HD
ENDBRANCH  26  28
ENDBRANCH  25  26
ENDBRANCH   3  24
BRANCH   6  30
ATOM     30  O   UNL     1      -3.017  11.841  19.857  0.00  0.00    +0.000 OA
ATOM     31  C   UNL     1      -2.836  13.191  20.261  0.00  0.00    +0.000 C 
ENDBRANCH   6  30
TORSDOF 9
ENDMDL
MODEL 5
REMARK VINA RESULT:      -7.3      0.625      1.413
REMARK  Name = 
REMARK  11 active torsions:
REMARK  status: ('A' for Active; 'I' for Inactive)
REMARK    1  A    between atoms: C_1  and  O_2
REMARK    2  A    between atoms: O_2  and  C_3
REMARK    3  A    between atoms: C_5  and  C_6
REMARK    4  A    between atoms: C_7  and  C_8
REMARK    5  A    between atoms: C_8  and  O_10
REMARK    6  A    between atoms: C_12  and  S_13
REMARK    7  A    between atoms: S_13  and  N_16
REMARK    8  A    between atoms: N_16  and  C_17
REMARK    9  A    between atoms: C_17  and  C_18
REMARK   10  A    between atoms: C_27  and  O_28
REMARK   11  A    between atoms: O_28  and  C_29
REMARK                            x       y       z     vdW  Elec       q    Type
REMARK                         _______ _______ _______ _____ _____    ______ ____
ROOT
ATOM      1  C   UNL     1       7.022   5.733  17.117  0.00  0.00    +0.000 A 
ATOM      2  C   UNL     1       6.800   5.263  15.809  0.00  0.00    +0.000 A 
ATOM      3  C   UNL     1       5.765   4.372  15.531  0.00  0.00    +0.000 A 
ATOM      4  C   UNL     1       5.054   3.833  16.596  0.00  0.00    +0.000 A 
ATOM      5  C   UNL     1       5.277   4.274  17.908  0.00  0.00    +0.000 A 
ATOM      6  C   UNL     1       6.256   5.241  18.193  0.00  0.00    +0.000 A 
ENDROOT
BRANCH   5   7
ATOM      7  S   UNL     1       4.124   3.684  19.132  0.00  0.00    +0.000 S 
ATOM      8  O   UNL     1       3.119   2.870  18.488  0.00  0.00    +0.000 OA
ATOM      9  O   UNL     1       4.913   3.148  20.222  0.00  0.00    +0.000 OA
BRANCH   7  10
ATOM     10  N   UNL     1       3.434   5.095  19.737  0.00  0.00    +0.000 NA
ATOM     11  H   UNL     1       3.944   5.478  20.531  0.00  0.00    +0.000 HD
BRANCH  10  12
ATOM     12  C   UNL     1       3.085   6.113  18.748  0.00  0.00    +0.000 C 
BRANCH  12  13
ATOM     13  C   UNL     1       2.187   7.159  19.354  0.00  0.00    +0.000 A 
ATOM     14  C   UNL     1       1.731   7.042  20.688  0.00  0.00    +0.000 A 
ATOM     15  C   UNL     1       1.083   8.108  21.315  0.00  0.00    +0.000 A 
ATOM     16  C   UNL     1       0.947   9.274  20.594  0.00  0.00    +0.000 A 
ATOM     17  C   UNL     1       1.324   9.363  19.271  0.00  0.00    +0.000 A 
ATOM     18  C   UNL     1       1.914   8.319  18.611  0.00  0.00    +0.000 A 
ATOM     19  O   UNL     1       1.166  10.622  18.775  0.00  0.00    +0.000 OA
ATOM     20  C   UNL     1       1.040  11.329  20.022  0.00  0.00    +0.000 C 
ATOM     21  O   UNL     1       0.550  10.484  21.080  0.00  0.00    +0.000 OA
ENDBRANCH  12  13
ENDBRANCH  10  12
ENDBRANCH   7  10
ENDBRANCH   5   7
BRANCH   1  23
ATOM     22  C   UNL     1       7.575   8.022  17.377  0.00  0.00    +0.000 C 
ATOM     23  O   UNL     1       8.006   6.660  17.352  0.00  0.00    +0.000 OA
ENDBRANCH   1  23
BRANCH   3  24
ATOM     24  C   UNL     1       5.397   4.090  14.136  0.00  0.00    +0.000 C 
ATOM     25  C   UNL     1       6.189   3.366  13.328  0.00  0.00    +0.000 C 
BRANCH  25  26
ATOM     26  C   UNL     1       5.741   2.996  11.976  0.00  0.00    +0.000 C 
ATOM     27  O   UNL     1       4.796   3.503  11.398  0.00  0.00    +0.000 OA
BRANCH  26  28
ATOM     28  O   UNL     1       6.493   2.002  11.442  0.00  0.00    +0.000 OA
ATOM     29  H   UNL     1       6.076   1.510  10.711  0.00  0.00    +0.000 HD
ENDBRANCH  26  28
ENDBRANCH  25  26
ENDBRANCH   3  24
BRANCH   6  30
ATOM     30  O   UNL     1       6.375   5.598  19.503  0.00  0.00    +0.000 OA
ATOM     31  C   UNL     1       7.649   5.629  20.130  0.00  0.00    +0.000 C 
ENDBRANCH   6  30
TORSDOF 9
ENDMDL
MODEL 6
REMARK VINA RESULT:      -7.2      1.935      7.776
REMARK  Name = 
REMARK  11 active torsions:
REMARK  status: ('A' for Active; 'I' for Inactive)
REMARK    1  A    between atoms: C_1  and  O_2
REMARK    2  A    between atoms: O_2  and  C_3
REMARK    3  A    between atoms: C_5  and  C_6
REMARK    4  A    between atoms: C_7  and  C_8
REMARK    5  A    between atoms: C_8  and  O_10
REMARK    6  A    between atoms: C_12  and  S_13
REMARK    7  A    between atoms: S_13  and  N_16
REMARK    8  A    between atoms: N_16  and  C_17
REMARK    9  A    between atoms: C_17  and  C_18
REMARK   10  A    between atoms: C_27  and  O_28
REMARK   11  A    between atoms: O_28  and  C_29
REMARK                            x       y       z     vdW  Elec       q    Type
REMARK                         _______ _______ _______ _____ _____    ______ ____
ROOT
ATOM      1  C   UNL     1       2.062   4.238  20.046  0.00  0.00    +0.000 A 
ATOM      2  C   UNL     1       1.547   5.528  20.271  0.00  0.00    +0.000 A 
ATOM      3  C   UNL     1       2.278   6.664  19.929  0.00  0.00    +0.000 A 
ATOM      4  C   UNL     1       3.593   6.501  19.508  0.00  0.00    +0.000 A 
ATOM      5  C   UNL     1       4.129   5.223  19.300  0.00  0.00    +0.000 A 
ATOM      6  C   UNL     1       3.371   4.067  19.552  0.00  0.00    +0.000 A 
ENDROOT
BRANCH   5   7
ATOM      7  S   UNL     1       5.731   5.171  18.521  0.00  0.00    +0.000 S 
ATOM      8  O   UNL     1       5.965   6.415  17.826  0.00  0.00    +0.000 OA
ATOM      9  O   UNL     1       6.666   4.705  19.524  0.00  0.00    +0.000 OA
BRANCH   7  10
ATOM     10  N   UNL     1       5.594   3.904  17.421  0.00  0.00    +0.000 NA
ATOM     11  H   UNL     1       5.352   3.019  17.863  0.00  0.00    +0.000 HD
BRANCH  10  12
ATOM     12  C   UNL     1       4.794   4.175  16.228  0.00  0.00    +0.000 C 
BRANCH  12  13
ATOM     13  C   UNL     1       5.649   4.124  14.990  0.00  0.00    +0.000 A 
ATOM     14  C   UNL     1       5.205   3.455  13.825  0.00  0.00    +0.000 A 
ATOM     15  C   UNL     1       5.895   3.591  12.619  0.00  0.00    +0.000 A 
ATOM     16  C   UNL     1       6.991   4.425  12.610  0.00  0.00    +0.000 A 
ATOM     17  C   UNL     1       7.467   5.016  13.761  0.00  0.00    +0.000 A 
ATOM     18  C   UNL     1       6.844   4.861  14.970  0.00  0.00    +0.000 A 
ATOM     19  O   UNL     1       8.513   5.854  13.514  0.00  0.00    +0.000 OA
ATOM     20  C   UNL     1       8.344   5.993  12.091  0.00  0.00    +0.000 C 
ATOM     21  O   UNL     1       7.665   4.864  11.511  0.00  0.00    +0.000 OA
ENDBRANCH  12  13
ENDBRANCH  10  12
ENDBRANCH   7  10
ENDBRANCH   5   7
BRANCH   1  23
ATOM     22  C   UNL     1       1.359   2.673  21.680  0.00  0.00    +0.000 C 
ATOM     23  O   UNL     1       1.294   3.137  20.330  0.00  0.00    +0.000 OA
ENDBRANCH   1  23
BRANCH   3  24
ATOM     24  C   UNL     1       1.630   7.983  19.940  0.00  0.00    +0.000 C 
ATOM     25  C   UNL     1       1.676   8.803  18.877  0.00  0.00    +0.000 C 
BRANCH  25  26
ATOM     26  C   UNL     1       0.917  10.063  18.871  0.00  0.00    +0.000 C 
ATOM     27  O   UNL     1      -0.091  10.268  19.524  0.00  0.00    +0.000 OA
BRANCH  26  28
ATOM     28  O   UNL     1       1.460  10.983  18.034  0.00  0.00    +0.000 OA
ATOM     29  H   UNL     1       0.951  11.809  17.937  0.00  0.00    +0.000 HD
ENDBRANCH  26  28
ENDBRANCH  25  26
ENDBRANCH   3  24
BRANCH   6  30
ATOM     30  O   UNL     1       3.996   2.880  19.304  0.00  0.00    +0.000 OA
ATOM     31  C   UNL     1       4.576   2.135  20.363  0.00  0.00    +0.000 C 
ENDBRANCH   6  30
TORSDOF 9
ENDMDL
MODEL 7
REMARK VINA RESULT:      -7.1      1.903      8.141
REMARK  Name = 
REMARK  11 active torsions:
REMARK  status: ('A' for Active; 'I' for Inactive)
REMARK    1  A    between atoms: C_1  and  O_2
REMARK    2  A    between atoms: O_2  and  C_3
REMARK    3  A    between atoms: C_5  and  C_6
REMARK    4  A    between atoms: C_7  and  C_8
REMARK    5  A    between atoms: C_8  and  O_10
REMARK    6  A    between atoms: C_12  and  S_13
REMARK    7  A    between atoms: S_13  and  N_16
REMARK    8  A    between atoms: N_16  and  C_17
REMARK    9  A    between atoms: C_17  and  C_18
REMARK   10  A    between atoms: C_27  and  O_28
REMARK   11  A    between atoms: O_28  and  C_29
REMARK                            x       y       z     vdW  Elec       q    Type
REMARK                         _______ _______ _______ _____ _____    ______ ____
ROOT
ATOM      1  C   UNL     1       2.378   4.807  18.562  0.00  0.00    +0.000 A 
ATOM      2  C   UNL     1       1.963   6.150  18.490  0.00  0.00    +0.000 A 
ATOM      3  C   UNL     1       2.861   7.164  18.165  0.00  0.00    +0.000 A 
ATOM      4  C   UNL     1       4.211   6.845  18.069  0.00  0.00    +0.000 A 
ATOM      5  C   UNL     1       4.645   5.515  18.159  0.00  0.00    +0.000 A 
ATOM      6  C   UNL     1       3.737   4.469  18.395  0.00  0.00    +0.000 A 
ENDROOT
BRANCH   5   7
ATOM      7  S   UNL     1       6.359   5.229  17.764  0.00  0.00    +0.000 S 
ATOM      8  O   UNL     1       6.993   6.488  17.450  0.00  0.00    +0.000 OA
ATOM      9  O   UNL     1       6.891   4.382  18.812  0.00  0.00    +0.000 OA
BRANCH   7  10
ATOM     10  N   UNL     1       6.291   4.252  16.396  0.00  0.00    +0.000 NA
ATOM     11  H   UNL     1       6.182   3.263  16.619  0.00  0.00    +0.000 HD
BRANCH  10  12
ATOM     12  C   UNL     1       5.386   4.693  15.337  0.00  0.00    +0.000 C 
BRANCH  12  13
ATOM     13  C   UNL     1       5.927   4.318  13.983  0.00  0.00    +0.000 A 
ATOM     14  C   UNL     1       7.144   4.862  13.509  0.00  0.00    +0.000 A 
ATOM     15  C   UNL     1       7.751   4.354  12.358  0.00  0.00    +0.000 A 
ATOM     16  C   UNL     1       7.134   3.290  11.738  0.00  0.00    +0.000 A 
ATOM     17  C   UNL     1       5.911   2.810  12.156  0.00  0.00    +0.000 A 
ATOM     18  C   UNL     1       5.265   3.319  13.249  0.00  0.00    +0.000 A 
ATOM     19  O   UNL     1       5.520   1.713  11.449  0.00  0.00    +0.000 OA
ATOM     20  C   UNL     1       6.790   1.374  10.861  0.00  0.00    +0.000 C 
ATOM     21  O   UNL     1       7.660   2.516  10.748  0.00  0.00    +0.000 OA
ENDBRANCH  12  13
ENDBRANCH  10  12
ENDBRANCH   7  10
ENDBRANCH   5   7
BRANCH   1  23
ATOM     22  C   UNL     1       0.907   3.822  20.136  0.00  0.00    +0.000 C 
ATOM     23  O   UNL     1       1.460   3.821  18.818  0.00  0.00    +0.000 OA
ENDBRANCH   1  23
BRANCH   3  24
ATOM     24  C   UNL     1       2.364   8.512  17.854  0.00  0.00    +0.000 C 
ATOM     25  C   UNL     1       1.500   9.151  18.660  0.00  0.00    +0.000 C 
BRANCH  25  26
ATOM     26  C   UNL     1       1.113  10.544  18.388  0.00  0.00    +0.000 C 
ATOM     27  O   UNL     1       1.853  11.504  18.510  0.00  0.00    +0.000 OA
BRANCH  26  28
ATOM     28  O   UNL     1      -0.181  10.649  17.997  0.00  0.00    +0.000 OA
ATOM     29  H   UNL     1      -0.343  10.493  17.049  0.00  0.00    +0.000 HD
ENDBRANCH  26  28
ENDBRANCH  25  26
ENDBRANCH   3  24
BRANCH   6  30
ATOM     30  O   UNL     1       4.274   3.217  18.453  0.00  0.00    +0.000 OA
ATOM     31  C   UNL     1       4.262   2.483  19.668  0.00  0.00    +0.000 C 
ENDBRANCH   6  30
TORSDOF 9
ENDMDL
MODEL 8
REMARK VINA RESULT:      -7.1      4.092      9.187
REMARK  Name = 
REMARK  11 active torsions:
REMARK  status: ('A' for Active; 'I' for Inactive)
REMARK    1  A    between atoms: C_1  and  O_2
REMARK    2  A    between atoms: O_2  and  C_3
REMARK    3  A    between atoms: C_5  and  C_6
REMARK    4  A    between atoms: C_7  and  C_8
REMARK    5  A    between atoms: C_8  and  O_10
REMARK    6  A    between atoms: C_12  and  S_13
REMARK    7  A    between atoms: S_13  and  N_16
REMARK    8  A    between atoms: N_16  and  C_17
REMARK    9  A    between atoms: C_17  and  C_18
REMARK   10  A    between atoms: C_27  and  O_28
REMARK   11  A    between atoms: O_28  and  C_29
REMARK                            x       y       z     vdW  Elec       q    Type
REMARK                         _______ _______ _______ _____ _____    ______ ____
ROOT
ATOM      1  C   UNL     1      -3.539  11.769  18.784  0.00  0.00    +0.000 A 
ATOM      2  C   UNL     1      -3.828  11.304  17.488  0.00  0.00    +0.000 A 
ATOM      3  C   UNL     1      -2.917  10.520  16.784  0.00  0.00    +0.000 A 
ATOM      4  C   UNL     1      -1.649  10.336  17.324  0.00  0.00    +0.000 A 
ATOM      5  C   UNL     1      -1.336  10.810  18.605  0.00  0.00    +0.000 A 
ATOM      6  C   UNL     1      -2.277  11.525  19.365  0.00  0.00    +0.000 A 
ENDROOT
BRANCH   5   7
ATOM      7  S   UNL     1       0.233  10.284  19.266  0.00  0.00    +0.000 S 
ATOM      8  O   UNL     1       1.108  11.427  19.387  0.00  0.00    +0.000 OA
ATOM      9  O   UNL     1      -0.059   9.459  20.421  0.00  0.00    +0.000 OA
BRANCH   7  10
ATOM     10  N   UNL     1       0.817   9.222  18.099  0.00  0.00    +0.000 NA
ATOM     11  H   UNL     1       0.301   9.273  17.221  0.00  0.00    +0.000 HD
BRANCH  10  12
ATOM     12  C   UNL     1       2.265   9.220  17.900  0.00  0.00    +0.000 C 
BRANCH  12  13
ATOM     13  C   UNL     1       2.789   7.811  17.812  0.00  0.00    +0.000 A 
ATOM     14  C   UNL     1       4.059   7.541  17.251  0.00  0.00    +0.000 A 
ATOM     15  C   UNL     1       4.633   6.273  17.365  0.00  0.00    +0.000 A 
ATOM     16  C   UNL     1       3.928   5.324  18.071  0.00  0.00    +0.000 A 
ATOM     17  C   UNL     1       2.659   5.565  18.552  0.00  0.00    +0.000 A 
ATOM     18  C   UNL     1       2.046   6.781  18.412  0.00  0.00    +0.000 A 
ATOM     19  O   UNL     1       2.176   4.518  19.279  0.00  0.00    +0.000 OA
ATOM     20  C   UNL     1       3.417   3.823  19.501  0.00  0.00    +0.000 C 
ATOM     21  O   UNL     1       4.393   4.111  18.482  0.00  0.00    +0.000 OA
ENDBRANCH  12  13
ENDBRANCH  10  12
ENDBRANCH   7  10
ENDBRANCH   5   7
BRANCH   1  23
ATOM     22  C   UNL     1      -5.772  11.879  19.568  0.00  0.00    +0.000 C 
ATOM     23  O   UNL     1      -4.480  12.484  19.480  0.00  0.00    +0.000 OA
ENDBRANCH   1  23
BRANCH   3  24
ATOM     24  C   UNL     1      -3.334   9.844  15.547  0.00  0.00    +0.000 C 
ATOM     25  C   UNL     1      -3.416  10.498  14.377  0.00  0.00    +0.000 C 
BRANCH  25  26
ATOM     26  C   UNL     1      -3.717   9.771  13.134  0.00  0.00    +0.000 C 
ATOM     27  O   UNL     1      -4.835   9.449  12.773  0.00  0.00    +0.000 OA
BRANCH  26  28
ATOM     28  O   UNL     1      -2.596   9.479  12.428  0.00  0.00    +0.000 OA
ATOM     29  H   UNL     1      -1.769   9.474  12.943  0.00  0.00    +0.000 HD
ENDBRANCH  26  28
ENDBRANCH  25  26
ENDBRANCH   3  24
BRANCH   6  30
ATOM     30  O   UNL     1      -1.862  11.928  20.600  0.00  0.00    +0.000 OA
ATOM     31  C   UNL     1      -1.415  13.259  20.813  0.00  0.00    +0.000 C 
ENDBRANCH   6  30
TORSDOF 9
ENDMDL
MODEL 9
REMARK VINA RESULT:      -6.9      1.865      8.077
REMARK  Name = 
REMARK  11 active torsions:
REMARK  status: ('A' for Active; 'I' for Inactive)
REMARK    1  A    between atoms: C_1  and  O_2
REMARK    2  A    between atoms: O_2  and  C_3
REMARK    3  A    between atoms: C_5  and  C_6
REMARK    4  A    between atoms: C_7  and  C_8
REMARK    5  A    between atoms: C_8  and  O_10
REMARK    6  A    between atoms: C_12  and  S_13
REMARK    7  A    between atoms: S_13  and  N_16
REMARK    8  A    between atoms: N_16  and  C_17
REMARK    9  A    between atoms: C_17  and  C_18
REMARK   10  A    between atoms: C_27  and  O_28
REMARK   11  A    between atoms: O_28  and  C_29
REMARK                            x       y       z     vdW  Elec       q    Type
REMARK                         _______ _______ _______ _____ _____    ______ ____
ROOT
ATOM      1  C   UNL     1       2.385   3.982  19.804  0.00  0.00    +0.000 A 
ATOM      2  C   UNL     1       1.835   5.267  19.963  0.00  0.00    +0.000 A 
ATOM      3  C   UNL     1       2.487   6.395  19.469  0.00  0.00    +0.000 A 
ATOM      4  C   UNL     1       3.770   6.244  18.954  0.00  0.00    +0.000 A 
ATOM      5  C   UNL     1       4.342   4.972  18.808  0.00  0.00    +0.000 A 
ATOM      6  C   UNL     1       3.657   3.816  19.219  0.00  0.00    +0.000 A 
ENDROOT
BRANCH   5   7
ATOM      7  S   UNL     1       5.876   4.911  17.905  0.00  0.00    +0.000 S 
ATOM      8  O   UNL     1       6.362   6.255  17.696  0.00  0.00    +0.000 OA
ATOM      9  O   UNL     1       6.708   3.926  18.566  0.00  0.00    +0.000 OA
BRANCH   7  10
ATOM     10  N   UNL     1       5.443   4.212  16.437  0.00  0.00    +0.000 NA
ATOM     11  H   UNL     1       4.726   3.494  16.535  0.00  0.00    +0.000 HD
BRANCH  10  12
ATOM     12  C   UNL     1       5.163   5.139  15.342  0.00  0.00    +0.000 C 
BRANCH  12  13
ATOM     13  C   UNL     1       5.777   4.648  14.058  0.00  0.00    +0.000 A 
ATOM     14  C   UNL     1       7.103   4.991  13.707  0.00  0.00    +0.000 A 
ATOM     15  C   UNL     1       7.741   4.366  12.634  0.00  0.00    +0.000 A 
ATOM     16  C   UNL     1       7.038   3.387  11.967  0.00  0.00    +0.000 A 
ATOM     17  C   UNL     1       5.720   3.105  12.261  0.00  0.00    +0.000 A 
ATOM     18  C   UNL     1       5.050   3.737  13.274  0.00  0.00    +0.000 A 
ATOM     19  O   UNL     1       5.243   2.058  11.532  0.00  0.00    +0.000 OA
ATOM     20  C   UNL     1       6.500   1.518  11.086  0.00  0.00    +0.000 C 
ATOM     21  O   UNL     1       7.539   2.514  11.048  0.00  0.00    +0.000 OA
ENDBRANCH  12  13
ENDBRANCH  10  12
ENDBRANCH   7  10
ENDBRANCH   5   7
BRANCH   1  23
ATOM     22  C   UNL     1       1.697   2.673  21.655  0.00  0.00    +0.000 C 
ATOM     23  O   UNL     1       1.691   2.883  20.242  0.00  0.00    +0.000 OA
ENDBRANCH   1  23
BRANCH   3  24
ATOM     24  C   UNL     1       1.786   7.686  19.425  0.00  0.00    +0.000 C 
ATOM     25  C   UNL     1       2.169   8.671  18.596  0.00  0.00    +0.000 C 
BRANCH  25  26
ATOM     26  C   UNL     1       1.377   9.906  18.485  0.00  0.00    +0.000 C 
ATOM     27  O   UNL     1       0.390  10.158  19.153  0.00  0.00    +0.000 OA
BRANCH  26  28
ATOM     28  O   UNL     1       1.862  10.741  17.532  0.00  0.00    +0.000 OA
ATOM     29  H   UNL     1       2.574  11.339  17.825  0.00  0.00    +0.000 HD
ENDBRANCH  26  28
ENDBRANCH  25  26
ENDBRANCH   3  24
BRANCH   6  30
ATOM     30  O   UNL     1       4.309   2.636  19.017  0.00  0.00    +0.000 OA
ATOM     31  C   UNL     1       3.717   1.608  18.237  0.00  0.00    +0.000 C 
ENDBRANCH   6  30
TORSDOF 9
ENDMDL
