MODEL 1
REMARK VINA RESULT:      -8.5      0.000      0.000
REMARK  Name = 
REMARK  2 active torsions:
REMARK  status: ('A' for Active; 'I' for Inactive)
REMARK    1  A    between atoms: C_2  and  C_3
REMARK    2  A    between atoms: C_5  and  N_6
REMARK                            x       y       z     vdW  Elec       q    Type
REMARK                         _______ _______ _______ _____ _____    ______ ____
ROOT
ATOM      1  C   UNL     1      -2.403  12.058  18.991  0.00  0.00    +0.000 C 
ATOM      2  C   UNL     1      -1.574  10.793  19.192  0.00  0.00    +0.000 C 
ATOM      3  C   UNL     1      -0.275  11.090  18.441  0.00  0.00    +0.000 C 
ATOM      4  C   UNL     1      -0.154  12.625  18.523  0.00  0.00    +0.000 C 
ATOM      5  N   UNL     1      -1.401  13.135  19.076  0.00  0.00    +0.000 NA
ATOM      6  H   UNL     1      -1.696  13.991  18.620  0.00  0.00    +0.000 HD
ENDROOT
BRANCH   3   7
ATOM      7  N   UNL     1       0.908  10.339  18.915  0.00  0.00    +0.000 NA
ATOM      8  C   UNL     1       1.582   9.655  17.781  0.00  0.00    +0.000 C 
ATOM      9  C   UNL     1       2.716   8.690  18.186  0.00  0.00    +0.000 C 
ATOM     10  N   UNL     1       2.212   7.746  19.172  0.00  0.00    +0.000 N 
ATOM     11  C   UNL     1       2.261   6.419  18.945  0.00  0.00    +0.000 A 
ATOM     12  N   UNL     1       2.921   5.792  17.982  0.00  0.00    +0.000 NA
ATOM     13  C   UNL     1       2.601   4.480  18.185  0.00  0.00    +0.000 A 
ATOM     14  C   UNL     1       2.980   3.312  17.515  0.00  0.00    +0.000 A 
ATOM     15  C   UNL     1       2.429   2.114  17.964  0.00  0.00    +0.000 A 
ATOM     16  C   UNL     1       1.544   2.134  19.042  0.00  0.00    +0.000 A 
ATOM     17  N   UNL     1       1.161   3.235  19.735  0.00  0.00    +0.000 NA
ATOM     18  C   UNL     1       1.725   4.359  19.258  0.00  0.00    +0.000 A 
ATOM     19  O   UNL     1       1.521   5.606  19.757  0.00  0.00    +0.000 OA
ATOM     20  C   UNL     1       1.633   8.346  20.362  0.00  0.00    +0.000 C 
ATOM     21  C   UNL     1       0.535   9.364  19.976  0.00  0.00    +0.000 C 
ENDBRANCH   3   7
BRANCH   1  23
ATOM     22  O   UNL     1      -3.163  12.600  21.240  0.00  0.00    +0.000 OA
ATOM     23  C   UNL     1      -3.462  12.271  20.092  0.00  0.00    +0.000 C 
ATOM     24  N   UNL     1      -4.779  12.075  19.721  0.00  0.00    +0.000 N 
ATOM     25  C   UNL     1      -5.886  12.464  20.576  0.00  0.00    +0.000 C 
ATOM     26  C   UNL     1      -6.943  11.409  20.313  0.00  0.00    +0.000 C 
ATOM     27  C   UNL     1      -6.754  11.117  18.837  0.00  0.00    +0.000 C 
ATOM     28  F   UNL     1      -7.183   9.878  18.521  0.00  0.00    +0.000 F 
ATOM     29  F   UNL     1      -7.457  11.999  18.088  0.00  0.00    +0.000 F 
ATOM     30  C   UNL     1      -5.259  11.280  18.593  0.00  0.00    +0.000 C 
ENDBRANCH   1  23
TORSDOF 2
ENDMDL
MODEL 2
REMARK VINA RESULT:      -8.3      2.516      2.842
REMARK  Name = 
REMARK  2 active torsions:
REMARK  status: ('A' for Active; 'I' for Inactive)
REMARK    1  A    between atoms: C_2  and  C_3
REMARK    2  A    between atoms: C_5  and  N_6
REMARK                            x       y       z     vdW  Elec       q    Type
REMARK                         _______ _______ _______ _____ _____    ______ ____
ROOT
ATOM      1  C   UNL     1      -2.217  12.595  20.196  0.00  0.00    +0.000 C 
ATOM      2  C   UNL     1      -1.213  11.580  20.732  0.00  0.00    +0.000 C 
ATOM      3  C   UNL     1      -0.793  10.796  19.488  0.00  0.00    +0.000 C 
ATOM      4  C   UNL     1      -0.970  11.815  18.343  0.00  0.00    +0.000 C 
ATOM      5  N   UNL     1      -1.645  12.981  18.894  0.00  0.00    +0.000 NA
ATOM      6  H   UNL     1      -2.333  13.360  18.253  0.00  0.00    +0.000 HD
ENDROOT
BRANCH   3   7
ATOM      7  N   UNL     1       0.542  10.163  19.567  0.00  0.00    +0.000 NA
ATOM      8  C   UNL     1       0.919   9.574  18.256  0.00  0.00    +0.000 C 
ATOM      9  C   UNL     1       2.207   8.725  18.273  0.00  0.00    +0.000 C 
ATOM     10  N   UNL     1       2.102   7.716  19.315  0.00  0.00    +0.000 N 
ATOM     11  C   UNL     1       2.207   6.405  19.020  0.00  0.00    +0.000 A 
ATOM     12  N   UNL     1       2.616   5.868  17.879  0.00  0.00    +0.000 NA
ATOM     13  C   UNL     1       2.493   4.526  18.103  0.00  0.00    +0.000 A 
ATOM     14  C   UNL     1       2.770   3.416  17.297  0.00  0.00    +0.000 A 
ATOM     15  C   UNL     1       2.487   2.160  17.827  0.00  0.00    +0.000 A 
ATOM     16  C   UNL     1       1.955   2.067  19.112  0.00  0.00    +0.000 A 
ATOM     17  N   UNL     1       1.688   3.110  19.938  0.00  0.00    +0.000 NA
ATOM     18  C   UNL     1       1.981   4.295  19.375  0.00  0.00    +0.000 A 
ATOM     19  O   UNL     1       1.814   5.504  19.970  0.00  0.00    +0.000 OA
ATOM     20  C   UNL     1       1.839   8.230  20.648  0.00  0.00    +0.000 C 
ATOM     21  C   UNL     1       0.586   9.135  20.642  0.00  0.00    +0.000 C 
ENDBRANCH   3   7
BRANCH   1  23
ATOM     22  O   UNL     1      -1.663  14.862  20.893  0.00  0.00    +0.000 OA
ATOM     23  C   UNL     1      -2.341  13.852  21.081  0.00  0.00    +0.000 C 
ATOM     24  N   UNL     1      -3.266  13.789  22.107  0.00  0.00    +0.000 N 
ATOM     25  C   UNL     1      -3.655  14.965  22.865  0.00  0.00    +0.000 C 
ATOM     26  C   UNL     1      -3.901  14.435  24.265  0.00  0.00    +0.000 C 
ATOM     27  C   UNL     1      -4.490  13.064  23.998  0.00  0.00    +0.000 C 
ATOM     28  F   UNL     1      -4.282  12.228  25.036  0.00  0.00    +0.000 F 
ATOM     29  F   UNL     1      -5.827  13.154  23.804  0.00  0.00    +0.000 F 
ATOM     30  C   UNL     1      -3.797  12.580  22.730  0.00  0.00    +0.000 C 
ENDBRANCH   1  23
TORSDOF 2
ENDMDL
MODEL 3
REMARK VINA RESULT:      -8.1      1.209      1.389
REMARK  Name = 
REMARK  2 active torsions:
REMARK  status: ('A' for Active; 'I' for Inactive)
REMARK    1  A    between atoms: C_2  and  C_3
REMARK    2  A    between atoms: C_5  and  N_6
REMARK                            x       y       z     vdW  Elec       q    Type
REMARK                         _______ _______ _______ _____ _____    ______ ____
ROOT
ATOM      1  C   UNL     1      -2.344  12.267  19.900  0.00  0.00    +0.000 C 
ATOM      2  C   UNL     1      -1.480  11.047  20.202  0.00  0.00    +0.000 C 
ATOM      3  C   UNL     1      -0.570  10.938  18.978  0.00  0.00    +0.000 C 
ATOM      4  C   UNL     1      -0.453  12.395  18.484  0.00  0.00    +0.000 C 
ATOM      5  N   UNL     1      -1.405  13.193  19.244  0.00  0.00    +0.000 NA
ATOM      6  H   UNL     1      -1.866  13.887  18.666  0.00  0.00    +0.000 HD
ENDROOT
BRANCH   3   7
ATOM      7  N   UNL     1       0.718  10.248  19.214  0.00  0.00    +0.000 NA
ATOM      8  C   UNL     1       1.204   9.608  17.964  0.00  0.00    +0.000 C 
ATOM      9  C   UNL     1       2.441   8.702  18.138  0.00  0.00    +0.000 C 
ATOM     10  N   UNL     1       2.178   7.727  19.185  0.00  0.00    +0.000 N 
ATOM     11  C   UNL     1       2.251   6.406  18.932  0.00  0.00    +0.000 A 
ATOM     12  N   UNL     1       2.753   5.821  17.854  0.00  0.00    +0.000 NA
ATOM     13  C   UNL     1       2.544   4.492  18.093  0.00  0.00    +0.000 A 
ATOM     14  C   UNL     1       2.851   3.349  17.346  0.00  0.00    +0.000 A 
ATOM     15  C   UNL     1       2.455   2.122  17.871  0.00  0.00    +0.000 A 
ATOM     16  C   UNL     1       1.785   2.088  19.093  0.00  0.00    +0.000 A 
ATOM     17  N   UNL     1       1.482   3.163  19.862  0.00  0.00    +0.000 NA
ATOM     18  C   UNL     1       1.889   4.319  19.307  0.00  0.00    +0.000 A 
ATOM     19  O   UNL     1       1.717   5.550  19.855  0.00  0.00    +0.000 OA
ATOM     20  C   UNL     1       1.799   8.289  20.471  0.00  0.00    +0.000 C 
ATOM     21  C   UNL     1       0.598   9.249  20.310  0.00  0.00    +0.000 C 
ENDBRANCH   3   7
BRANCH   1  23
ATOM     22  O   UNL     1      -2.184  13.350  22.076  0.00  0.00    +0.000 OA
ATOM     23  C   UNL     1      -2.908  12.940  21.168  0.00  0.00    +0.000 C 
ATOM     24  N   UNL     1      -4.283  13.066  21.235  0.00  0.00    +0.000 N 
ATOM     25  C   UNL     1      -4.934  13.880  22.246  0.00  0.00    +0.000 C 
ATOM     26  C   UNL     1      -6.221  13.136  22.545  0.00  0.00    +0.000 C 
ATOM     27  C   UNL     1      -6.598  12.574  21.189  0.00  0.00    +0.000 C 
ATOM     28  F   UNL     1      -7.365  11.471  21.309  0.00  0.00    +0.000 F 
ATOM     29  F   UNL     1      -7.298  13.487  20.477  0.00  0.00    +0.000 F 
ATOM     30  C   UNL     1      -5.268  12.270  20.508  0.00  0.00    +0.000 C 
ENDBRANCH   1  23
TORSDOF 2
ENDMDL
MODEL 4
REMARK VINA RESULT:      -7.7      5.267      9.730
REMARK  Name = 
REMARK  2 active torsions:
REMARK  status: ('A' for Active; 'I' for Inactive)
REMARK    1  A    between atoms: C_2  and  C_3
REMARK    2  A    between atoms: C_5  and  N_6
REMARK                            x       y       z     vdW  Elec       q    Type
REMARK                         _______ _______ _______ _____ _____    ______ ____
ROOT
ATOM      1  C   UNL     1       2.049   7.563  18.349  0.00  0.00    +0.000 C 
ATOM      2  C   UNL     1       1.801   8.964  17.801  0.00  0.00    +0.000 C 
ATOM      3  C   UNL     1       0.848   9.588  18.820  0.00  0.00    +0.000 C 
ATOM      4  C   UNL     1       1.201   8.863  20.135  0.00  0.00    +0.000 C 
ATOM      5  N   UNL     1       2.113   7.777  19.806  0.00  0.00    +0.000 NA
ATOM      6  H   UNL     1       1.916   6.939  20.341  0.00  0.00    +0.000 HD
ENDROOT
BRANCH   3   7
ATOM      7  N   UNL     1       0.881  11.066  18.888  0.00  0.00    +0.000 NA
ATOM      8  C   UNL     1       2.169  11.583  18.359  0.00  0.00    +0.000 C 
ATOM      9  C   UNL     1       2.390  13.098  18.556  0.00  0.00    +0.000 C 
ATOM     10  N   UNL     1       2.202  13.430  19.960  0.00  0.00    +0.000 N 
ATOM     11  C   UNL     1       3.187  14.016  20.668  0.00  0.00    +0.000 A 
ATOM     12  N   UNL     1       4.306  14.551  20.200  0.00  0.00    +0.000 NA
ATOM     13  C   UNL     1       4.955  14.960  21.330  0.00  0.00    +0.000 A 
ATOM     14  C   UNL     1       6.182  15.605  21.520  0.00  0.00    +0.000 A 
ATOM     15  C   UNL     1       6.576  15.847  22.834  0.00  0.00    +0.000 A 
ATOM     16  C   UNL     1       5.745  15.445  23.879  0.00  0.00    +0.000 A 
ATOM     17  N   UNL     1       4.541  14.835  23.746  0.00  0.00    +0.000 NA
ATOM     18  C   UNL     1       4.213  14.629  22.458  0.00  0.00    +0.000 A 
ATOM     19  O   UNL     1       3.067  14.038  22.030  0.00  0.00    +0.000 OA
ATOM     20  C   UNL     1       0.917  13.048  20.519  0.00  0.00    +0.000 C 
ATOM     21  C   UNL     1       0.647  11.544  20.277  0.00  0.00    +0.000 C 
ENDBRANCH   3   7
BRANCH   1  23
ATOM     22  O   UNL     1       4.296   7.636  17.414  0.00  0.00    +0.000 OA
ATOM     23  C   UNL     1       3.382   6.951  17.873  0.00  0.00    +0.000 C 
ATOM     24  N   UNL     1       3.504   5.579  17.992  0.00  0.00    +0.000 N 
ATOM     25  C   UNL     1       4.773   4.900  17.807  0.00  0.00    +0.000 C 
ATOM     26  C   UNL     1       4.393   3.575  17.175  0.00  0.00    +0.000 C 
ATOM     27  C   UNL     1       3.073   3.256  17.849  0.00  0.00    +0.000 C 
ATOM     28  F   UNL     1       2.312   2.449  17.083  0.00  0.00    +0.000 F 
ATOM     29  F   UNL     1       3.286   2.626  19.028  0.00  0.00    +0.000 F 
ATOM     30  C   UNL     1       2.413   4.611  18.078  0.00  0.00    +0.000 C 
ENDBRANCH   1  23
TORSDOF 2
ENDMDL
MODEL 5
REMARK VINA RESULT:      -7.7      4.142     10.122
REMARK  Name = 
REMARK  2 active torsions:
REMARK  status: ('A' for Active; 'I' for Inactive)
REMARK    1  A    between atoms: C_2  and  C_3
REMARK    2  A    between atoms: C_5  and  N_6
REMARK                            x       y       z     vdW  Elec       q    Type
REMARK                         _______ _______ _______ _____ _____    ______ ____
ROOT
ATOM      1  C   UNL     1       1.551   7.835  19.392  0.00  0.00    +0.000 C 
ATOM      2  C   UNL     1       0.724   9.117  19.398  0.00  0.00    +0.000 C 
ATOM      3  C   UNL     1       0.123   9.153  20.803  0.00  0.00    +0.000 C 
ATOM      4  C   UNL     1       1.159   8.393  21.658  0.00  0.00    +0.000 C 
ATOM      5  N   UNL     1       2.127   7.799  20.747  0.00  0.00    +0.000 NA
ATOM      6  H   UNL     1       2.402   6.868  21.039  0.00  0.00    +0.000 HD
ENDROOT
BRANCH   3   7
ATOM      7  N   UNL     1      -0.233  10.501  21.299  0.00  0.00    +0.000 NA
ATOM      8  C   UNL     1      -0.896  10.411  22.625  0.00  0.00    +0.000 C 
ATOM      9  C   UNL     1      -1.480  11.740  23.150  0.00  0.00    +0.000 C 
ATOM     10  N   UNL     1      -2.356  12.311  22.138  0.00  0.00    +0.000 N 
ATOM     11  C   UNL     1      -3.649  12.571  22.411  0.00  0.00    +0.000 A 
ATOM     12  N   UNL     1      -4.235  12.570  23.600  0.00  0.00    +0.000 NA
ATOM     13  C   UNL     1      -5.539  12.854  23.307  0.00  0.00    +0.000 A 
ATOM     14  C   UNL     1      -6.667  13.005  24.120  0.00  0.00    +0.000 A 
ATOM     15  C   UNL     1      -7.879  13.260  23.484  0.00  0.00    +0.000 A 
ATOM     16  C   UNL     1      -7.912  13.353  22.093  0.00  0.00    +0.000 A 
ATOM     17  N   UNL     1      -6.845  13.234  21.265  0.00  0.00    +0.000 NA
ATOM     18  C   UNL     1      -5.704  12.991  21.933  0.00  0.00    +0.000 A 
ATOM     19  O   UNL     1      -4.484  12.826  21.360  0.00  0.00    +0.000 OA
ATOM     20  C   UNL     1      -1.740  12.527  20.839  0.00  0.00    +0.000 C 
ATOM     21  C   UNL     1      -1.094  11.221  20.322  0.00  0.00    +0.000 C 
ENDBRANCH   3   7
BRANCH   1  23
ATOM     22  O   UNL     1       3.012   8.875  17.744  0.00  0.00    +0.000 OA
ATOM     23  C   UNL     1       2.696   7.856  18.359  0.00  0.00    +0.000 C 
ATOM     24  N   UNL     1       3.362   6.661  18.159  0.00  0.00    +0.000 N 
ATOM     25  C   UNL     1       4.599   6.586  17.403  0.00  0.00    +0.000 C 
ATOM     26  C   UNL     1       4.524   5.241  16.706  0.00  0.00    +0.000 C 
ATOM     27  C   UNL     1       3.820   4.378  17.735  0.00  0.00    +0.000 C 
ATOM     28  F   UNL     1       3.178   3.345  17.154  0.00  0.00    +0.000 F 
ATOM     29  F   UNL     1       4.714   3.867  18.613  0.00  0.00    +0.000 F 
ATOM     30  C   UNL     1       2.854   5.321  18.443  0.00  0.00    +0.000 C 
ENDBRANCH   1  23
TORSDOF 2
ENDMDL
MODEL 6
REMARK VINA RESULT:      -7.7      6.478      8.413
REMARK  Name = 
REMARK  2 active torsions:
REMARK  status: ('A' for Active; 'I' for Inactive)
REMARK    1  A    between atoms: C_2  and  C_3
REMARK    2  A    between atoms: C_5  and  N_6
REMARK                            x       y       z     vdW  Elec       q    Type
REMARK                         _______ _______ _______ _____ _____    ______ ____
ROOT
ATOM      1  C   UNL     1       0.799  13.226  20.183  0.00  0.00    +0.000 C 
ATOM      2  C   UNL     1       2.319  13.353  20.212  0.00  0.00    +0.000 C 
ATOM      3  C   UNL     1       2.622  14.321  19.068  0.00  0.00    +0.000 C 
ATOM      4  C   UNL     1       1.351  15.191  18.985  0.00  0.00    +0.000 C 
ATOM      5  N   UNL     1       0.352  14.593  19.860  0.00  0.00    +0.000 NA
ATOM      6  H   UNL     1      -0.576  14.624  19.454  0.00  0.00    +0.000 HD
ENDROOT
BRANCH   3   7
ATOM      7  N   UNL     1       3.890  15.073  19.203  0.00  0.00    +0.000 NA
ATOM      8  C   UNL     1       4.700  14.956  17.964  0.00  0.00    +0.000 C 
ATOM      9  C   UNL     1       6.125  15.542  18.062  0.00  0.00    +0.000 C 
ATOM     10  N   UNL     1       6.801  14.966  19.214  0.00  0.00    +0.000 N 
ATOM     11  C   UNL     1       7.961  14.295  19.069  0.00  0.00    +0.000 A 
ATOM     12  N   UNL     1       8.732  14.246  17.993  0.00  0.00    +0.000 NA
ATOM     13  C   UNL     1       9.743  13.408  18.369  0.00  0.00    +0.000 A 
ATOM     14  C   UNL     1      10.880  12.953  17.692  0.00  0.00    +0.000 A 
ATOM     15  C   UNL     1      11.703  12.054  18.366  0.00  0.00    +0.000 A 
ATOM     16  C   UNL     1      11.365  11.658  19.659  0.00  0.00    +0.000 A 
ATOM     17  N   UNL     1      10.288  12.085  20.363  0.00  0.00    +0.000 NA
ATOM     18  C   UNL     1       9.531  12.950  19.665  0.00  0.00    +0.000 A 
ATOM     19  O   UNL     1       8.393  13.536  20.121  0.00  0.00    +0.000 OA
ATOM     20  C   UNL     1       6.114  15.137  20.483  0.00  0.00    +0.000 C 
ATOM     21  C   UNL     1       4.663  14.612  20.388  0.00  0.00    +0.000 C 
ENDBRANCH   3   7
BRANCH   1  23
ATOM     22  O   UNL     1      -0.080  13.628  22.418  0.00  0.00    +0.000 OA
ATOM     23  C   UNL     1       0.198  12.810  21.541  0.00  0.00    +0.000 C 
ATOM     24  N   UNL     1      -0.020  11.458  21.725  0.00  0.00    +0.000 N 
ATOM     25  C   UNL     1      -0.789  10.948  22.846  0.00  0.00    +0.000 C 
ATOM     26  C   UNL     1      -0.117   9.632  23.186  0.00  0.00    +0.000 C 
ATOM     27  C   UNL     1       0.300   9.115  21.823  0.00  0.00    +0.000 C 
ATOM     28  F   UNL     1       1.351   8.275  21.914  0.00  0.00    +0.000 F 
ATOM     29  F   UNL     1      -0.719   8.438  21.243  0.00  0.00    +0.000 F 
ATOM     30  C   UNL     1       0.639  10.363  21.017  0.00  0.00    +0.000 C 
ENDBRANCH   1  23
TORSDOF 2
ENDMDL
MODEL 7
REMARK VINA RESULT:      -7.7      4.612     10.234
REMARK  Name = 
REMARK  2 active torsions:
REMARK  status: ('A' for Active; 'I' for Inactive)
REMARK    1  A    between atoms: C_2  and  C_3
REMARK    2  A    between atoms: C_5  and  N_6
REMARK                            x       y       z     vdW  Elec       q    Type
REMARK                         _______ _______ _______ _____ _____    ______ ____
ROOT
ATOM      1  C   UNL     1       3.806   5.563  18.844  0.00  0.00    +0.000 C 
ATOM      2  C   UNL     1       3.408   6.922  18.276  0.00  0.00    +0.000 C 
ATOM      3  C   UNL     1       2.102   7.248  19.002  0.00  0.00    +0.000 C 
ATOM      4  C   UNL     1       2.244   6.509  20.349  0.00  0.00    +0.000 C 
ATOM      5  N   UNL     1       3.430   5.668  20.264  0.00  0.00    +0.000 NA
ATOM      6  H   UNL     1       3.288   4.766  20.707  0.00  0.00    +0.000 HD
ENDROOT
BRANCH   3   7
ATOM      7  N   UNL     1       1.786   8.690  19.107  0.00  0.00    +0.000 NA
ATOM      8  C   UNL     1       0.787   8.929  20.180  0.00  0.00    +0.000 C 
ATOM      9  C   UNL     1       0.243  10.372  20.250  0.00  0.00    +0.000 C 
ATOM     10  N   UNL     1      -0.258  10.759  18.940  0.00  0.00    +0.000 N 
ATOM     11  C   UNL     1      -1.538  11.146  18.778  0.00  0.00    +0.000 A 
ATOM     12  N   UNL     1      -2.417  11.437  19.727  0.00  0.00    +0.000 NA
ATOM     13  C   UNL     1      -3.552  11.726  19.025  0.00  0.00    +0.000 A 
ATOM     14  C   UNL     1      -4.832  12.115  19.437  0.00  0.00    +0.000 A 
ATOM     15  C   UNL     1      -5.792  12.295  18.445  0.00  0.00    +0.000 A 
ATOM     16  C   UNL     1      -5.441  12.086  17.112  0.00  0.00    +0.000 A 
ATOM     17  N   UNL     1      -4.213  11.729  16.661  0.00  0.00    +0.000 NA
ATOM     18  C   UNL     1      -3.328  11.571  17.662  0.00  0.00    +0.000 A 
ATOM     19  O   UNL     1      -2.027  11.214  17.503  0.00  0.00    +0.000 OA
ATOM     20  C   UNL     1       0.702  10.652  17.855  0.00  0.00    +0.000 C 
ATOM     21  C   UNL     1       1.306   9.229  17.805  0.00  0.00    +0.000 C 
ENDBRANCH   3   7
BRANCH   1  23
ATOM     22  O   UNL     1       6.086   5.458  19.693  0.00  0.00    +0.000 OA
ATOM     23  C   UNL     1       5.320   5.285  18.745  0.00  0.00    +0.000 C 
ATOM     24  N   UNL     1       5.779   4.821  17.527  0.00  0.00    +0.000 N 
ATOM     25  C   UNL     1       7.122   4.298  17.359  0.00  0.00    +0.000 C 
ATOM     26  C   UNL     1       7.508   4.716  15.953  0.00  0.00    +0.000 C 
ATOM     27  C   UNL     1       6.193   4.606  15.206  0.00  0.00    +0.000 C 
ATOM     28  F   UNL     1       6.168   5.419  14.130  0.00  0.00    +0.000 F 
ATOM     29  F   UNL     1       6.002   3.339  14.770  0.00  0.00    +0.000 F 
ATOM     30  C   UNL     1       5.129   4.986  16.229  0.00  0.00    +0.000 C 
ENDBRANCH   1  23
TORSDOF 2
ENDMDL
MODEL 8
REMARK VINA RESULT:      -7.7      1.520      1.664
REMARK  Name = 
REMARK  2 active torsions:
REMARK  status: ('A' for Active; 'I' for Inactive)
REMARK    1  A    between atoms: C_2  and  C_3
REMARK    2  A    between atoms: C_5  and  N_6
REMARK                            x       y       z     vdW  Elec       q    Type
REMARK                         _______ _______ _______ _____ _____    ______ ____
ROOT
ATOM      1  C   UNL     1      -2.340  11.237  18.151  0.00  0.00    +0.000 C 
ATOM      2  C   UNL     1      -1.110  10.372  17.896  0.00  0.00    +0.000 C 
ATOM      3  C   UNL     1       0.019  11.137  18.588  0.00  0.00    +0.000 C 
ATOM      4  C   UNL     1      -0.700  11.889  19.727  0.00  0.00    +0.000 C 
ATOM      5  N   UNL     1      -2.133  11.722  19.527  0.00  0.00    +0.000 NA
ATOM      6  H   UNL     1      -2.646  12.572  19.732  0.00  0.00    +0.000 HD
ENDROOT
BRANCH   3   7
ATOM      7  N   UNL     1       1.171  10.309  19.009  0.00  0.00    +0.000 NA
ATOM      8  C   UNL     1       1.767   9.611  17.841  0.00  0.00    +0.000 C 
ATOM      9  C   UNL     1       2.855   8.573  18.191  0.00  0.00    +0.000 C 
ATOM     10  N   UNL     1       2.328   7.641  19.175  0.00  0.00    +0.000 N 
ATOM     11  C   UNL     1       2.291   6.318  18.922  0.00  0.00    +0.000 A 
ATOM     12  N   UNL     1       2.883   5.673  17.927  0.00  0.00    +0.000 NA
ATOM     13  C   UNL     1       2.493   4.378  18.116  0.00  0.00    +0.000 A 
ATOM     14  C   UNL     1       2.781   3.203  17.413  0.00  0.00    +0.000 A 
ATOM     15  C   UNL     1       2.175   2.031  17.858  0.00  0.00    +0.000 A 
ATOM     16  C   UNL     1       1.327   2.080  18.964  0.00  0.00    +0.000 A 
ATOM     17  N   UNL     1       1.032   3.187  19.689  0.00  0.00    +0.000 NA
ATOM     18  C   UNL     1       1.646   4.287  19.215  0.00  0.00    +0.000 A 
ATOM     19  O   UNL     1       1.531   5.533  19.743  0.00  0.00    +0.000 OA
ATOM     20  C   UNL     1       1.823   8.249  20.395  0.00  0.00    +0.000 C 
ATOM     21  C   UNL     1       0.775   9.337  20.064  0.00  0.00    +0.000 C 
ENDBRANCH   3   7
BRANCH   1  23
ATOM     22  O   UNL     1      -3.708   9.261  17.758  0.00  0.00    +0.000 OA
ATOM     23  C   UNL     1      -3.662  10.445  18.093  0.00  0.00    +0.000 C 
ATOM     24  N   UNL     1      -4.806  11.136  18.444  0.00  0.00    +0.000 N 
ATOM     25  C   UNL     1      -6.075  10.465  18.661  0.00  0.00    +0.000 C 
ATOM     26  C   UNL     1      -7.108  11.461  18.168  0.00  0.00    +0.000 C 
ATOM     27  C   UNL     1      -6.495  12.791  18.561  0.00  0.00    +0.000 C 
ATOM     28  F   UNL     1      -6.940  13.790  17.772  0.00  0.00    +0.000 F 
ATOM     29  F   UNL     1      -6.817  13.099  19.838  0.00  0.00    +0.000 F 
ATOM     30  C   UNL     1      -4.991  12.585  18.423  0.00  0.00    +0.000 C 
ENDBRANCH   1  23
TORSDOF 2
ENDMDL
MODEL 9
REMARK VINA RESULT:      -7.7      3.984      5.559
REMARK  Name = 
REMARK  2 active torsions:
REMARK  status: ('A' for Active; 'I' for Inactive)
REMARK    1  A    between atoms: C_2  and  C_3
REMARK    2  A    between atoms: C_5  and  N_6
REMARK                            x       y       z     vdW  Elec       q    Type
REMARK                         _______ _______ _______ _____ _____    ______ ____
ROOT
ATOM      1  C   UNL     1       0.805   9.239  19.785  0.00  0.00    +0.000 C 
ATOM      2  C   UNL     1       1.632   7.989  20.066  0.00  0.00    +0.000 C 
ATOM      3  C   UNL     1       2.040   7.506  18.674  0.00  0.00    +0.000 C 
ATOM      4  C   UNL     1       2.078   8.803  17.839  0.00  0.00    +0.000 C 
ATOM      5  N   UNL     1       1.515   9.868  18.657  0.00  0.00    +0.000 NA
ATOM      6  H   UNL     1       0.930  10.494  18.116  0.00  0.00    +0.000 HD
ENDROOT
BRANCH   3   7
ATOM      7  N   UNL     1       3.277   6.694  18.630  0.00  0.00    +0.000 NA
ATOM      8  C   UNL     1       4.353   7.420  17.909  0.00  0.00    +0.000 C 
ATOM      9  C   UNL     1       5.627   6.591  17.639  0.00  0.00    +0.000 C 
ATOM     10  N   UNL     1       5.259   5.353  16.969  0.00  0.00    +0.000 N 
ATOM     11  C   UNL     1       5.776   5.040  15.765  0.00  0.00    +0.000 A 
ATOM     12  N   UNL     1       6.788   5.632  15.146  0.00  0.00    +0.000 NA
ATOM     13  C   UNL     1       6.870   4.955  13.962  0.00  0.00    +0.000 A 
ATOM     14  C   UNL     1       7.734   5.087  12.869  0.00  0.00    +0.000 A 
ATOM     15  C   UNL     1       7.514   4.247  11.781  0.00  0.00    +0.000 A 
ATOM     16  C   UNL     1       6.467   3.328  11.830  0.00  0.00    +0.000 A 
ATOM     17  N   UNL     1       5.617   3.149  12.871  0.00  0.00    +0.000 NA
ATOM     18  C   UNL     1       5.876   3.986  13.892  0.00  0.00    +0.000 A 
ATOM     19  O   UNL     1       5.184   4.029  15.060  0.00  0.00    +0.000 OA
ATOM     20  C   UNL     1       4.285   4.536  17.672  0.00  0.00    +0.000 C 
ATOM     21  C   UNL     1       3.024   5.366  18.008  0.00  0.00    +0.000 C 
ENDBRANCH   3   7
BRANCH   1  23
ATOM     22  O   UNL     1       1.474  10.077  21.972  0.00  0.00    +0.000 OA
ATOM     23  C   UNL     1       0.774  10.226  20.970  0.00  0.00    +0.000 C 
ATOM     24  N   UNL     1      -0.086  11.301  20.849  0.00  0.00    +0.000 N 
ATOM     25  C   UNL     1      -0.049  12.423  21.770  0.00  0.00    +0.000 C 
ATOM     26  C   UNL     1      -1.499  12.855  21.884  0.00  0.00    +0.000 C 
ATOM     27  C   UNL     1      -2.025  12.608  20.483  0.00  0.00    +0.000 C 
ATOM     28  F   UNL     1      -3.358  12.402  20.488  0.00  0.00    +0.000 F 
ATOM     29  F   UNL     1      -1.776  13.677  19.691  0.00  0.00    +0.000 F 
ATOM     30  C   UNL     1      -1.262  11.385  19.988  0.00  0.00    +0.000 C 
ENDBRANCH   1  23
TORSDOF 2
ENDMDL
