MODEL 1
REMARK VINA RESULT:      -8.6      0.000      0.000
REMARK  Name = 
REMARK  8 active torsions:
REMARK  status: ('A' for Active; 'I' for Inactive)
REMARK    1  A    between atoms: C_1  and  O_2
REMARK    2  A    between atoms: O_2  and  C_3
REMARK    3  A    between atoms: C_6  and  C_7
REMARK    4  A    between atoms: C_7  and  N_8
REMARK    5  A    between atoms: C_9  and  C_11
REMARK    6  A    between atoms: C_15  and  C_16
REMARK    7  A    between atoms: N_19  and  C_20
REMARK    8  A    between atoms: C_20  and  C_21
REMARK                            x       y       z     vdW  Elec       q    Type
REMARK                         _______ _______ _______ _____ _____    ______ ____
ROOT
ATOM      1  C   UNL     1       1.920   6.967  19.984  0.00  0.00    +0.000 A 
ATOM      2  O   UNL     1       1.224   7.089  21.175  0.00  0.00    +0.000 OA
ATOM      3  C   UNL     1       0.748   8.370  21.202  0.00  0.00    +0.000 A 
ATOM      4  C   UNL     1       1.111   9.048  20.063  0.00  0.00    +0.000 A 
ATOM      5  C   UNL     1       1.846   8.161  19.258  0.00  0.00    +0.000 A 
ATOM      6  C   UNL     1       2.473   8.429  17.938  0.00  0.00    +0.000 C 
ATOM      7  C   UNL     1       0.753  10.447  19.914  0.00  0.00    +0.000 A 
ATOM      8  N   UNL     1       0.861  11.224  18.842  0.00  0.00    +0.000 NA
ATOM      9  N   UNL     1       0.370  12.412  19.268  0.00  0.00    +0.000 N 
ATOM     10  C   UNL     1      -0.025  12.397  20.586  0.00  0.00    +0.000 A 
ATOM     11  C   UNL     1       0.231  11.121  21.047  0.00  0.00    +0.000 A 
ATOM     12  C   UNL     1       0.112  10.481  22.407  0.00  0.00    +0.000 C 
ATOM     13  C   UNL     1      -0.058   8.926  22.336  0.00  0.00    +0.000 C 
ENDROOT
BRANCH   1  15
ATOM     14  N   UNL     1       4.024   5.731  19.747  0.00  0.00    +0.000 N 
ATOM     15  C   UNL     1       2.647   5.743  19.626  0.00  0.00    +0.000 C 
ATOM     16  O   UNL     1       2.056   4.745  19.215  0.00  0.00    +0.000 OA
ATOM     17  H   UNL     1       4.460   6.450  20.308  0.00  0.00    +0.000 HD
BRANCH  14  18
ATOM     18  C   UNL     1       4.740   4.497  19.452  0.00  0.00    +0.000 C 
BRANCH  18  22
ATOM     19  C   UNL     1       6.584   4.417  15.520  0.00  0.00    +0.000 A 
ATOM     20  C   UNL     1       5.241   4.087  15.689  0.00  0.00    +0.000 A 
ATOM     21  C   UNL     1       4.658   4.115  16.962  0.00  0.00    +0.000 A 
ATOM     22  C   UNL     1       5.419   4.432  18.102  0.00  0.00    +0.000 A 
ATOM     23  C   UNL     1       6.760   4.785  17.916  0.00  0.00    +0.000 A 
ATOM     24  C   UNL     1       7.342   4.763  16.639  0.00  0.00    +0.000 A 
BRANCH  19  26
ATOM     25  C   UNL     1       6.151   3.788  13.282  0.00  0.00    +0.000 C 
ATOM     26  O   UNL     1       7.052   4.340  14.237  0.00  0.00    +0.000 OA
ENDBRANCH  19  26
ENDBRANCH  18  22
ENDBRANCH  14  18
ENDBRANCH   1  15
BRANCH   9  27
ATOM     27  C   UNL     1       0.442  13.573  18.384  0.00  0.00    +0.000 C 
BRANCH  27  28
ATOM     28  C   UNL     1       1.682  14.410  18.603  0.00  0.00    +0.000 A 
ATOM     29  C   UNL     1       2.949  13.899  18.274  0.00  0.00    +0.000 A 
ATOM     30  C   UNL     1       4.096  14.679  18.440  0.00  0.00    +0.000 A 
ATOM     31  C   UNL     1       3.987  15.981  18.922  0.00  0.00    +0.000 A 
ATOM     32 CL   UNL     1       5.402  16.940  19.124  0.00  0.00    +0.000 Cl
ATOM     33  C   UNL     1       2.740  16.511  19.239  0.00  0.00    +0.000 A 
ATOM     34  C   UNL     1       1.592  15.728  19.078  0.00  0.00    +0.000 A 
ENDBRANCH  27  28
ENDBRANCH   9  27
TORSDOF 6
ENDMDL
MODEL 2
REMARK VINA RESULT:      -8.3      0.915      1.009
REMARK  Name = 
REMARK  8 active torsions:
REMARK  status: ('A' for Active; 'I' for Inactive)
REMARK    1  A    between atoms: C_1  and  O_2
REMARK    2  A    between atoms: O_2  and  C_3
REMARK    3  A    between atoms: C_6  and  C_7
REMARK    4  A    between atoms: C_7  and  N_8
REMARK    5  A    between atoms: C_9  and  C_11
REMARK    6  A    between atoms: C_15  and  C_16
REMARK    7  A    between atoms: N_19  and  C_20
REMARK    8  A    between atoms: C_20  and  C_21
REMARK                            x       y       z     vdW  Elec       q    Type
REMARK                         _______ _______ _______ _____ _____    ______ ____
ROOT
ATOM      1  C   UNL     1       2.359   6.733  19.659  0.00  0.00    +0.000 A 
ATOM      2  O   UNL     1       1.634   6.735  20.838  0.00  0.00    +0.000 OA
ATOM      3  C   UNL     1       1.038   7.962  20.910  0.00  0.00    +0.000 A 
ATOM      4  C   UNL     1       1.355   8.723  19.811  0.00  0.00    +0.000 A 
ATOM      5  C   UNL     1       2.184   7.947  18.983  0.00  0.00    +0.000 A 
ATOM      6  C   UNL     1       2.806   8.332  17.691  0.00  0.00    +0.000 C 
ATOM      7  C   UNL     1       0.869  10.088  19.715  0.00  0.00    +0.000 A 
ATOM      8  N   UNL     1       0.920  10.920  18.680  0.00  0.00    +0.000 NA
ATOM      9  N   UNL     1       0.312  12.035  19.147  0.00  0.00    +0.000 N 
ATOM     10  C   UNL     1      -0.103  11.923  20.455  0.00  0.00    +0.000 A 
ATOM     11  C   UNL     1       0.265  10.657  20.865  0.00  0.00    +0.000 A 
ATOM     12  C   UNL     1       0.184   9.948  22.193  0.00  0.00    +0.000 C 
ATOM     13  C   UNL     1       0.163   8.388  22.050  0.00  0.00    +0.000 C 
ENDROOT
BRANCH   1  15
ATOM     14  N   UNL     1       2.834   4.850  18.163  0.00  0.00    +0.000 N 
ATOM     15  C   UNL     1       3.205   5.601  19.262  0.00  0.00    +0.000 C 
ATOM     16  O   UNL     1       4.221   5.309  19.893  0.00  0.00    +0.000 OA
ATOM     17  H   UNL     1       2.156   5.242  17.524  0.00  0.00    +0.000 HD
BRANCH  14  18
ATOM     18  C   UNL     1       3.706   3.766  17.731  0.00  0.00    +0.000 C 
BRANCH  18  22
ATOM     19  C   UNL     1       6.995   5.049  15.201  0.00  0.00    +0.000 A 
ATOM     20  C   UNL     1       5.703   4.933  14.694  0.00  0.00    +0.000 A 
ATOM     21  C   UNL     1       4.651   4.517  15.519  0.00  0.00    +0.000 A 
ATOM     22  C   UNL     1       4.878   4.165  16.862  0.00  0.00    +0.000 A 
ATOM     23  C   UNL     1       6.175   4.309  17.366  0.00  0.00    +0.000 A 
ATOM     24  C   UNL     1       7.228   4.732  16.540  0.00  0.00    +0.000 A 
BRANCH  19  26
ATOM     25  C   UNL     1       7.713   5.078  12.948  0.00  0.00    +0.000 C 
ATOM     26  O   UNL     1       7.948   5.448  14.303  0.00  0.00    +0.000 OA
ENDBRANCH  19  26
ENDBRANCH  18  22
ENDBRANCH  14  18
ENDBRANCH   1  15
BRANCH   9  27
ATOM     27  C   UNL     1       0.288  13.237  18.317  0.00  0.00    +0.000 C 
BRANCH  27  28
ATOM     28  C   UNL     1       1.469  14.149  18.560  0.00  0.00    +0.000 A 
ATOM     29  C   UNL     1       2.753  13.777  18.127  0.00  0.00    +0.000 A 
ATOM     30  C   UNL     1       3.843  14.630  18.316  0.00  0.00    +0.000 A 
ATOM     31  C   UNL     1       3.658  15.869  18.925  0.00  0.00    +0.000 A 
ATOM     32 CL   UNL     1       5.003  16.918  19.155  0.00  0.00    +0.000 Cl
ATOM     33  C   UNL     1       2.392  16.262  19.348  0.00  0.00    +0.000 A 
ATOM     34  C   UNL     1       1.302  15.406  19.163  0.00  0.00    +0.000 A 
ENDBRANCH  27  28
ENDBRANCH   9  27
TORSDOF 6
ENDMDL
MODEL 3
REMARK VINA RESULT:      -8.3      1.030      1.373
REMARK  Name = 
REMARK  8 active torsions:
REMARK  status: ('A' for Active; 'I' for Inactive)
REMARK    1  A    between atoms: C_1  and  O_2
REMARK    2  A    between atoms: O_2  and  C_3
REMARK    3  A    between atoms: C_6  and  C_7
REMARK    4  A    between atoms: C_7  and  N_8
REMARK    5  A    between atoms: C_9  and  C_11
REMARK    6  A    between atoms: C_15  and  C_16
REMARK    7  A    between atoms: N_19  and  C_20
REMARK    8  A    between atoms: C_20  and  C_21
REMARK                            x       y       z     vdW  Elec       q    Type
REMARK                         _______ _______ _______ _____ _____    ______ ____
ROOT
ATOM      1  C   UNL     1       1.948   7.156  19.814  0.00  0.00    +0.000 A 
ATOM      2  O   UNL     1       1.288   7.189  21.031  0.00  0.00    +0.000 OA
ATOM      3  C   UNL     1       0.753   8.443  21.134  0.00  0.00    +0.000 A 
ATOM      4  C   UNL     1       1.046   9.190  20.018  0.00  0.00    +0.000 A 
ATOM      5  C   UNL     1       1.794   8.378  19.148  0.00  0.00    +0.000 A 
ATOM      6  C   UNL     1       2.362   8.736  17.824  0.00  0.00    +0.000 C 
ATOM      7  C   UNL     1       0.619  10.575  19.947  0.00  0.00    +0.000 A 
ATOM      8  N   UNL     1       0.654  11.406  18.910  0.00  0.00    +0.000 NA
ATOM      9  N   UNL     1       0.123  12.548  19.408  0.00  0.00    +0.000 N 
ATOM     10  C   UNL     1      -0.227  12.452  20.736  0.00  0.00    +0.000 A 
ATOM     11  C   UNL     1       0.105  11.170  21.127  0.00  0.00    +0.000 A 
ATOM     12  C   UNL     1       0.061  10.463  22.458  0.00  0.00    +0.000 C 
ATOM     13  C   UNL     1      -0.039   8.906  22.318  0.00  0.00    +0.000 C 
ENDROOT
BRANCH   1  15
ATOM     14  N   UNL     1       2.380   5.381  18.179  0.00  0.00    +0.000 N 
ATOM     15  C   UNL     1       2.719   5.986  19.375  0.00  0.00    +0.000 C 
ATOM     16  O   UNL     1       3.644   5.538  20.051  0.00  0.00    +0.000 OA
ATOM     17  H   UNL     1       1.799   5.896  17.531  0.00  0.00    +0.000 HD
BRANCH  14  18
ATOM     18  C   UNL     1       3.184   4.260  17.711  0.00  0.00    +0.000 C 
BRANCH  18  22
ATOM     19  C   UNL     1       6.644   5.199  15.260  0.00  0.00    +0.000 A 
ATOM     20  C   UNL     1       6.301   3.878  15.540  0.00  0.00    +0.000 A 
ATOM     21  C   UNL     1       5.184   3.588  16.334  0.00  0.00    +0.000 A 
ATOM     22  C   UNL     1       4.409   4.617  16.901  0.00  0.00    +0.000 A 
ATOM     23  C   UNL     1       4.750   5.938  16.591  0.00  0.00    +0.000 A 
ATOM     24  C   UNL     1       5.866   6.228  15.792  0.00  0.00    +0.000 A 
BRANCH  19  26
ATOM     25  C   UNL     1       7.597   5.117  13.097  0.00  0.00    +0.000 C 
ATOM     26  O   UNL     1       7.763   5.366  14.490  0.00  0.00    +0.000 OA
ENDBRANCH  19  26
ENDBRANCH  18  22
ENDBRANCH  14  18
ENDBRANCH   1  15
BRANCH   9  27
ATOM     27  C   UNL     1       0.111  13.750  18.579  0.00  0.00    +0.000 C 
BRANCH  27  28
ATOM     28  C   UNL     1       1.376  14.569  18.703  0.00  0.00    +0.000 A 
ATOM     29  C   UNL     1       1.388  15.741  19.478  0.00  0.00    +0.000 A 
ATOM     30  C   UNL     1       2.562  16.484  19.627  0.00  0.00    +0.000 A 
ATOM     31  C   UNL     1       3.737  16.055  19.015  0.00  0.00    +0.000 A 
ATOM     32 CL   UNL     1       5.182  16.972  19.201  0.00  0.00    +0.000 Cl
ATOM     33  C   UNL     1       3.749  14.889  18.254  0.00  0.00    +0.000 A 
ATOM     34  C   UNL     1       2.573  14.149  18.102  0.00  0.00    +0.000 A 
ENDBRANCH  27  28
ENDBRANCH   9  27
TORSDOF 6
ENDMDL
MODEL 4
REMARK VINA RESULT:      -8.3      0.586      1.334
REMARK  Name = 
REMARK  8 active torsions:
REMARK  status: ('A' for Active; 'I' for Inactive)
REMARK    1  A    between atoms: C_1  and  O_2
REMARK    2  A    between atoms: O_2  and  C_3
REMARK    3  A    between atoms: C_6  and  C_7
REMARK    4  A    between atoms: C_7  and  N_8
REMARK    5  A    between atoms: C_9  and  C_11
REMARK    6  A    between atoms: C_15  and  C_16
REMARK    7  A    between atoms: N_19  and  C_20
REMARK    8  A    between atoms: C_20  and  C_21
REMARK                            x       y       z     vdW  Elec       q    Type
REMARK                         _______ _______ _______ _____ _____    ______ ____
ROOT
ATOM      1  C   UNL     1       2.262   6.865  19.696  0.00  0.00    +0.000 A 
ATOM      2  O   UNL     1       1.642   6.871  20.933  0.00  0.00    +0.000 OA
ATOM      3  C   UNL     1       1.053   8.099  21.052  0.00  0.00    +0.000 A 
ATOM      4  C   UNL     1       1.273   8.855  19.926  0.00  0.00    +0.000 A 
ATOM      5  C   UNL     1       2.029   8.076  19.033  0.00  0.00    +0.000 A 
ATOM      6  C   UNL     1       2.537   8.456  17.690  0.00  0.00    +0.000 C 
ATOM      7  C   UNL     1       0.780  10.219  19.867  0.00  0.00    +0.000 A 
ATOM      8  N   UNL     1       0.742  11.047  18.828  0.00  0.00    +0.000 NA
ATOM      9  N   UNL     1       0.175  12.164  19.342  0.00  0.00    +0.000 N 
ATOM     10  C   UNL     1      -0.126  12.057  20.680  0.00  0.00    +0.000 A 
ATOM     11  C   UNL     1       0.278  10.793  21.063  0.00  0.00    +0.000 A 
ATOM     12  C   UNL     1       0.311  10.089  22.395  0.00  0.00    +0.000 C 
ATOM     13  C   UNL     1       0.279   8.529  22.261  0.00  0.00    +0.000 C 
ENDROOT
BRANCH   1  15
ATOM     14  N   UNL     1       4.438   5.900  19.107  0.00  0.00    +0.000 N 
ATOM     15  C   UNL     1       3.072   5.731  19.232  0.00  0.00    +0.000 C 
ATOM     16  O   UNL     1       2.557   4.650  18.949  0.00  0.00    +0.000 OA
ATOM     17  H   UNL     1       4.866   6.691  19.570  0.00  0.00    +0.000 HD
BRANCH  14  18
ATOM     18  C   UNL     1       5.249   4.758  18.709  0.00  0.00    +0.000 C 
BRANCH  18  22
ATOM     19  C   UNL     1       6.540   4.514  14.569  0.00  0.00    +0.000 A 
ATOM     20  C   UNL     1       7.441   4.829  15.584  0.00  0.00    +0.000 A 
ATOM     21  C   UNL     1       7.013   4.906  16.914  0.00  0.00    +0.000 A 
ATOM     22  C   UNL     1       5.661   4.713  17.254  0.00  0.00    +0.000 A 
ATOM     23  C   UNL     1       4.771   4.373  16.229  0.00  0.00    +0.000 A 
ATOM     24  C   UNL     1       5.203   4.290  14.896  0.00  0.00    +0.000 A 
BRANCH  19  26
ATOM     25  C   UNL     1       6.510   3.503  12.431  0.00  0.00    +0.000 C 
ATOM     26  O   UNL     1       7.064   4.482  13.305  0.00  0.00    +0.000 OA
ENDBRANCH  19  26
ENDBRANCH  18  22
ENDBRANCH  14  18
ENDBRANCH   1  15
BRANCH   9  27
ATOM     27  C   UNL     1       0.079  13.363  18.511  0.00  0.00    +0.000 C 
BRANCH  27  28
ATOM     28  C   UNL     1       1.296  14.254  18.614  0.00  0.00    +0.000 A 
ATOM     29  C   UNL     1       1.204  15.508  19.241  0.00  0.00    +0.000 A 
ATOM     30  C   UNL     1       2.332  16.323  19.372  0.00  0.00    +0.000 A 
ATOM     31  C   UNL     1       3.564  15.886  18.891  0.00  0.00    +0.000 A 
ATOM     32 CL   UNL     1       4.951  16.892  19.055  0.00  0.00    +0.000 Cl
ATOM     33  C   UNL     1       3.678  14.641  18.280  0.00  0.00    +0.000 A 
ATOM     34  C   UNL     1       2.549  13.828  18.145  0.00  0.00    +0.000 A 
ENDBRANCH  27  28
ENDBRANCH   9  27
TORSDOF 6
ENDMDL
MODEL 5
REMARK VINA RESULT:      -8.2      0.748      1.262
REMARK  Name = 
REMARK  8 active torsions:
REMARK  status: ('A' for Active; 'I' for Inactive)
REMARK    1  A    between atoms: C_1  and  O_2
REMARK    2  A    between atoms: O_2  and  C_3
REMARK    3  A    between atoms: C_6  and  C_7
REMARK    4  A    between atoms: C_7  and  N_8
REMARK    5  A    between atoms: C_9  and  C_11
REMARK    6  A    between atoms: C_15  and  C_16
REMARK    7  A    between atoms: N_19  and  C_20
REMARK    8  A    between atoms: C_20  and  C_21
REMARK                            x       y       z     vdW  Elec       q    Type
REMARK                         _______ _______ _______ _____ _____    ______ ____
ROOT
ATOM      1  C   UNL     1       1.816   7.351  19.792  0.00  0.00    +0.000 A 
ATOM      2  O   UNL     1       1.139   7.330  20.999  0.00  0.00    +0.000 OA
ATOM      3  C   UNL     1       0.622   8.585  21.161  0.00  0.00    +0.000 A 
ATOM      4  C   UNL     1       0.941   9.385  20.090  0.00  0.00    +0.000 A 
ATOM      5  C   UNL     1       1.689   8.608  19.189  0.00  0.00    +0.000 A 
ATOM      6  C   UNL     1       2.282   9.026  17.893  0.00  0.00    +0.000 C 
ATOM      7  C   UNL     1       0.536  10.779  20.087  0.00  0.00    +0.000 A 
ATOM      8  N   UNL     1       0.598  11.662  19.097  0.00  0.00    +0.000 NA
ATOM      9  N   UNL     1       0.077  12.784  19.647  0.00  0.00    +0.000 N 
ATOM     10  C   UNL     1      -0.292  12.625  20.963  0.00  0.00    +0.000 A 
ATOM     11  C   UNL     1       0.014  11.319  21.291  0.00  0.00    +0.000 A 
ATOM     12  C   UNL     1      -0.059  10.543  22.581  0.00  0.00    +0.000 C 
ATOM     13  C   UNL     1      -0.180   8.998  22.358  0.00  0.00    +0.000 C 
ENDROOT
BRANCH   1  15
ATOM     14  N   UNL     1       3.851   5.984  19.788  0.00  0.00    +0.000 N 
ATOM     15  C   UNL     1       2.575   6.194  19.301  0.00  0.00    +0.000 C 
ATOM     16  O   UNL     1       2.100   5.424  18.466  0.00  0.00    +0.000 OA
ATOM     17  H   UNL     1       4.124   6.465  20.635  0.00  0.00    +0.000 HD
BRANCH  14  18
ATOM     18  C   UNL     1       4.580   4.802  19.350  0.00  0.00    +0.000 C 
BRANCH  18  22
ATOM     19  C   UNL     1       6.897   5.157  15.693  0.00  0.00    +0.000 A 
ATOM     20  C   UNL     1       7.167   5.966  16.795  0.00  0.00    +0.000 A 
ATOM     21  C   UNL     1       6.412   5.844  17.967  0.00  0.00    +0.000 A 
ATOM     22  C   UNL     1       5.339   4.936  18.049  0.00  0.00    +0.000 A 
ATOM     23  C   UNL     1       5.095   4.112  16.945  0.00  0.00    +0.000 A 
ATOM     24  C   UNL     1       5.856   4.232  15.772  0.00  0.00    +0.000 A 
BRANCH  19  26
ATOM     25  C   UNL     1       7.246   4.759  13.388  0.00  0.00    +0.000 C 
ATOM     26  O   UNL     1       7.686   5.373  14.596  0.00  0.00    +0.000 OA
ENDBRANCH  19  26
ENDBRANCH  18  22
ENDBRANCH  14  18
ENDBRANCH   1  15
BRANCH   9  27
ATOM     27  C   UNL     1       0.095  14.029  18.882  0.00  0.00    +0.000 C 
BRANCH  27  28
ATOM     28  C   UNL     1       1.413  14.764  18.976  0.00  0.00    +0.000 A 
ATOM     29  C   UNL     1       1.557  16.036  18.397  0.00  0.00    +0.000 A 
ATOM     30  C   UNL     1       2.760  16.738  18.510  0.00  0.00    +0.000 A 
ATOM     31  C   UNL     1       3.825  16.182  19.215  0.00  0.00    +0.000 A 
ATOM     32 CL   UNL     1       5.305  17.049  19.354  0.00  0.00    +0.000 Cl
ATOM     33  C   UNL     1       3.697  14.929  19.808  0.00  0.00    +0.000 A 
ATOM     34  C   UNL     1       2.494  14.225  19.691  0.00  0.00    +0.000 A 
ENDBRANCH  27  28
ENDBRANCH   9  27
TORSDOF 6
ENDMDL
MODEL 6
REMARK VINA RESULT:      -8.1      1.202      1.561
REMARK  Name = 
REMARK  8 active torsions:
REMARK  status: ('A' for Active; 'I' for Inactive)
REMARK    1  A    between atoms: C_1  and  O_2
REMARK    2  A    between atoms: O_2  and  C_3
REMARK    3  A    between atoms: C_6  and  C_7
REMARK    4  A    between atoms: C_7  and  N_8
REMARK    5  A    between atoms: C_9  and  C_11
REMARK    6  A    between atoms: C_15  and  C_16
REMARK    7  A    between atoms: N_19  and  C_20
REMARK    8  A    between atoms: C_20  and  C_21
REMARK                            x       y       z     vdW  Elec       q    Type
REMARK                         _______ _______ _______ _____ _____    ______ ____
ROOT
ATOM      1  C   UNL     1       2.377   6.774  19.743  0.00  0.00    +0.000 A 
ATOM      2  O   UNL     1       1.654   6.776  20.924  0.00  0.00    +0.000 OA
ATOM      3  C   UNL     1       0.988   7.968  20.955  0.00  0.00    +0.000 A 
ATOM      4  C   UNL     1       1.259   8.706  19.827  0.00  0.00    +0.000 A 
ATOM      5  C   UNL     1       2.131   7.951  19.026  0.00  0.00    +0.000 A 
ATOM      6  C   UNL     1       2.727   8.324  17.718  0.00  0.00    +0.000 C 
ATOM      7  C   UNL     1       0.694  10.036  19.685  0.00  0.00    +0.000 A 
ATOM      8  N   UNL     1       0.696  10.832  18.621  0.00  0.00    +0.000 NA
ATOM      9  N   UNL     1       0.024  11.926  19.050  0.00  0.00    +0.000 N 
ATOM     10  C   UNL     1      -0.382  11.837  20.362  0.00  0.00    +0.000 A 
ATOM     11  C   UNL     1       0.060  10.610  20.816  0.00  0.00    +0.000 A 
ATOM     12  C   UNL     1       0.021   9.945  22.168  0.00  0.00    +0.000 C 
ATOM     13  C   UNL     1       0.091   8.383  22.081  0.00  0.00    +0.000 C 
ENDROOT
BRANCH   1  15
ATOM     14  N   UNL     1       2.878   4.762  18.434  0.00  0.00    +0.000 N 
ATOM     15  C   UNL     1       3.287   5.679  19.385  0.00  0.00    +0.000 C 
ATOM     16  O   UNL     1       4.389   5.562  19.919  0.00  0.00    +0.000 OA
ATOM     17  H   UNL     1       2.098   5.008  17.839  0.00  0.00    +0.000 HD
BRANCH  14  18
ATOM     18  C   UNL     1       3.805   3.713  18.032  0.00  0.00    +0.000 C 
BRANCH  18  22
ATOM     19  C   UNL     1       6.950   5.075  15.364  0.00  0.00    +0.000 A 
ATOM     20  C   UNL     1       5.616   5.086  14.964  0.00  0.00    +0.000 A 
ATOM     21  C   UNL     1       4.611   4.643  15.832  0.00  0.00    +0.000 A 
ATOM     22  C   UNL     1       4.924   4.137  17.107  0.00  0.00    +0.000 A 
ATOM     23  C   UNL     1       6.265   4.154  17.506  0.00  0.00    +0.000 A 
ATOM     24  C   UNL     1       7.271   4.603  16.637  0.00  0.00    +0.000 A 
BRANCH  19  26
ATOM     25  C   UNL     1       7.608   5.089  13.092  0.00  0.00    +0.000 C 
ATOM     26  O   UNL     1       7.849   5.514  14.430  0.00  0.00    +0.000 OA
ENDBRANCH  19  26
ENDBRANCH  18  22
ENDBRANCH  14  18
ENDBRANCH   1  15
BRANCH   9  27
ATOM     27  C   UNL     1      -0.070  13.094  18.177  0.00  0.00    +0.000 C 
BRANCH  27  28
ATOM     28  C   UNL     1       0.645  14.307  18.729  0.00  0.00    +0.000 A 
ATOM     29  C   UNL     1      -0.088  15.417  19.181  0.00  0.00    +0.000 A 
ATOM     30  C   UNL     1       0.564  16.527  19.725  0.00  0.00    +0.000 A 
ATOM     31  C   UNL     1       1.952  16.531  19.837  0.00  0.00    +0.000 A 
ATOM     32 CL   UNL     1       2.751  17.899  20.509  0.00  0.00    +0.000 Cl
ATOM     33  C   UNL     1       2.695  15.435  19.409  0.00  0.00    +0.000 A 
ATOM     34  C   UNL     1       2.043  14.327  18.860  0.00  0.00    +0.000 A 
ENDBRANCH  27  28
ENDBRANCH   9  27
TORSDOF 6
ENDMDL
MODEL 7
REMARK VINA RESULT:      -8.0      5.193     11.310
REMARK  Name = 
REMARK  8 active torsions:
REMARK  status: ('A' for Active; 'I' for Inactive)
REMARK    1  A    between atoms: C_1  and  O_2
REMARK    2  A    between atoms: O_2  and  C_3
REMARK    3  A    between atoms: C_6  and  C_7
REMARK    4  A    between atoms: C_7  and  N_8
REMARK    5  A    between atoms: C_9  and  C_11
REMARK    6  A    between atoms: C_15  and  C_16
REMARK    7  A    between atoms: N_19  and  C_20
REMARK    8  A    between atoms: C_20  and  C_21
REMARK                            x       y       z     vdW  Elec       q    Type
REMARK                         _______ _______ _______ _____ _____    ______ ____
ROOT
ATOM      1  C   UNL     1      -1.032  11.338  21.940  0.00  0.00    +0.000 A 
ATOM      2  O   UNL     1      -0.949  11.797  20.636  0.00  0.00    +0.000 OA
ATOM      3  C   UNL     1      -0.215  10.866  19.956  0.00  0.00    +0.000 A 
ATOM      4  C   UNL     1       0.152   9.834  20.787  0.00  0.00    +0.000 A 
ATOM      5  C   UNL     1      -0.378  10.105  22.059  0.00  0.00    +0.000 A 
ATOM      6  C   UNL     1      -0.239   9.300  23.299  0.00  0.00    +0.000 C 
ATOM      7  C   UNL     1       0.988   8.763  20.277  0.00  0.00    +0.000 A 
ATOM      8  N   UNL     1       1.312   7.611  20.855  0.00  0.00    +0.000 NA
ATOM      9  N   UNL     1       2.091   7.005  19.929  0.00  0.00    +0.000 N 
ATOM     10  C   UNL     1       2.274   7.760  18.793  0.00  0.00    +0.000 A 
ATOM     11  C   UNL     1       1.576   8.934  18.997  0.00  0.00    +0.000 A 
ATOM     12  C   UNL     1       1.442  10.199  18.189  0.00  0.00    +0.000 C 
ATOM     13  C   UNL     1       0.125  10.986  18.502  0.00  0.00    +0.000 C 
ENDROOT
BRANCH   1  15
ATOM     14  N   UNL     1      -2.990  11.797  23.342  0.00  0.00    +0.000 N 
ATOM     15  C   UNL     1      -1.688  12.111  23.001  0.00  0.00    +0.000 C 
ATOM     16  O   UNL     1      -1.105  13.029  23.578  0.00  0.00    +0.000 OA
ATOM     17  H   UNL     1      -3.359  10.904  23.044  0.00  0.00    +0.000 HD
BRANCH  14  18
ATOM     18  C   UNL     1      -3.619  12.522  24.437  0.00  0.00    +0.000 C 
BRANCH  18  22
ATOM     19  C   UNL     1      -6.889  15.105  23.213  0.00  0.00    +0.000 A 
ATOM     20  C   UNL     1      -5.574  15.566  23.218  0.00  0.00    +0.000 A 
ATOM     21  C   UNL     1      -4.529  14.724  23.616  0.00  0.00    +0.000 A 
ATOM     22  C   UNL     1      -4.781  13.413  24.061  0.00  0.00    +0.000 A 
ATOM     23  C   UNL     1      -6.103  12.954  24.027  0.00  0.00    +0.000 A 
ATOM     24  C   UNL     1      -7.149  13.797  23.622  0.00  0.00    +0.000 A 
BRANCH  19  26
ATOM     25  C   UNL     1      -7.890  16.283  21.422  0.00  0.00    +0.000 C 
ATOM     26  O   UNL     1      -7.831  16.017  22.821  0.00  0.00    +0.000 OA
ENDBRANCH  19  26
ENDBRANCH  18  22
ENDBRANCH  14  18
ENDBRANCH   1  15
BRANCH   9  27
ATOM     27  C   UNL     1       2.750   5.745  20.264  0.00  0.00    +0.000 C 
BRANCH  27  28
ATOM     28  C   UNL     1       3.590   5.196  19.133  0.00  0.00    +0.000 A 
ATOM     29  C   UNL     1       2.986   4.488  18.081  0.00  0.00    +0.000 A 
ATOM     30  C   UNL     1       3.750   4.008  17.014  0.00  0.00    +0.000 A 
ATOM     31  C   UNL     1       5.123   4.244  16.981  0.00  0.00    +0.000 A 
ATOM     32 CL   UNL     1       6.061   3.652  15.665  0.00  0.00    +0.000 Cl
ATOM     33  C   UNL     1       5.738   4.956  18.007  0.00  0.00    +0.000 A 
ATOM     34  C   UNL     1       4.973   5.432  19.077  0.00  0.00    +0.000 A 
ENDBRANCH  27  28
ENDBRANCH   9  27
TORSDOF 6
ENDMDL
MODEL 8
REMARK VINA RESULT:      -7.9      1.369      1.646
REMARK  Name = 
REMARK  8 active torsions:
REMARK  status: ('A' for Active; 'I' for Inactive)
REMARK    1  A    between atoms: C_1  and  O_2
REMARK    2  A    between atoms: O_2  and  C_3
REMARK    3  A    between atoms: C_6  and  C_7
REMARK    4  A    between atoms: C_7  and  N_8
REMARK    5  A    between atoms: C_9  and  C_11
REMARK    6  A    between atoms: C_15  and  C_16
REMARK    7  A    between atoms: N_19  and  C_20
REMARK    8  A    between atoms: C_20  and  C_21
REMARK                            x       y       z     vdW  Elec       q    Type
REMARK                         _______ _______ _______ _____ _____    ______ ____
ROOT
ATOM      1  C   UNL     1       2.074   7.193  19.724  0.00  0.00    +0.000 A 
ATOM      2  O   UNL     1       1.471   7.245  20.969  0.00  0.00    +0.000 OA
ATOM      3  C   UNL     1       0.849   8.460  21.035  0.00  0.00    +0.000 A 
ATOM      4  C   UNL     1       1.032   9.164  19.869  0.00  0.00    +0.000 A 
ATOM      5  C   UNL     1       1.797   8.362  19.005  0.00  0.00    +0.000 A 
ATOM      6  C   UNL     1       2.274   8.686  17.637  0.00  0.00    +0.000 C 
ATOM      7  C   UNL     1       0.499  10.509  19.749  0.00  0.00    +0.000 A 
ATOM      8  N   UNL     1       0.423  11.281  18.670  0.00  0.00    +0.000 NA
ATOM      9  N   UNL     1      -0.168  12.407  19.135  0.00  0.00    +0.000 N 
ATOM     10  C   UNL     1      -0.446  12.360  20.482  0.00  0.00    +0.000 A 
ATOM     11  C   UNL     1      -0.002  11.129  20.922  0.00  0.00    +0.000 A 
ATOM     12  C   UNL     1       0.071  10.495  22.287  0.00  0.00    +0.000 C 
ATOM     13  C   UNL     1       0.081   8.930  22.233  0.00  0.00    +0.000 C 
ENDROOT
BRANCH   1  15
ATOM     14  N   UNL     1       2.509   5.309  18.216  0.00  0.00    +0.000 N 
ATOM     15  C   UNL     1       2.908   6.060  19.306  0.00  0.00    +0.000 C 
ATOM     16  O   UNL     1       3.939   5.767  19.911  0.00  0.00    +0.000 OA
ATOM     17  H   UNL     1       1.815   5.702  17.595  0.00  0.00    +0.000 HD
BRANCH  14  18
ATOM     18  C   UNL     1       3.369   4.225  17.763  0.00  0.00    +0.000 C 
BRANCH  18  22
ATOM     19  C   UNL     1       6.723   5.268  15.209  0.00  0.00    +0.000 A 
ATOM     20  C   UNL     1       6.597   3.986  15.738  0.00  0.00    +0.000 A 
ATOM     21  C   UNL     1       5.512   3.662  16.562  0.00  0.00    +0.000 A 
ATOM     22  C   UNL     1       4.550   4.629  16.910  0.00  0.00    +0.000 A 
ATOM     23  C   UNL     1       4.675   5.905  16.351  0.00  0.00    +0.000 A 
ATOM     24  C   UNL     1       5.760   6.228  15.521  0.00  0.00    +0.000 A 
BRANCH  19  26
ATOM     25  C   UNL     1       7.637   5.325  13.028  0.00  0.00    +0.000 C 
ATOM     26  O   UNL     1       7.830   5.478  14.431  0.00  0.00    +0.000 OA
ENDBRANCH  19  26
ENDBRANCH  18  22
ENDBRANCH  14  18
ENDBRANCH   1  15
BRANCH   9  27
ATOM     27  C   UNL     1      -0.310  13.559  18.247  0.00  0.00    +0.000 C 
BRANCH  27  28
ATOM     28  C   UNL     1       0.316  14.818  18.802  0.00  0.00    +0.000 A 
ATOM     29  C   UNL     1       1.714  14.957  18.838  0.00  0.00    +0.000 A 
ATOM     30  C   UNL     1       2.300  16.132  19.317  0.00  0.00    +0.000 A 
ATOM     31  C   UNL     1       1.495  17.183  19.751  0.00  0.00    +0.000 A 
ATOM     32 CL   UNL     1       2.220  18.629  20.339  0.00  0.00    +0.000 Cl
ATOM     33  C   UNL     1       0.108  17.069  19.710  0.00  0.00    +0.000 A 
ATOM     34  C   UNL     1      -0.478  15.892  19.235  0.00  0.00    +0.000 A 
ENDBRANCH  27  28
ENDBRANCH   9  27
TORSDOF 6
ENDMDL
MODEL 9
REMARK VINA RESULT:      -7.9      3.965      5.548
REMARK  Name = 
REMARK  8 active torsions:
REMARK  status: ('A' for Active; 'I' for Inactive)
REMARK    1  A    between atoms: C_1  and  O_2
REMARK    2  A    between atoms: O_2  and  C_3
REMARK    3  A    between atoms: C_6  and  C_7
REMARK    4  A    between atoms: C_7  and  N_8
REMARK    5  A    between atoms: C_9  and  C_11
REMARK    6  A    between atoms: C_15  and  C_16
REMARK    7  A    between atoms: N_19  and  C_20
REMARK    8  A    between atoms: C_20  and  C_21
REMARK                            x       y       z     vdW  Elec       q    Type
REMARK                         _______ _______ _______ _____ _____    ______ ____
ROOT
ATOM      1  C   UNL     1       1.358   9.197  20.152  0.00  0.00    +0.000 A 
ATOM      2  O   UNL     1       1.482  10.095  19.105  0.00  0.00    +0.000 OA
ATOM      3  C   UNL     1       0.933  11.265  19.547  0.00  0.00    +0.000 A 
ATOM      4  C   UNL     1       0.482  11.134  20.839  0.00  0.00    +0.000 A 
ATOM      5  C   UNL     1       0.763   9.822  21.255  0.00  0.00    +0.000 A 
ATOM      6  C   UNL     1       0.451   9.190  22.562  0.00  0.00    +0.000 C 
ATOM      7  C   UNL     1      -0.191  12.248  21.483  0.00  0.00    +0.000 A 
ATOM      8  N   UNL     1      -0.547  12.382  22.755  0.00  0.00    +0.000 NA
ATOM      9  N   UNL     1      -1.116  13.611  22.791  0.00  0.00    +0.000 N 
ATOM     10  C   UNL     1      -1.136  14.238  21.566  0.00  0.00    +0.000 A 
ATOM     11  C   UNL     1      -0.550  13.359  20.677  0.00  0.00    +0.000 A 
ATOM     12  C   UNL     1      -0.345  13.398  19.184  0.00  0.00    +0.000 C 
ATOM     13  C   UNL     1       0.850  12.505  18.709  0.00  0.00    +0.000 C 
ENDROOT
BRANCH   1  15
ATOM     14  N   UNL     1       2.379   7.379  18.862  0.00  0.00    +0.000 N 
ATOM     15  C   UNL     1       1.772   7.794  20.033  0.00  0.00    +0.000 C 
ATOM     16  O   UNL     1       1.579   6.990  20.944  0.00  0.00    +0.000 OA
ATOM     17  H   UNL     1       2.747   8.086  18.239  0.00  0.00    +0.000 HD
BRANCH  14  18
ATOM     18  C   UNL     1       2.846   6.003  18.767  0.00  0.00    +0.000 C 
BRANCH  18  22
ATOM     19  C   UNL     1       5.703   5.122  15.616  0.00  0.00    +0.000 A 
ATOM     20  C   UNL     1       5.093   4.098  16.338  0.00  0.00    +0.000 A 
ATOM     21  C   UNL     1       4.175   4.395  17.353  0.00  0.00    +0.000 A 
ATOM     22  C   UNL     1       3.879   5.727  17.697  0.00  0.00    +0.000 A 
ATOM     23  C   UNL     1       4.480   6.745  16.949  0.00  0.00    +0.000 A 
ATOM     24  C   UNL     1       5.396   6.446  15.928  0.00  0.00    +0.000 A 
BRANCH  19  26
ATOM     25  C   UNL     1       6.066   3.880  13.637  0.00  0.00    +0.000 C 
ATOM     26  O   UNL     1       6.595   4.718  14.660  0.00  0.00    +0.000 OA
ENDBRANCH  19  26
ENDBRANCH  18  22
ENDBRANCH  14  18
ENDBRANCH   1  15
BRANCH   9  27
ATOM     27  C   UNL     1      -1.753  14.067  24.024  0.00  0.00    +0.000 C 
BRANCH  27  28
ATOM     28  C   UNL     1      -3.256  13.902  24.012  0.00  0.00    +0.000 A 
ATOM     29  C   UNL     1      -4.079  14.944  23.553  0.00  0.00    +0.000 A 
ATOM     30  C   UNL     1      -5.467  14.786  23.504  0.00  0.00    +0.000 A 
ATOM     31  C   UNL     1      -6.043  13.581  23.899  0.00  0.00    +0.000 A 
ATOM     32 CL   UNL     1      -7.753  13.390  23.837  0.00  0.00    +0.000 Cl
ATOM     33  C   UNL     1      -5.243  12.532  24.344  0.00  0.00    +0.000 A 
ATOM     34  C   UNL     1      -3.856  12.692  24.397  0.00  0.00    +0.000 A 
ENDBRANCH  27  28
ENDBRANCH   9  27
TORSDOF 6
ENDMDL
