MODEL 1
REMARK VINA RESULT:      -6.7      0.000      0.000
REMARK  Name = 
REMARK  2 active torsions:
REMARK  status: ('A' for Active; 'I' for Inactive)
REMARK    1  A    between atoms: N_3  and  N_4
REMARK    2  A    between atoms: C_5  and  C_6
REMARK                            x       y       z     vdW  Elec       q    Type
REMARK                         _______ _______ _______ _____ _____    ______ ____
ROOT
ATOM      1  O   UNL     1       1.018   7.599  21.484  0.00  0.00    +0.000 OA
ATOM      2  C   UNL     1       1.714   7.524  20.478  0.00  0.00    +0.000 C 
ATOM      3  N   UNL     1       2.564   6.450  20.299  0.00  0.00    +0.000 N 
ATOM      4  N   UNL     1       1.765   8.426  19.435  0.00  0.00    +0.000 N 
ATOM      5  C   UNL     1       1.128   9.619  19.244  0.00  0.00    +0.000 A 
ATOM      6  N   UNL     1       1.330  10.314  18.169  0.00  0.00    +0.000 NA
ATOM      7  N   UNL     1       0.568  11.449  18.229  0.00  0.00    +0.000 N 
ATOM      8  C   UNL     1      -0.229  11.618  19.330  0.00  0.00    +0.000 A 
ATOM      9  S   UNL     1      -1.253  12.900  19.551  0.00  0.00    +0.000 S 
ATOM     10  S   UNL     1       0.019  10.277  20.407  0.00  0.00    +0.000 S 
ATOM     11  H   UNL     1       2.564   5.746  21.031  0.00  0.00    +0.000 HD
ATOM     12  H   UNL     1       2.394   8.129  18.702  0.00  0.00    +0.000 HD
ATOM     13  H   UNL     1       0.585  12.106  17.457  0.00  0.00    +0.000 HD
ENDROOT
BRANCH   3  14
ATOM     14  N   UNL     1       3.324   6.310  19.174  0.00  0.00    +0.000 NA
ATOM     15  C   UNL     1       4.225   5.379  19.242  0.00  0.00    +0.000 C 
BRANCH  15  16
ATOM     16  C   UNL     1       5.099   5.074  18.092  0.00  0.00    +0.000 A 
ATOM     17  C   UNL     1       6.478   4.910  18.278  0.00  0.00    +0.000 A 
ATOM     18  C   UNL     1       7.303   4.670  17.180  0.00  0.00    +0.000 A 
ATOM     19  C   UNL     1       6.745   4.593  15.909  0.00  0.00    +0.000 A 
ATOM     20  F   UNL     1       7.540   4.378  14.854  0.00  0.00    +0.000 F 
ATOM     21  C   UNL     1       5.374   4.741  15.715  0.00  0.00    +0.000 A 
ATOM     22  C   UNL     1       4.542   4.982  16.811  0.00  0.00    +0.000 A 
ENDBRANCH  15  16
ENDBRANCH   3  14
TORSDOF 2
ENDMDL
MODEL 2
REMARK VINA RESULT:      -6.6      4.932      7.915
REMARK  Name = 
REMARK  2 active torsions:
REMARK  status: ('A' for Active; 'I' for Inactive)
REMARK    1  A    between atoms: N_3  and  N_4
REMARK    2  A    between atoms: C_5  and  C_6
REMARK                            x       y       z     vdW  Elec       q    Type
REMARK                         _______ _______ _______ _____ _____    ______ ____
ROOT
ATOM      1  O   UNL     1       3.497   4.112  19.629  0.00  0.00    +0.000 OA
ATOM      2  C   UNL     1       3.153   5.285  19.538  0.00  0.00    +0.000 C 
ATOM      3  N   UNL     1       2.315   5.839  20.486  0.00  0.00    +0.000 N 
ATOM      4  N   UNL     1       3.517   6.183  18.555  0.00  0.00    +0.000 N 
ATOM      5  C   UNL     1       4.283   6.031  17.435  0.00  0.00    +0.000 A 
ATOM      6  N   UNL     1       4.495   7.029  16.636  0.00  0.00    +0.000 NA
ATOM      7  N   UNL     1       5.294   6.609  15.608  0.00  0.00    +0.000 N 
ATOM      8  C   UNL     1       5.710   5.304  15.624  0.00  0.00    +0.000 A 
ATOM      9  S   UNL     1       6.718   4.633  14.495  0.00  0.00    +0.000 S 
ATOM     10  S   UNL     1       5.016   4.516  17.010  0.00  0.00    +0.000 S 
ATOM     11  H   UNL     1       2.020   5.228  21.242  0.00  0.00    +0.000 HD
ATOM     12  H   UNL     1       3.130   7.103  18.716  0.00  0.00    +0.000 HD
ATOM     13  H   UNL     1       5.581   7.268  14.894  0.00  0.00    +0.000 HD
ENDROOT
BRANCH   3  14
ATOM     14  N   UNL     1       1.944   7.152  20.444  0.00  0.00    +0.000 NA
ATOM     15  C   UNL     1       1.032   7.484  21.304  0.00  0.00    +0.000 C 
BRANCH  15  16
ATOM     16  C   UNL     1       0.554   8.877  21.413  0.00  0.00    +0.000 A 
ATOM     17  C   UNL     1      -0.056   9.323  22.593  0.00  0.00    +0.000 A 
ATOM     18  C   UNL     1      -0.548  10.626  22.671  0.00  0.00    +0.000 A 
ATOM     19  C   UNL     1      -0.423  11.471  21.574  0.00  0.00    +0.000 A 
ATOM     20  F   UNL     1      -0.910  12.716  21.645  0.00  0.00    +0.000 F 
ATOM     21  C   UNL     1       0.194  11.042  20.402  0.00  0.00    +0.000 A 
ATOM     22  C   UNL     1       0.688   9.738  20.318  0.00  0.00    +0.000 A 
ENDBRANCH  15  16
ENDBRANCH   3  14
TORSDOF 2
ENDMDL
MODEL 3
REMARK VINA RESULT:      -6.6      4.926      7.941
REMARK  Name = 
REMARK  2 active torsions:
REMARK  status: ('A' for Active; 'I' for Inactive)
REMARK    1  A    between atoms: N_3  and  N_4
REMARK    2  A    between atoms: C_5  and  C_6
REMARK                            x       y       z     vdW  Elec       q    Type
REMARK                         _______ _______ _______ _____ _____    ______ ____
ROOT
ATOM      1  O   UNL     1       3.495   4.140  19.683  0.00  0.00    +0.000 OA
ATOM      2  C   UNL     1       3.135   5.307  19.578  0.00  0.00    +0.000 C 
ATOM      3  N   UNL     1       2.285   5.860  20.517  0.00  0.00    +0.000 N 
ATOM      4  N   UNL     1       3.488   6.198  18.585  0.00  0.00    +0.000 N 
ATOM      5  C   UNL     1       4.260   6.044  17.470  0.00  0.00    +0.000 A 
ATOM      6  N   UNL     1       4.460   7.036  16.659  0.00  0.00    +0.000 NA
ATOM      7  N   UNL     1       5.268   6.615  15.639  0.00  0.00    +0.000 N 
ATOM      8  C   UNL     1       5.703   5.316  15.672  0.00  0.00    +0.000 A 
ATOM      9  S   UNL     1       6.724   4.647  14.554  0.00  0.00    +0.000 S 
ATOM     10  S   UNL     1       5.016   4.535  17.064  0.00  0.00    +0.000 S 
ATOM     11  H   UNL     1       1.997   5.254  21.279  0.00  0.00    +0.000 HD
ATOM     12  H   UNL     1       3.088   7.115  18.734  0.00  0.00    +0.000 HD
ATOM     13  H   UNL     1       5.548   7.270  14.918  0.00  0.00    +0.000 HD
ENDROOT
BRANCH   3  14
ATOM     14  N   UNL     1       1.895   7.167  20.458  0.00  0.00    +0.000 NA
ATOM     15  C   UNL     1       1.013   7.509  21.345  0.00  0.00    +0.000 C 
BRANCH  15  16
ATOM     16  C   UNL     1       0.522   8.898  21.439  0.00  0.00    +0.000 A 
ATOM     17  C   UNL     1       0.749   9.800  20.392  0.00  0.00    +0.000 A 
ATOM     18  C   UNL     1       0.324  11.123  20.509  0.00  0.00    +0.000 A 
ATOM     19  C   UNL     1      -0.326  11.532  21.669  0.00  0.00    +0.000 A 
ATOM     20  F   UNL     1      -0.719  12.806  21.786  0.00  0.00    +0.000 F 
ATOM     21  C   UNL     1      -0.569  10.640  22.710  0.00  0.00    +0.000 A 
ATOM     22  C   UNL     1      -0.145   9.313  22.598  0.00  0.00    +0.000 A 
ENDBRANCH  15  16
ENDBRANCH   3  14
TORSDOF 2
ENDMDL
MODEL 4
REMARK VINA RESULT:      -6.6      2.306      3.119
REMARK  Name = 
REMARK  2 active torsions:
REMARK  status: ('A' for Active; 'I' for Inactive)
REMARK    1  A    between atoms: N_3  and  N_4
REMARK    2  A    between atoms: C_5  and  C_6
REMARK                            x       y       z     vdW  Elec       q    Type
REMARK                         _______ _______ _______ _____ _____    ______ ____
ROOT
ATOM      1  O   UNL     1       3.280   5.474  19.942  0.00  0.00    +0.000 OA
ATOM      2  C   UNL     1       3.792   5.745  18.861  0.00  0.00    +0.000 C 
ATOM      3  N   UNL     1       4.759   4.917  18.323  0.00  0.00    +0.000 N 
ATOM      4  N   UNL     1       3.513   6.832  18.059  0.00  0.00    +0.000 N 
ATOM      5  C   UNL     1       2.669   7.890  18.238  0.00  0.00    +0.000 A 
ATOM      6  N   UNL     1       2.565   8.816  17.337  0.00  0.00    +0.000 NA
ATOM      7  N   UNL     1       1.653   9.743  17.761  0.00  0.00    +0.000 N 
ATOM      8  C   UNL     1       1.044   9.526  18.969  0.00  0.00    +0.000 A 
ATOM      9  S   UNL     1      -0.117  10.510  19.619  0.00  0.00    +0.000 S 
ATOM     10  S   UNL     1       1.690   8.068  19.661  0.00  0.00    +0.000 S 
ATOM     11  H   UNL     1       5.000   4.092  18.865  0.00  0.00    +0.000 HD
ATOM     12  H   UNL     1       4.043   6.820  17.199  0.00  0.00    +0.000 HD
ATOM     13  H   UNL     1       1.428  10.534  17.168  0.00  0.00    +0.000 HD
ENDROOT
BRANCH   3  14
ATOM     14  N   UNL     1       5.322   5.160  17.105  0.00  0.00    +0.000 NA
ATOM     15  C   UNL     1       5.465   4.111  16.355  0.00  0.00    +0.000 C 
BRANCH  15  16
ATOM     16  C   UNL     1       6.020   4.215  14.990  0.00  0.00    +0.000 A 
ATOM     17  C   UNL     1       7.128   5.036  14.739  0.00  0.00    +0.000 A 
ATOM     18  C   UNL     1       7.615   5.166  13.440  0.00  0.00    +0.000 A 
ATOM     19  C   UNL     1       6.996   4.475  12.405  0.00  0.00    +0.000 A 
ATOM     20  F   UNL     1       7.455   4.613  11.155  0.00  0.00    +0.000 F 
ATOM     21  C   UNL     1       5.903   3.646  12.646  0.00  0.00    +0.000 A 
ATOM     22  C   UNL     1       5.410   3.512  13.946  0.00  0.00    +0.000 A 
ENDBRANCH  15  16
ENDBRANCH   3  14
TORSDOF 2
ENDMDL
MODEL 5
REMARK VINA RESULT:      -6.6      6.168      6.531
REMARK  Name = 
REMARK  2 active torsions:
REMARK  status: ('A' for Active; 'I' for Inactive)
REMARK    1  A    between atoms: N_3  and  N_4
REMARK    2  A    between atoms: C_5  and  C_6
REMARK                            x       y       z     vdW  Elec       q    Type
REMARK                         _______ _______ _______ _____ _____    ______ ____
ROOT
ATOM      1  O   UNL     1       9.828  10.669  20.273  0.00  0.00    +0.000 OA
ATOM      2  C   UNL     1       9.183  10.211  19.336  0.00  0.00    +0.000 C 
ATOM      3  N   UNL     1       9.057   8.844  19.181  0.00  0.00    +0.000 N 
ATOM      4  N   UNL     1       8.523  10.924  18.356  0.00  0.00    +0.000 N 
ATOM      5  C   UNL     1       8.435  12.267  18.124  0.00  0.00    +0.000 A 
ATOM      6  N   UNL     1       7.749  12.723  17.123  0.00  0.00    +0.000 NA
ATOM      7  N   UNL     1       7.819  14.090  17.128  0.00  0.00    +0.000 N 
ATOM      8  C   UNL     1       8.535  14.683  18.134  0.00  0.00    +0.000 A 
ATOM      9  S   UNL     1       8.688  16.319  18.330  0.00  0.00    +0.000 S 
ATOM     10  S   UNL     1       9.220  13.438  19.136  0.00  0.00    +0.000 S 
ATOM     11  H   UNL     1       9.514   8.265  19.879  0.00  0.00    +0.000 HD
ATOM     12  H   UNL     1       8.034  10.322  17.708  0.00  0.00    +0.000 HD
ATOM     13  H   UNL     1       7.320  14.620  16.422  0.00  0.00    +0.000 HD
ENDROOT
BRANCH   3  14
ATOM     14  N   UNL     1       8.313   8.297  18.176  0.00  0.00    +0.000 NA
ATOM     15  C   UNL     1       7.978   7.058  18.364  0.00  0.00    +0.000 C 
BRANCH  15  16
ATOM     16  C   UNL     1       7.137   6.336  17.388  0.00  0.00    +0.000 A 
ATOM     17  C   UNL     1       5.985   6.939  16.867  0.00  0.00    +0.000 A 
ATOM     18  C   UNL     1       5.171   6.233  15.983  0.00  0.00    +0.000 A 
ATOM     19  C   UNL     1       5.514   4.933  15.627  0.00  0.00    +0.000 A 
ATOM     20  F   UNL     1       4.722   4.251  14.791  0.00  0.00    +0.000 F 
ATOM     21  C   UNL     1       6.664   4.329  16.129  0.00  0.00    +0.000 A 
ATOM     22  C   UNL     1       7.484   5.032  17.015  0.00  0.00    +0.000 A 
ENDBRANCH  15  16
ENDBRANCH   3  14
TORSDOF 2
ENDMDL
MODEL 6
REMARK VINA RESULT:      -6.6      1.274      1.372
REMARK  Name = 
REMARK  2 active torsions:
REMARK  status: ('A' for Active; 'I' for Inactive)
REMARK    1  A    between atoms: N_3  and  N_4
REMARK    2  A    between atoms: C_5  and  C_6
REMARK                            x       y       z     vdW  Elec       q    Type
REMARK                         _______ _______ _______ _____ _____    ______ ____
ROOT
ATOM      1  O   UNL     1       1.110   8.489  22.039  0.00  0.00    +0.000 OA
ATOM      2  C   UNL     1       1.437   8.134  20.912  0.00  0.00    +0.000 C 
ATOM      3  N   UNL     1       1.996   6.886  20.710  0.00  0.00    +0.000 N 
ATOM      4  N   UNL     1       1.311   8.859  19.744  0.00  0.00    +0.000 N 
ATOM      5  C   UNL     1       0.856  10.125  19.515  0.00  0.00    +0.000 A 
ATOM      6  N   UNL     1       0.828  10.614  18.315  0.00  0.00    +0.000 NA
ATOM      7  N   UNL     1       0.324  11.885  18.368  0.00  0.00    +0.000 N 
ATOM      8  C   UNL     1      -0.051  12.366  19.594  0.00  0.00    +0.000 A 
ATOM      9  S   UNL     1      -0.725  13.857  19.845  0.00  0.00    +0.000 S 
ATOM     10  S   UNL     1       0.291  11.155  20.794  0.00  0.00    +0.000 S 
ATOM     11  H   UNL     1       2.105   6.301  21.533  0.00  0.00    +0.000 HD
ATOM     12  H   UNL     1       1.622   8.339  18.935  0.00  0.00    +0.000 HD
ATOM     13  H   UNL     1       0.211  12.415  17.512  0.00  0.00    +0.000 HD
ENDROOT
BRANCH   3  14
ATOM     14  N   UNL     1       2.334   6.439  19.466  0.00  0.00    +0.000 NA
ATOM     15  C   UNL     1       3.600   6.214  19.298  0.00  0.00    +0.000 C 
BRANCH  15  16
ATOM     16  C   UNL     1       4.120   5.685  18.021  0.00  0.00    +0.000 A 
ATOM     17  C   UNL     1       4.055   4.313  17.746  0.00  0.00    +0.000 A 
ATOM     18  C   UNL     1       4.592   3.816  16.560  0.00  0.00    +0.000 A 
ATOM     19  C   UNL     1       5.186   4.692  15.658  0.00  0.00    +0.000 A 
ATOM     20  F   UNL     1       5.715   4.210  14.526  0.00  0.00    +0.000 F 
ATOM     21  C   UNL     1       5.243   6.059  15.914  0.00  0.00    +0.000 A 
ATOM     22  C   UNL     1       4.707   6.563  17.102  0.00  0.00    +0.000 A 
ENDBRANCH  15  16
ENDBRANCH   3  14
TORSDOF 2
ENDMDL
MODEL 7
REMARK VINA RESULT:      -6.5      1.374      1.644
REMARK  Name = 
REMARK  2 active torsions:
REMARK  status: ('A' for Active; 'I' for Inactive)
REMARK    1  A    between atoms: N_3  and  N_4
REMARK    2  A    between atoms: C_5  and  C_6
REMARK                            x       y       z     vdW  Elec       q    Type
REMARK                         _______ _______ _______ _____ _____    ______ ____
ROOT
ATOM      1  O   UNL     1       1.838   6.364  20.684  0.00  0.00    +0.000 OA
ATOM      2  C   UNL     1       2.335   6.286  19.565  0.00  0.00    +0.000 C 
ATOM      3  N   UNL     1       2.958   5.120  19.161  0.00  0.00    +0.000 N 
ATOM      4  N   UNL     1       2.355   7.267  18.596  0.00  0.00    +0.000 N 
ATOM      5  C   UNL     1       1.896   8.553  18.606  0.00  0.00    +0.000 A 
ATOM      6  N   UNL     1       2.025   9.312  17.563  0.00  0.00    +0.000 NA
ATOM      7  N   UNL     1       1.477  10.535  17.838  0.00  0.00    +0.000 N 
ATOM      8  C   UNL     1       0.914  10.712  19.073  0.00  0.00    +0.000 A 
ATOM      9  S   UNL     1       0.162  12.103  19.564  0.00  0.00    +0.000 S 
ATOM     10  S   UNL     1       1.119   9.251  19.992  0.00  0.00    +0.000 S 
ATOM     11  H   UNL     1       2.967   4.356  19.831  0.00  0.00    +0.000 HD
ATOM     12  H   UNL     1       2.796   6.953  17.742  0.00  0.00    +0.000 HD
ATOM     13  H   UNL     1       1.471  11.254  17.123  0.00  0.00    +0.000 HD
ENDROOT
BRANCH   3  14
ATOM     14  N   UNL     1       3.486   4.980  17.911  0.00  0.00    +0.000 NA
ATOM     15  C   UNL     1       4.779   5.070  17.857  0.00  0.00    +0.000 C 
BRANCH  15  16
ATOM     16  C   UNL     1       5.505   4.897  16.583  0.00  0.00    +0.000 A 
ATOM     17  C   UNL     1       6.840   5.309  16.470  0.00  0.00    +0.000 A 
ATOM     18  C   UNL     1       7.504   5.186  15.250  0.00  0.00    +0.000 A 
ATOM     19  C   UNL     1       6.832   4.651  14.156  0.00  0.00    +0.000 A 
ATOM     20  F   UNL     1       7.466   4.549  12.982  0.00  0.00    +0.000 F 
ATOM     21  C   UNL     1       5.510   4.226  14.262  0.00  0.00    +0.000 A 
ATOM     22  C   UNL     1       4.839   4.347  15.481  0.00  0.00    +0.000 A 
ENDBRANCH  15  16
ENDBRANCH   3  14
TORSDOF 2
ENDMDL
MODEL 8
REMARK VINA RESULT:      -6.5      3.009      3.575
REMARK  Name = 
REMARK  2 active torsions:
REMARK  status: ('A' for Active; 'I' for Inactive)
REMARK    1  A    between atoms: N_3  and  N_4
REMARK    2  A    between atoms: C_5  and  C_6
REMARK                            x       y       z     vdW  Elec       q    Type
REMARK                         _______ _______ _______ _____ _____    ______ ____
ROOT
ATOM      1  O   UNL     1       1.216  10.651  18.456  0.00  0.00    +0.000 OA
ATOM      2  C   UNL     1       1.451   9.536  18.909  0.00  0.00    +0.000 C 
ATOM      3  N   UNL     1       2.204   8.634  18.181  0.00  0.00    +0.000 N 
ATOM      4  N   UNL     1       1.041   9.030  20.126  0.00  0.00    +0.000 N 
ATOM      5  C   UNL     1       0.262   9.569  21.108  0.00  0.00    +0.000 A 
ATOM      6  N   UNL     1      -0.002   8.901  22.187  0.00  0.00    +0.000 NA
ATOM      7  N   UNL     1      -0.788   9.671  23.001  0.00  0.00    +0.000 N 
ATOM      8  C   UNL     1      -1.112  10.927  22.562  0.00  0.00    +0.000 A 
ATOM      9  S   UNL     1      -2.009  12.015  23.430  0.00  0.00    +0.000 S 
ATOM     10  S   UNL     1      -0.420  11.161  20.985  0.00  0.00    +0.000 S 
ATOM     11  H   UNL     1       2.544   8.954  17.278  0.00  0.00    +0.000 HD
ATOM     12  H   UNL     1       1.389   8.095  20.288  0.00  0.00    +0.000 HD
ATOM     13  H   UNL     1      -1.076   9.313  23.905  0.00  0.00    +0.000 HD
ENDROOT
BRANCH   3  14
ATOM     14  N   UNL     1       2.523   7.400  18.667  0.00  0.00    +0.000 NA
ATOM     15  C   UNL     1       2.453   6.441  17.796  0.00  0.00    +0.000 C 
BRANCH  15  16
ATOM     16  C   UNL     1       2.810   5.054  18.156  0.00  0.00    +0.000 A 
ATOM     17  C   UNL     1       3.897   4.801  19.002  0.00  0.00    +0.000 A 
ATOM     18  C   UNL     1       4.256   3.487  19.298  0.00  0.00    +0.000 A 
ATOM     19  C   UNL     1       3.526   2.438  18.749  0.00  0.00    +0.000 A 
ATOM     20  F   UNL     1       3.882   1.177  19.021  0.00  0.00    +0.000 F 
ATOM     21  C   UNL     1       2.435   2.679  17.918  0.00  0.00    +0.000 A 
ATOM     22  C   UNL     1       2.070   3.994  17.618  0.00  0.00    +0.000 A 
ENDBRANCH  15  16
ENDBRANCH   3  14
TORSDOF 2
ENDMDL
MODEL 9
REMARK VINA RESULT:      -6.5      2.975      3.873
REMARK  Name = 
REMARK  2 active torsions:
REMARK  status: ('A' for Active; 'I' for Inactive)
REMARK    1  A    between atoms: N_3  and  N_4
REMARK    2  A    between atoms: C_5  and  C_6
REMARK                            x       y       z     vdW  Elec       q    Type
REMARK                         _______ _______ _______ _____ _____    ______ ____
ROOT
ATOM      1  O   UNL     1       0.978  11.914  18.610  0.00  0.00    +0.000 OA
ATOM      2  C   UNL     1       0.948  10.768  18.174  0.00  0.00    +0.000 C 
ATOM      3  N   UNL     1       2.123  10.080  17.945  0.00  0.00    +0.000 N 
ATOM      4  N   UNL     1      -0.175  10.028  17.865  0.00  0.00    +0.000 N 
ATOM      5  C   UNL     1      -1.502  10.344  17.907  0.00  0.00    +0.000 A 
ATOM      6  N   UNL     1      -2.402   9.477  17.563  0.00  0.00    +0.000 NA
ATOM      7  N   UNL     1      -3.639  10.046  17.705  0.00  0.00    +0.000 N 
ATOM      8  C   UNL     1      -3.693  11.332  18.172  0.00  0.00    +0.000 A 
ATOM      9  S   UNL     1      -5.097  12.162  18.454  0.00  0.00    +0.000 S 
ATOM     10  S   UNL     1      -2.070  11.904  18.415  0.00  0.00    +0.000 S 
ATOM     11  H   UNL     1       2.985  10.571  18.163  0.00  0.00    +0.000 HD
ATOM     12  H   UNL     1       0.056   9.095  17.552  0.00  0.00    +0.000 HD
ATOM     13  H   UNL     1      -4.468   9.500  17.499  0.00  0.00    +0.000 HD
ENDROOT
BRANCH   3  14
ATOM     14  N   UNL     1       2.130   8.790  17.500  0.00  0.00    +0.000 NA
ATOM     15  C   UNL     1       2.829   7.972  18.224  0.00  0.00    +0.000 C 
BRANCH  15  16
ATOM     16  C   UNL     1       2.902   6.533  17.900  0.00  0.00    +0.000 A 
ATOM     17  C   UNL     1       1.788   5.707  18.102  0.00  0.00    +0.000 A 
ATOM     18  C   UNL     1       1.879   4.342  17.839  0.00  0.00    +0.000 A 
ATOM     19  C   UNL     1       3.079   3.813  17.375  0.00  0.00    +0.000 A 
ATOM     20  F   UNL     1       3.170   2.499  17.138  0.00  0.00    +0.000 F 
ATOM     21  C   UNL     1       4.187   4.627  17.158  0.00  0.00    +0.000 A 
ATOM     22  C   UNL     1       4.102   5.997  17.420  0.00  0.00    +0.000 A 
ENDBRANCH  15  16
ENDBRANCH   3  14
TORSDOF 2
ENDMDL
