MODEL 1
REMARK VINA RESULT:      -8.3      0.000      0.000
REMARK  Name = 
REMARK  13 active torsions:
REMARK  status: ('A' for Active; 'I' for Inactive)
REMARK    1  A    between atoms: C_2  and  C_3
REMARK    2  A    between atoms: C_3  and  C_4
REMARK    3  A    between atoms: C_7  and  O_8
REMARK    4  A    between atoms: O_8  and  C_9
REMARK    5  A    between atoms: C_9  and  C_10
REMARK    6  A    between atoms: C_10  and  C_11
REMARK    7  A    between atoms: C_12  and  C_13
REMARK    8  A    between atoms: C_15  and  C_16
REMARK    9  A    between atoms: C_16  and  C_17
REMARK   10  A    between atoms: C_20  and  C_21
REMARK   11  A    between atoms: C_21  and  N_22
REMARK   12  A    between atoms: C_25  and  N_26
REMARK   13  A    between atoms: C_29  and  O_30
REMARK                            x       y       z     vdW  Elec       q    Type
REMARK                         _______ _______ _______ _____ _____    ______ ____
ROOT
ATOM      1  C   UNL     1       4.705   4.997  16.326  0.00  0.00    +0.000 A 
ATOM      2  C   UNL     1       3.851   4.001  16.836  0.00  0.00    +0.000 A 
ATOM      3  C   UNL     1       2.780   4.314  17.695  0.00  0.00    +0.000 A 
ATOM      4  C   UNL     1       2.613   5.635  18.136  0.00  0.00    +0.000 A 
ATOM      5  C   UNL     1       3.469   6.657  17.699  0.00  0.00    +0.000 A 
ATOM      6  C   UNL     1       4.523   6.316  16.829  0.00  0.00    +0.000 A 
ENDROOT
BRANCH   1  11
ATOM      7  C   UNL     1       5.479   3.696  12.842  0.00  0.00    +0.000 A 
ATOM      8  C   UNL     1       6.843   3.902  12.714  0.00  0.00    +0.000 A 
ATOM      9  C   UNL     1       7.552   4.491  13.759  0.00  0.00    +0.000 A 
ATOM     10  C   UNL     1       6.938   4.872  14.973  0.00  0.00    +0.000 A 
ATOM     11  C   UNL     1       5.534   4.717  15.111  0.00  0.00    +0.000 A 
ATOM     12  C   UNL     1       4.851   4.107  14.024  0.00  0.00    +0.000 A 
BRANCH   7  13
ATOM     13  C   UNL     1       4.704   2.978  11.766  0.00  0.00    +0.000 C 
BRANCH  13  15
ATOM     14  C   UNL     1       3.083   3.578   9.934  0.00  0.00    +0.000 C 
ATOM     15  C   UNL     1       3.882   3.936  10.949  0.00  0.00    +0.000 C 
ENDBRANCH  13  15
ENDBRANCH   7  13
BRANCH  10  16
ATOM     16  O   UNL     1       7.679   5.384  16.032  0.00  0.00    +0.000 OA
BRANCH  16  17
ATOM     17  C   UNL     1       7.629   4.593  17.232  0.00  0.00    +0.000 C 
BRANCH  17  18
ATOM     18  C   UNL     1       7.818   5.404  18.508  0.00  0.00    +0.000 C 
ATOM     19  C   UNL     1       6.609   5.359  19.425  0.00  0.00    +0.000 C 
ENDBRANCH  17  18
ENDBRANCH  16  17
ENDBRANCH  10  16
ENDBRANCH   1  11
BRANCH   6  20
ATOM     20  O   UNL     1       5.357   7.318  16.378  0.00  0.00    +0.000 OA
ATOM     21  H   UNL     1       5.721   7.771  17.159  0.00  0.00    +0.000 HD
ENDBRANCH   6  20
BRANCH   3  22
ATOM     22  C   UNL     1       1.708   3.288  17.987  0.00  0.00    +0.000 C 
BRANCH  22  23
ATOM     23  C   UNL     1       1.035   3.418  19.318  0.00  0.00    +0.000 C 
ATOM     24  C   UNL     1       1.492   2.832  20.434  0.00  0.00    +0.000 C 
ENDBRANCH  22  23
ENDBRANCH   3  22
BRANCH   5  25
ATOM     25  C   UNL     1       3.125   8.098  18.033  0.00  0.00    +0.000 C 
BRANCH  25  26
ATOM     26  N   UNL     1       1.764   8.310  18.590  0.00  0.00    +0.000 NA
ATOM     27  C   UNL     1       1.179   9.529  17.995  0.00  0.00    +0.000 C 
ATOM     28  C   UNL     1      -0.048  10.094  18.712  0.00  0.00    +0.000 C 
ATOM     29  C   UNL     1       0.239  10.264  20.202  0.00  0.00    +0.000 C 
ATOM     30  C   UNL     1       0.623   8.907  20.775  0.00  0.00    +0.000 C 
ATOM     31  C   UNL     1       1.866   8.370  20.061  0.00  0.00    +0.000 C 
BRANCH  29  32
ATOM     32  N   UNL     1      -0.922  10.811  20.905  0.00  0.00    +0.000 NA
ATOM     33  H   UNL     1      -1.227  10.156  21.626  0.00  0.00    +0.000 HD
ATOM     34  H   UNL     1      -1.704  10.897  20.257  0.00  0.00    +0.000 HD
ENDBRANCH  29  32
ENDBRANCH  25  26
ENDBRANCH   5  25
TORSDOF 12
ENDMDL
MODEL 2
REMARK VINA RESULT:      -7.9      1.485      2.205
REMARK  Name = 
REMARK  13 active torsions:
REMARK  status: ('A' for Active; 'I' for Inactive)
REMARK    1  A    between atoms: C_2  and  C_3
REMARK    2  A    between atoms: C_3  and  C_4
REMARK    3  A    between atoms: C_7  and  O_8
REMARK    4  A    between atoms: O_8  and  C_9
REMARK    5  A    between atoms: C_9  and  C_10
REMARK    6  A    between atoms: C_10  and  C_11
REMARK    7  A    between atoms: C_12  and  C_13
REMARK    8  A    between atoms: C_15  and  C_16
REMARK    9  A    between atoms: C_16  and  C_17
REMARK   10  A    between atoms: C_20  and  C_21
REMARK   11  A    between atoms: C_21  and  N_22
REMARK   12  A    between atoms: C_25  and  N_26
REMARK   13  A    between atoms: C_29  and  O_30
REMARK                            x       y       z     vdW  Elec       q    Type
REMARK                         _______ _______ _______ _____ _____    ______ ____
ROOT
ATOM      1  C   UNL     1       4.112   5.352  17.739  0.00  0.00    +0.000 A 
ATOM      2  C   UNL     1       3.442   4.264  18.330  0.00  0.00    +0.000 A 
ATOM      3  C   UNL     1       2.173   4.409  18.923  0.00  0.00    +0.000 A 
ATOM      4  C   UNL     1       1.599   5.685  19.018  0.00  0.00    +0.000 A 
ATOM      5  C   UNL     1       2.248   6.811  18.493  0.00  0.00    +0.000 A 
ATOM      6  C   UNL     1       3.511   6.633  17.893  0.00  0.00    +0.000 A 
ENDROOT
BRANCH   1  11
ATOM      7  C   UNL     1       5.704   4.336  14.444  0.00  0.00    +0.000 A 
ATOM      8  C   UNL     1       7.063   4.396  14.708  0.00  0.00    +0.000 A 
ATOM      9  C   UNL     1       7.503   4.787  15.971  0.00  0.00    +0.000 A 
ATOM     10  C   UNL     1       6.612   5.110  17.019  0.00  0.00    +0.000 A 
ATOM     11  C   UNL     1       5.217   5.105  16.760  0.00  0.00    +0.000 A 
ATOM     12  C   UNL     1       4.812   4.694  15.461  0.00  0.00    +0.000 A 
BRANCH   7  13
ATOM     13  C   UNL     1       5.199   3.828  13.118  0.00  0.00    +0.000 C 
BRANCH  13  15
ATOM     14  C   UNL     1       6.263   2.192  11.526  0.00  0.00    +0.000 C 
ATOM     15  C   UNL     1       6.322   3.309  12.263  0.00  0.00    +0.000 C 
ENDBRANCH  13  15
ENDBRANCH   7  13
BRANCH  10  16
ATOM     16  O   UNL     1       7.072   5.421  18.293  0.00  0.00    +0.000 OA
BRANCH  16  17
ATOM     17  C   UNL     1       7.999   6.520  18.341  0.00  0.00    +0.000 C 
BRANCH  17  18
ATOM     18  C   UNL     1       7.504   7.770  17.624  0.00  0.00    +0.000 C 
ATOM     19  C   UNL     1       8.265   9.022  18.020  0.00  0.00    +0.000 C 
ENDBRANCH  17  18
ENDBRANCH  16  17
ENDBRANCH  10  16
ENDBRANCH   1  11
BRANCH   6  20
ATOM     20  O   UNL     1       4.147   7.732  17.356  0.00  0.00    +0.000 OA
ATOM     21  H   UNL     1       3.518   8.174  16.759  0.00  0.00    +0.000 HD
ENDBRANCH   6  20
BRANCH   3  22
ATOM     22  C   UNL     1       1.350   3.190  19.277  0.00  0.00    +0.000 C 
BRANCH  22  23
ATOM     23  C   UNL     1       1.079   2.998  20.737  0.00  0.00    +0.000 C 
ATOM     24  C   UNL     1       2.047   2.897  21.658  0.00  0.00    +0.000 C 
ENDBRANCH  22  23
ENDBRANCH   3  22
BRANCH   5  25
ATOM     25  C   UNL     1       1.499   8.131  18.432  0.00  0.00    +0.000 C 
BRANCH  25  26
ATOM     26  N   UNL     1       1.608   8.976  19.650  0.00  0.00    +0.000 NA
ATOM     27  C   UNL     1       1.416   8.131  20.847  0.00  0.00    +0.000 C 
ATOM     28  C   UNL     1       1.135   8.880  22.149  0.00  0.00    +0.000 C 
ATOM     29  C   UNL     1      -0.012   9.868  21.957  0.00  0.00    +0.000 C 
ATOM     30  C   UNL     1       0.371  10.838  20.847  0.00  0.00    +0.000 C 
ATOM     31  C   UNL     1       0.625  10.072  19.547  0.00  0.00    +0.000 C 
BRANCH  29  32
ATOM     32  N   UNL     1      -0.302  10.591  23.195  0.00  0.00    +0.000 NA
ATOM     33  H   UNL     1      -0.143   9.979  23.996  0.00  0.00    +0.000 HD
ATOM     34  H   UNL     1      -1.291  10.837  23.224  0.00  0.00    +0.000 HD
ENDBRANCH  29  32
ENDBRANCH  25  26
ENDBRANCH   5  25
TORSDOF 12
ENDMDL
MODEL 3
REMARK VINA RESULT:      -7.8      3.212      5.962
REMARK  Name = 
REMARK  13 active torsions:
REMARK  status: ('A' for Active; 'I' for Inactive)
REMARK    1  A    between atoms: C_2  and  C_3
REMARK    2  A    between atoms: C_3  and  C_4
REMARK    3  A    between atoms: C_7  and  O_8
REMARK    4  A    between atoms: O_8  and  C_9
REMARK    5  A    between atoms: C_9  and  C_10
REMARK    6  A    between atoms: C_10  and  C_11
REMARK    7  A    between atoms: C_12  and  C_13
REMARK    8  A    between atoms: C_15  and  C_16
REMARK    9  A    between atoms: C_16  and  C_17
REMARK   10  A    between atoms: C_20  and  C_21
REMARK   11  A    between atoms: C_21  and  N_22
REMARK   12  A    between atoms: C_25  and  N_26
REMARK   13  A    between atoms: C_29  and  O_30
REMARK                            x       y       z     vdW  Elec       q    Type
REMARK                         _______ _______ _______ _____ _____    ______ ____
ROOT
ATOM      1  C   UNL     1       2.128   7.725  19.319  0.00  0.00    +0.000 A 
ATOM      2  C   UNL     1       1.996   7.915  20.708  0.00  0.00    +0.000 A 
ATOM      3  C   UNL     1       1.213   8.956  21.242  0.00  0.00    +0.000 A 
ATOM      4  C   UNL     1       0.627   9.891  20.376  0.00  0.00    +0.000 A 
ATOM      5  C   UNL     1       0.771   9.778  18.986  0.00  0.00    +0.000 A 
ATOM      6  C   UNL     1       1.550   8.718  18.480  0.00  0.00    +0.000 A 
ENDROOT
BRANCH   1  11
ATOM      7  C   UNL     1       2.144   3.954  18.868  0.00  0.00    +0.000 A 
ATOM      8  C   UNL     1       3.270   3.725  18.093  0.00  0.00    +0.000 A 
ATOM      9  C   UNL     1       4.052   4.800  17.678  0.00  0.00    +0.000 A 
ATOM     10  C   UNL     1       3.759   6.135  18.037  0.00  0.00    +0.000 A 
ATOM     11  C   UNL     1       2.584   6.402  18.788  0.00  0.00    +0.000 A 
ATOM     12  C   UNL     1       1.819   5.275  19.195  0.00  0.00    +0.000 A 
BRANCH   7  13
ATOM     13  C   UNL     1       1.333   2.803  19.407  0.00  0.00    +0.000 C 
BRANCH  13  15
ATOM     14  C   UNL     1       2.335   2.744  21.717  0.00  0.00    +0.000 C 
ATOM     15  C   UNL     1       1.269   2.830  20.908  0.00  0.00    +0.000 C 
ENDBRANCH  13  15
ENDBRANCH   7  13
BRANCH  10  16
ATOM     16  O   UNL     1       4.597   7.185  17.679  0.00  0.00    +0.000 OA
BRANCH  16  17
ATOM     17  C   UNL     1       5.677   6.813  16.805  0.00  0.00    +0.000 C 
BRANCH  17  18
ATOM     18  C   UNL     1       7.041   6.810  17.486  0.00  0.00    +0.000 C 
ATOM     19  C   UNL     1       7.651   8.195  17.599  0.00  0.00    +0.000 C 
ENDBRANCH  17  18
ENDBRANCH  16  17
ENDBRANCH  10  16
ENDBRANCH   1  11
BRANCH   6  20
ATOM     20  O   UNL     1       1.680   8.588  17.113  0.00  0.00    +0.000 OA
ATOM     21  H   UNL     1       2.622   8.438  16.920  0.00  0.00    +0.000 HD
ENDBRANCH   6  20
BRANCH   3  22
ATOM     22  C   UNL     1       0.844   8.962  22.709  0.00  0.00    +0.000 C 
BRANCH  22  23
ATOM     23  C   UNL     1      -0.573   9.336  23.015  0.00  0.00    +0.000 C 
ATOM     24  C   UNL     1      -0.972  10.598  23.224  0.00  0.00    +0.000 C 
ENDBRANCH  22  23
ENDBRANCH   3  22
BRANCH   5  25
ATOM     25  C   UNL     1      -0.049  10.685  18.085  0.00  0.00    +0.000 C 
BRANCH  25  26
ATOM     26  N   UNL     1      -1.517  10.455  18.126  0.00  0.00    +0.000 NA
ATOM     27  C   UNL     1      -1.982  10.034  16.788  0.00  0.00    +0.000 C 
ATOM     28  C   UNL     1      -3.491  10.108  16.556  0.00  0.00    +0.000 C 
ATOM     29  C   UNL     1      -4.021  11.487  16.939  0.00  0.00    +0.000 C 
ATOM     30  C   UNL     1      -3.684  11.742  18.402  0.00  0.00    +0.000 C 
ATOM     31  C   UNL     1      -2.169  11.688  18.609  0.00  0.00    +0.000 C 
BRANCH  29  32
ATOM     32  N   UNL     1      -5.464  11.581  16.718  0.00  0.00    +0.000 NA
ATOM     33  H   UNL     1      -5.880  10.651  16.769  0.00  0.00    +0.000 HD
ATOM     34  H   UNL     1      -5.643  11.915  15.771  0.00  0.00    +0.000 HD
ENDBRANCH  29  32
ENDBRANCH  25  26
ENDBRANCH   5  25
TORSDOF 12
ENDMDL
MODEL 4
REMARK VINA RESULT:      -7.6      3.056      5.700
REMARK  Name = 
REMARK  13 active torsions:
REMARK  status: ('A' for Active; 'I' for Inactive)
REMARK    1  A    between atoms: C_2  and  C_3
REMARK    2  A    between atoms: C_3  and  C_4
REMARK    3  A    between atoms: C_7  and  O_8
REMARK    4  A    between atoms: O_8  and  C_9
REMARK    5  A    between atoms: C_9  and  C_10
REMARK    6  A    between atoms: C_10  and  C_11
REMARK    7  A    between atoms: C_12  and  C_13
REMARK    8  A    between atoms: C_15  and  C_16
REMARK    9  A    between atoms: C_16  and  C_17
REMARK   10  A    between atoms: C_20  and  C_21
REMARK   11  A    between atoms: C_21  and  N_22
REMARK   12  A    between atoms: C_25  and  N_26
REMARK   13  A    between atoms: C_29  and  O_30
REMARK                            x       y       z     vdW  Elec       q    Type
REMARK                         _______ _______ _______ _____ _____    ______ ____
ROOT
ATOM      1  C   UNL     1       2.225   7.586  19.162  0.00  0.00    +0.000 A 
ATOM      2  C   UNL     1       1.705   7.515  20.469  0.00  0.00    +0.000 A 
ATOM      3  C   UNL     1       0.944   8.563  21.020  0.00  0.00    +0.000 A 
ATOM      4  C   UNL     1       0.779   9.751  20.293  0.00  0.00    +0.000 A 
ATOM      5  C   UNL     1       1.322   9.894  19.008  0.00  0.00    +0.000 A 
ATOM      6  C   UNL     1       2.067   8.823  18.477  0.00  0.00    +0.000 A 
ENDROOT
BRANCH   1  11
ATOM      7  C   UNL     1       2.086   3.923  18.165  0.00  0.00    +0.000 A 
ATOM      8  C   UNL     1       3.226   3.753  17.395  0.00  0.00    +0.000 A 
ATOM      9  C   UNL     1       4.070   4.838  17.164  0.00  0.00    +0.000 A 
ATOM     10  C   UNL     1       3.825   6.119  17.706  0.00  0.00    +0.000 A 
ATOM     11  C   UNL     1       2.639   6.332  18.456  0.00  0.00    +0.000 A 
ATOM     12  C   UNL     1       1.810   5.198  18.672  0.00  0.00    +0.000 A 
BRANCH   7  13
ATOM     13  C   UNL     1       1.206   2.749  18.508  0.00  0.00    +0.000 C 
BRANCH  13  15
ATOM     14  C   UNL     1       1.520   2.583  21.001  0.00  0.00    +0.000 C 
ATOM     15  C   UNL     1       0.739   2.809  19.935  0.00  0.00    +0.000 C 
ENDBRANCH  13  15
ENDBRANCH   7  13
BRANCH  10  16
ATOM     16  O   UNL     1       4.721   7.166  17.528  0.00  0.00    +0.000 OA
BRANCH  16  17
ATOM     17  C   UNL     1       5.917   6.813  16.810  0.00  0.00    +0.000 C 
BRANCH  17  18
ATOM     18  C   UNL     1       7.182   6.888  17.656  0.00  0.00    +0.000 C 
ATOM     19  C   UNL     1       7.819   8.266  17.648  0.00  0.00    +0.000 C 
ENDBRANCH  17  18
ENDBRANCH  16  17
ENDBRANCH  10  16
ENDBRANCH   1  11
BRANCH   6  20
ATOM     20  O   UNL     1       2.588   8.947  17.206  0.00  0.00    +0.000 OA
ATOM     21  H   UNL     1       2.987   8.092  16.966  0.00  0.00    +0.000 HD
ENDBRANCH   6  20
BRANCH   3  22
ATOM     22  C   UNL     1       0.151   8.348  22.290  0.00  0.00    +0.000 C 
BRANCH  22  23
ATOM     23  C   UNL     1       0.059   9.532  23.201  0.00  0.00    +0.000 C 
ATOM     24  C   UNL     1      -0.987  10.370  23.216  0.00  0.00    +0.000 C 
ENDBRANCH  22  23
ENDBRANCH   3  22
BRANCH   5  25
ATOM     25  C   UNL     1       0.943  11.110  18.180  0.00  0.00    +0.000 C 
BRANCH  25  26
ATOM     26  N   UNL     1       0.857  12.386  18.935  0.00  0.00    +0.000 NA
ATOM     27  C   UNL     1      -0.185  13.241  18.328  0.00  0.00    +0.000 C 
ATOM     28  C   UNL     1      -0.159  14.713  18.740  0.00  0.00    +0.000 C 
ATOM     29  C   UNL     1       1.240  15.293  18.550  0.00  0.00    +0.000 C 
ATOM     30  C   UNL     1       2.216  14.479  19.388  0.00  0.00    +0.000 C 
ATOM     31  C   UNL     1       2.192  13.014  18.945  0.00  0.00    +0.000 C 
BRANCH  29  32
ATOM     32  N   UNL     1       1.284  16.704  18.932  0.00  0.00    +0.000 NA
ATOM     33  H   UNL     1       1.962  17.197  18.351  0.00  0.00    +0.000 HD
ATOM     34  H   UNL     1       1.624  16.788  19.890  0.00  0.00    +0.000 HD
ENDBRANCH  29  32
ENDBRANCH  25  26
ENDBRANCH   5  25
TORSDOF 12
ENDMDL
MODEL 5
REMARK VINA RESULT:      -7.5      1.651      2.620
REMARK  Name = 
REMARK  13 active torsions:
REMARK  status: ('A' for Active; 'I' for Inactive)
REMARK    1  A    between atoms: C_2  and  C_3
REMARK    2  A    between atoms: C_3  and  C_4
REMARK    3  A    between atoms: C_7  and  O_8
REMARK    4  A    between atoms: O_8  and  C_9
REMARK    5  A    between atoms: C_9  and  C_10
REMARK    6  A    between atoms: C_10  and  C_11
REMARK    7  A    between atoms: C_12  and  C_13
REMARK    8  A    between atoms: C_15  and  C_16
REMARK    9  A    between atoms: C_16  and  C_17
REMARK   10  A    between atoms: C_20  and  C_21
REMARK   11  A    between atoms: C_21  and  N_22
REMARK   12  A    between atoms: C_25  and  N_26
REMARK   13  A    between atoms: C_29  and  O_30
REMARK                            x       y       z     vdW  Elec       q    Type
REMARK                         _______ _______ _______ _____ _____    ______ ____
ROOT
ATOM      1  C   UNL     1       4.303   5.524  18.612  0.00  0.00    +0.000 A 
ATOM      2  C   UNL     1       3.871   4.505  19.482  0.00  0.00    +0.000 A 
ATOM      3  C   UNL     1       2.684   4.625  20.231  0.00  0.00    +0.000 A 
ATOM      4  C   UNL     1       1.961   5.826  20.188  0.00  0.00    +0.000 A 
ATOM      5  C   UNL     1       2.378   6.893  19.378  0.00  0.00    +0.000 A 
ATOM      6  C   UNL     1       3.562   6.738  18.630  0.00  0.00    +0.000 A 
ENDROOT
BRANCH   1  11
ATOM      7  C   UNL     1       5.516   4.304  15.226  0.00  0.00    +0.000 A 
ATOM      8  C   UNL     1       6.896   4.370  15.332  0.00  0.00    +0.000 A 
ATOM      9  C   UNL     1       7.475   4.833  16.512  0.00  0.00    +0.000 A 
ATOM     10  C   UNL     1       6.707   5.222  17.632  0.00  0.00    +0.000 A 
ATOM     11  C   UNL     1       5.292   5.211  17.532  0.00  0.00    +0.000 A 
ATOM     12  C   UNL     1       4.744   4.727  16.313  0.00  0.00    +0.000 A 
BRANCH   7  13
ATOM     13  C   UNL     1       4.866   3.722  13.997  0.00  0.00    +0.000 C 
BRANCH  13  15
ATOM     14  C   UNL     1       6.101   2.838  11.988  0.00  0.00    +0.000 C 
ATOM     15  C   UNL     1       5.752   3.853  12.790  0.00  0.00    +0.000 C 
ENDBRANCH  13  15
ENDBRANCH   7  13
BRANCH  10  16
ATOM     16  O   UNL     1       7.307   5.605  18.826  0.00  0.00    +0.000 OA
BRANCH  16  17
ATOM     17  C   UNL     1       8.201   6.727  18.712  0.00  0.00    +0.000 C 
BRANCH  17  18
ATOM     18  C   UNL     1       7.693   7.821  17.782  0.00  0.00    +0.000 C 
ATOM     19  C   UNL     1       8.307   9.179  18.072  0.00  0.00    +0.000 C 
ENDBRANCH  17  18
ENDBRANCH  16  17
ENDBRANCH  10  16
ENDBRANCH   1  11
BRANCH   6  20
ATOM     20  O   UNL     1       3.967   7.774  17.815  0.00  0.00    +0.000 OA
ATOM     21  H   UNL     1       4.639   7.423  17.205  0.00  0.00    +0.000 HD
ENDBRANCH   6  20
BRANCH   3  22
ATOM     22  C   UNL     1       2.087   3.417  20.918  0.00  0.00    +0.000 C 
BRANCH  22  23
ATOM     23  C   UNL     1       0.920   2.790  20.220  0.00  0.00    +0.000 C 
ATOM     24  C   UNL     1       0.869   2.602  18.894  0.00  0.00    +0.000 C 
ENDBRANCH  22  23
ENDBRANCH   3  22
BRANCH   5  25
ATOM     25  C   UNL     1       1.457   8.087  19.203  0.00  0.00    +0.000 C 
BRANCH  25  26
ATOM     26  N   UNL     1       1.479   9.071  20.317  0.00  0.00    +0.000 NA
ATOM     27  C   UNL     1       0.768   8.503  21.482  0.00  0.00    +0.000 C 
ATOM     28  C   UNL     1       0.382   9.501  22.574  0.00  0.00    +0.000 C 
ATOM     29  C   UNL     1      -0.365  10.687  21.969  0.00  0.00    +0.000 C 
ATOM     30  C   UNL     1       0.535  11.343  20.931  0.00  0.00    +0.000 C 
ATOM     31  C   UNL     1       0.891  10.335  19.835  0.00  0.00    +0.000 C 
BRANCH  29  32
ATOM     32  N   UNL     1      -0.751  11.651  23.000  0.00  0.00    +0.000 NA
ATOM     33  H   UNL     1       0.036  11.818  23.626  0.00  0.00    +0.000 HD
ATOM     34  H   UNL     1      -1.490  11.253  23.580  0.00  0.00    +0.000 HD
ENDBRANCH  29  32
ENDBRANCH  25  26
ENDBRANCH   5  25
TORSDOF 12
ENDMDL
MODEL 6
REMARK VINA RESULT:      -7.5      3.255      6.000
REMARK  Name = 
REMARK  13 active torsions:
REMARK  status: ('A' for Active; 'I' for Inactive)
REMARK    1  A    between atoms: C_2  and  C_3
REMARK    2  A    between atoms: C_3  and  C_4
REMARK    3  A    between atoms: C_7  and  O_8
REMARK    4  A    between atoms: O_8  and  C_9
REMARK    5  A    between atoms: C_9  and  C_10
REMARK    6  A    between atoms: C_10  and  C_11
REMARK    7  A    between atoms: C_12  and  C_13
REMARK    8  A    between atoms: C_15  and  C_16
REMARK    9  A    between atoms: C_16  and  C_17
REMARK   10  A    between atoms: C_20  and  C_21
REMARK   11  A    between atoms: C_21  and  N_22
REMARK   12  A    between atoms: C_25  and  N_26
REMARK   13  A    between atoms: C_29  and  O_30
REMARK                            x       y       z     vdW  Elec       q    Type
REMARK                         _______ _______ _______ _____ _____    ______ ____
ROOT
ATOM      1  C   UNL     1       2.145   7.854  19.249  0.00  0.00    +0.000 A 
ATOM      2  C   UNL     1       1.755   7.848  20.602  0.00  0.00    +0.000 A 
ATOM      3  C   UNL     1       0.732   8.690  21.081  0.00  0.00    +0.000 A 
ATOM      4  C   UNL     1       0.151   9.628  20.216  0.00  0.00    +0.000 A 
ATOM      5  C   UNL     1       0.541   9.712  18.871  0.00  0.00    +0.000 A 
ATOM      6  C   UNL     1       1.557   8.847  18.418  0.00  0.00    +0.000 A 
ENDROOT
BRANCH   1  11
ATOM      7  C   UNL     1       4.918   6.049  17.383  0.00  0.00    +0.000 A 
ATOM      8  C   UNL     1       4.494   4.730  17.367  0.00  0.00    +0.000 A 
ATOM      9  C   UNL     1       3.292   4.386  17.982  0.00  0.00    +0.000 A 
ATOM     10  C   UNL     1       2.461   5.339  18.612  0.00  0.00    +0.000 A 
ATOM     11  C   UNL     1       2.896   6.688  18.686  0.00  0.00    +0.000 A 
ATOM     12  C   UNL     1       4.124   6.996  18.041  0.00  0.00    +0.000 A 
BRANCH   7  13
ATOM     13  C   UNL     1       6.166   6.466  16.647  0.00  0.00    +0.000 C 
BRANCH  13  15
ATOM     14  C   UNL     1       7.698   6.188  18.626  0.00  0.00    +0.000 C 
ATOM     15  C   UNL     1       7.242   6.914  17.597  0.00  0.00    +0.000 C 
ENDBRANCH  13  15
ENDBRANCH   7  13
BRANCH  10  16
ATOM     16  O   UNL     1       1.229   4.986  19.150  0.00  0.00    +0.000 OA
BRANCH  16  17
ATOM     17  C   UNL     1       1.271   4.598  20.534  0.00  0.00    +0.000 C 
BRANCH  17  18
ATOM     18  C   UNL     1       1.259   3.090  20.748  0.00  0.00    +0.000 C 
ATOM     19  C   UNL     1       2.498   2.582  21.463  0.00  0.00    +0.000 C 
ENDBRANCH  17  18
ENDBRANCH  16  17
ENDBRANCH  10  16
ENDBRANCH   1  11
BRANCH   6  20
ATOM     20  O   UNL     1       1.932   8.909  17.092  0.00  0.00    +0.000 OA
ATOM     21  H   UNL     1       2.155   8.005  16.807  0.00  0.00    +0.000 HD
ENDBRANCH   6  20
BRANCH   3  22
ATOM     22  C   UNL     1       0.129   8.459  22.449  0.00  0.00    +0.000 C 
BRANCH  22  23
ATOM     23  C   UNL     1      -0.015   9.679  23.304  0.00  0.00    +0.000 C 
ATOM     24  C   UNL     1      -1.065  10.509  23.230  0.00  0.00    +0.000 C 
ENDBRANCH  22  23
ENDBRANCH   3  22
BRANCH   5  25
ATOM     25  C   UNL     1      -0.257  10.593  17.927  0.00  0.00    +0.000 C 
BRANCH  25  26
ATOM     26  N   UNL     1      -1.729  10.389  17.965  0.00  0.00    +0.000 NA
ATOM     27  C   UNL     1      -2.217  10.109  16.599  0.00  0.00    +0.000 C 
ATOM     28  C   UNL     1      -3.727  10.234  16.395  0.00  0.00    +0.000 C 
ATOM     29  C   UNL     1      -4.224  11.580  16.917  0.00  0.00    +0.000 C 
ATOM     30  C   UNL     1      -3.866  11.685  18.393  0.00  0.00    +0.000 C 
ATOM     31  C   UNL     1      -2.350  11.582  18.573  0.00  0.00    +0.000 C 
BRANCH  29  32
ATOM     32  N   UNL     1      -5.667  11.723  16.725  0.00  0.00    +0.000 NA
ATOM     33  H   UNL     1      -6.118  10.813  16.823  0.00  0.00    +0.000 HD
ATOM     34  H   UNL     1      -5.856  12.027  15.770  0.00  0.00    +0.000 HD
ENDBRANCH  29  32
ENDBRANCH  25  26
ENDBRANCH   5  25
TORSDOF 12
ENDMDL
MODEL 7
REMARK VINA RESULT:      -7.4      1.546      2.200
REMARK  Name = 
REMARK  13 active torsions:
REMARK  status: ('A' for Active; 'I' for Inactive)
REMARK    1  A    between atoms: C_2  and  C_3
REMARK    2  A    between atoms: C_3  and  C_4
REMARK    3  A    between atoms: C_7  and  O_8
REMARK    4  A    between atoms: O_8  and  C_9
REMARK    5  A    between atoms: C_9  and  C_10
REMARK    6  A    between atoms: C_10  and  C_11
REMARK    7  A    between atoms: C_12  and  C_13
REMARK    8  A    between atoms: C_15  and  C_16
REMARK    9  A    between atoms: C_16  and  C_17
REMARK   10  A    between atoms: C_20  and  C_21
REMARK   11  A    between atoms: C_21  and  N_22
REMARK   12  A    between atoms: C_25  and  N_26
REMARK   13  A    between atoms: C_29  and  O_30
REMARK                            x       y       z     vdW  Elec       q    Type
REMARK                         _______ _______ _______ _____ _____    ______ ____
ROOT
ATOM      1  C   UNL     1       4.130   5.545  17.994  0.00  0.00    +0.000 A 
ATOM      2  C   UNL     1       3.337   4.503  18.512  0.00  0.00    +0.000 A 
ATOM      3  C   UNL     1       2.076   4.749  19.089  0.00  0.00    +0.000 A 
ATOM      4  C   UNL     1       1.635   6.071  19.243  0.00  0.00    +0.000 A 
ATOM      5  C   UNL     1       2.410   7.149  18.792  0.00  0.00    +0.000 A 
ATOM      6  C   UNL     1       3.661   6.871  18.206  0.00  0.00    +0.000 A 
ENDROOT
BRANCH   1  11
ATOM      7  C   UNL     1       5.689   4.383  14.731  0.00  0.00    +0.000 A 
ATOM      8  C   UNL     1       7.049   4.409  14.994  0.00  0.00    +0.000 A 
ATOM      9  C   UNL     1       7.502   4.825  16.245  0.00  0.00    +0.000 A 
ATOM     10  C   UNL     1       6.621   5.205  17.282  0.00  0.00    +0.000 A 
ATOM     11  C   UNL     1       5.226   5.235  17.023  0.00  0.00    +0.000 A 
ATOM     12  C   UNL     1       4.809   4.798  15.737  0.00  0.00    +0.000 A 
BRANCH   7  13
ATOM     13  C   UNL     1       5.168   3.851  13.420  0.00  0.00    +0.000 C 
BRANCH  13  15
ATOM     14  C   UNL     1       6.915   3.872  11.606  0.00  0.00    +0.000 C 
ATOM     15  C   UNL     1       6.269   3.243  12.597  0.00  0.00    +0.000 C 
ENDBRANCH  13  15
ENDBRANCH   7  13
BRANCH  10  16
ATOM     16  O   UNL     1       7.091   5.540  18.547  0.00  0.00    +0.000 OA
BRANCH  16  17
ATOM     17  C   UNL     1       8.062   6.601  18.561  0.00  0.00    +0.000 C 
BRANCH  17  18
ATOM     18  C   UNL     1       7.678   7.794  17.693  0.00  0.00    +0.000 C 
ATOM     19  C   UNL     1       8.331   9.089  18.142  0.00  0.00    +0.000 C 
ENDBRANCH  17  18
ENDBRANCH  16  17
ENDBRANCH  10  16
ENDBRANCH   1  11
BRANCH   6  20
ATOM     20  O   UNL     1       4.420   7.925  17.741  0.00  0.00    +0.000 OA
ATOM     21  H   UNL     1       4.205   8.705  18.284  0.00  0.00    +0.000 HD
ENDBRANCH   6  20
BRANCH   3  22
ATOM     22  C   UNL     1       1.123   3.606  19.361  0.00  0.00    +0.000 C 
BRANCH  22  23
ATOM     23  C   UNL     1       1.353   2.866  20.642  0.00  0.00    +0.000 C 
ATOM     24  C   UNL     1       2.088   3.354  21.651  0.00  0.00    +0.000 C 
ENDBRANCH  22  23
ENDBRANCH   3  22
BRANCH   5  25
ATOM     25  C   UNL     1       1.803   8.542  18.789  0.00  0.00    +0.000 C 
BRANCH  25  26
ATOM     26  N   UNL     1       0.765   8.780  19.825  0.00  0.00    +0.000 NA
ATOM     27  C   UNL     1       0.100  10.073  19.560  0.00  0.00    +0.000 C 
ATOM     28  C   UNL     1      -0.726  10.643  20.713  0.00  0.00    +0.000 C 
ATOM     29  C   UNL     1       0.103  10.678  21.994  0.00  0.00    +0.000 C 
ATOM     30  C   UNL     1       0.564   9.261  22.307  0.00  0.00    +0.000 C 
ATOM     31  C   UNL     1       1.408   8.717  21.153  0.00  0.00    +0.000 C 
BRANCH  29  32
ATOM     32  N   UNL     1      -0.668  11.228  23.109  0.00  0.00    +0.000 NA
ATOM     33  H   UNL     1      -0.767  12.237  22.994  0.00  0.00    +0.000 HD
ATOM     34  H   UNL     1      -0.153  11.095  23.979  0.00  0.00    +0.000 HD
ENDBRANCH  29  32
ENDBRANCH  25  26
ENDBRANCH   5  25
TORSDOF 12
ENDMDL
MODEL 8
REMARK VINA RESULT:      -7.3      3.038      5.494
REMARK  Name = 
REMARK  13 active torsions:
REMARK  status: ('A' for Active; 'I' for Inactive)
REMARK    1  A    between atoms: C_2  and  C_3
REMARK    2  A    between atoms: C_3  and  C_4
REMARK    3  A    between atoms: C_7  and  O_8
REMARK    4  A    between atoms: O_8  and  C_9
REMARK    5  A    between atoms: C_9  and  C_10
REMARK    6  A    between atoms: C_10  and  C_11
REMARK    7  A    between atoms: C_12  and  C_13
REMARK    8  A    between atoms: C_15  and  C_16
REMARK    9  A    between atoms: C_16  and  C_17
REMARK   10  A    between atoms: C_20  and  C_21
REMARK   11  A    between atoms: C_21  and  N_22
REMARK   12  A    between atoms: C_25  and  N_26
REMARK   13  A    between atoms: C_29  and  O_30
REMARK                            x       y       z     vdW  Elec       q    Type
REMARK                         _______ _______ _______ _____ _____    ______ ____
ROOT
ATOM      1  C   UNL     1       2.224   7.642  19.087  0.00  0.00    +0.000 A 
ATOM      2  C   UNL     1       1.760   7.586  20.415  0.00  0.00    +0.000 A 
ATOM      3  C   UNL     1       0.947   8.599  20.958  0.00  0.00    +0.000 A 
ATOM      4  C   UNL     1       0.670   9.743  20.195  0.00  0.00    +0.000 A 
ATOM      5  C   UNL     1       1.153   9.873  18.885  0.00  0.00    +0.000 A 
ATOM      6  C   UNL     1       1.952   8.836  18.364  0.00  0.00    +0.000 A 
ENDROOT
BRANCH   1  11
ATOM      7  C   UNL     1       2.216   3.971  18.110  0.00  0.00    +0.000 A 
ATOM      8  C   UNL     1       3.396   3.822  17.399  0.00  0.00    +0.000 A 
ATOM      9  C   UNL     1       4.226   4.923  17.202  0.00  0.00    +0.000 A 
ATOM     10  C   UNL     1       3.926   6.202  17.722  0.00  0.00    +0.000 A 
ATOM     11  C   UNL     1       2.700   6.393  18.411  0.00  0.00    +0.000 A 
ATOM     12  C   UNL     1       1.887   5.242  18.594  0.00  0.00    +0.000 A 
BRANCH   7  13
ATOM     13  C   UNL     1       1.345   2.779  18.417  0.00  0.00    +0.000 C 
BRANCH  13  15
ATOM     14  C   UNL     1       1.532   2.631  20.924  0.00  0.00    +0.000 C 
ATOM     15  C   UNL     1       0.804   2.839  19.818  0.00  0.00    +0.000 C 
ENDBRANCH  13  15
ENDBRANCH   7  13
BRANCH  10  16
ATOM     16  O   UNL     1       4.807   7.268  17.582  0.00  0.00    +0.000 OA
BRANCH  16  17
ATOM     17  C   UNL     1       6.021   6.950  16.879  0.00  0.00    +0.000 C 
BRANCH  17  18
ATOM     18  C   UNL     1       7.285   7.239  17.679  0.00  0.00    +0.000 C 
ATOM     19  C   UNL     1       7.675   6.099  18.604  0.00  0.00    +0.000 C 
ENDBRANCH  17  18
ENDBRANCH  16  17
ENDBRANCH  10  16
ENDBRANCH   1  11
BRANCH   6  20
ATOM     20  O   UNL     1       2.414   8.947  17.069  0.00  0.00    +0.000 OA
ATOM     21  H   UNL     1       1.716   9.375  16.543  0.00  0.00    +0.000 HD
ENDBRANCH   6  20
BRANCH   3  22
ATOM     22  C   UNL     1       0.220   8.379  22.266  0.00  0.00    +0.000 C 
BRANCH  22  23
ATOM     23  C   UNL     1       0.108   9.580  23.152  0.00  0.00    +0.000 C 
ATOM     24  C   UNL     1      -0.973  10.371  23.187  0.00  0.00    +0.000 C 
ENDBRANCH  22  23
ENDBRANCH   3  22
BRANCH   5  25
ATOM     25  C   UNL     1       0.657  11.025  18.029  0.00  0.00    +0.000 C 
BRANCH  25  26
ATOM     26  N   UNL     1       0.832  12.376  18.624  0.00  0.00    +0.000 NA
ATOM     27  C   UNL     1       2.238  12.543  19.047  0.00  0.00    +0.000 C 
ATOM     28  C   UNL     1       2.511  13.710  19.995  0.00  0.00    +0.000 C 
ATOM     29  C   UNL     1       1.558  13.661  21.186  0.00  0.00    +0.000 C 
ATOM     30  C   UNL     1       0.130  13.714  20.660  0.00  0.00    +0.000 C 
ATOM     31  C   UNL     1      -0.131  12.525  19.732  0.00  0.00    +0.000 C 
BRANCH  29  32
ATOM     32  N   UNL     1       1.808  14.767  22.111  0.00  0.00    +0.000 NA
ATOM     33  H   UNL     1       1.219  15.562  21.863  0.00  0.00    +0.000 HD
ATOM     34  H   UNL     1       2.770  15.088  22.006  0.00  0.00    +0.000 HD
ENDBRANCH  29  32
ENDBRANCH  25  26
ENDBRANCH   5  25
TORSDOF 12
ENDMDL
MODEL 9
REMARK VINA RESULT:      -7.3      1.802      2.708
REMARK  Name = 
REMARK  13 active torsions:
REMARK  status: ('A' for Active; 'I' for Inactive)
REMARK    1  A    between atoms: C_2  and  C_3
REMARK    2  A    between atoms: C_3  and  C_4
REMARK    3  A    between atoms: C_7  and  O_8
REMARK    4  A    between atoms: O_8  and  C_9
REMARK    5  A    between atoms: C_9  and  C_10
REMARK    6  A    between atoms: C_10  and  C_11
REMARK    7  A    between atoms: C_12  and  C_13
REMARK    8  A    between atoms: C_15  and  C_16
REMARK    9  A    between atoms: C_16  and  C_17
REMARK   10  A    between atoms: C_20  and  C_21
REMARK   11  A    between atoms: C_21  and  N_22
REMARK   12  A    between atoms: C_25  and  N_26
REMARK   13  A    between atoms: C_29  and  O_30
REMARK                            x       y       z     vdW  Elec       q    Type
REMARK                         _______ _______ _______ _____ _____    ______ ____
ROOT
ATOM      1  C   UNL     1       4.255   5.908  18.503  0.00  0.00    +0.000 A 
ATOM      2  C   UNL     1       3.844   4.981  19.481  0.00  0.00    +0.000 A 
ATOM      3  C   UNL     1       2.636   5.137  20.187  0.00  0.00    +0.000 A 
ATOM      4  C   UNL     1       1.866   6.292  19.988  0.00  0.00    +0.000 A 
ATOM      5  C   UNL     1       2.257   7.272  19.065  0.00  0.00    +0.000 A 
ATOM      6  C   UNL     1       3.464   7.082  18.363  0.00  0.00    +0.000 A 
ENDROOT
BRANCH   1  11
ATOM      7  C   UNL     1       5.581   4.469  15.248  0.00  0.00    +0.000 A 
ATOM      8  C   UNL     1       6.957   4.514  15.410  0.00  0.00    +0.000 A 
ATOM      9  C   UNL     1       7.496   5.033  16.585  0.00  0.00    +0.000 A 
ATOM     10  C   UNL     1       6.690   5.502  17.647  0.00  0.00    +0.000 A 
ATOM     11  C   UNL     1       5.280   5.513  17.487  0.00  0.00    +0.000 A 
ATOM     12  C   UNL     1       4.773   4.969  16.275  0.00  0.00    +0.000 A 
BRANCH   7  13
ATOM     13  C   UNL     1       4.970   3.828  14.028  0.00  0.00    +0.000 C 
BRANCH  13  15
ATOM     14  C   UNL     1       5.982   2.750  11.990  0.00  0.00    +0.000 C 
ATOM     15  C   UNL     1       5.962   3.731  12.902  0.00  0.00    +0.000 C 
ENDBRANCH  13  15
ENDBRANCH   7  13
BRANCH  10  16
ATOM     16  O   UNL     1       7.248   5.943  18.842  0.00  0.00    +0.000 OA
BRANCH  16  17
ATOM     17  C   UNL     1       8.288   6.924  18.688  0.00  0.00    +0.000 C 
BRANCH  17  18
ATOM     18  C   UNL     1       7.867   8.140  17.872  0.00  0.00    +0.000 C 
ATOM     19  C   UNL     1       8.530   9.425  18.335  0.00  0.00    +0.000 C 
ENDBRANCH  17  18
ENDBRANCH  16  17
ENDBRANCH  10  16
ENDBRANCH   1  11
BRANCH   6  20
ATOM     20  O   UNL     1       3.845   8.031  17.438  0.00  0.00    +0.000 OA
ATOM     21  H   UNL     1       3.493   7.757  16.573  0.00  0.00    +0.000 HD
ENDBRANCH   6  20
BRANCH   3  22
ATOM     22  C   UNL     1       2.073   3.993  21.002  0.00  0.00    +0.000 C 
BRANCH  22  23
ATOM     23  C   UNL     1       0.865   3.324  20.425  0.00  0.00    +0.000 C 
ATOM     24  C   UNL     1       0.846   2.764  19.207  0.00  0.00    +0.000 C 
ENDBRANCH  22  23
ENDBRANCH   3  22
BRANCH   5  25
ATOM     25  C   UNL     1       1.291   8.396  18.732  0.00  0.00    +0.000 C 
BRANCH  25  26
ATOM     26  N   UNL     1       1.639   9.719  19.312  0.00  0.00    +0.000 NA
ATOM     27  C   UNL     1       0.623  10.091  20.319  0.00  0.00    +0.000 C 
ATOM     28  C   UNL     1       0.619  11.559  20.746  0.00  0.00    +0.000 C 
ATOM     29  C   UNL     1       0.570  12.469  19.521  0.00  0.00    +0.000 C 
ATOM     30  C   UNL     1       1.780  12.163  18.648  0.00  0.00    +0.000 C 
ATOM     31  C   UNL     1       1.753  10.696  18.212  0.00  0.00    +0.000 C 
BRANCH  29  32
ATOM     32  N   UNL     1       0.558  13.879  19.909  0.00  0.00    +0.000 NA
ATOM     33  H   UNL     1       1.291  14.380  19.406  0.00  0.00    +0.000 HD
ATOM     34  H   UNL     1       0.790  13.963  20.898  0.00  0.00    +0.000 HD
ENDBRANCH  29  32
ENDBRANCH  25  26
ENDBRANCH   5  25
TORSDOF 12
ENDMDL
