MODEL 1
REMARK VINA RESULT:      -8.0      0.000      0.000
REMARK  Name = 
REMARK  12 active torsions:
REMARK  status: ('A' for Active; 'I' for Inactive)
REMARK    1  A    between atoms: C_1  and  C_2
REMARK    2  A    between atoms: C_2  and  C_3
REMARK    3  A    between atoms: C_2  and  C_4
REMARK    4  A    between atoms: C_4  and  N_5
REMARK    5  A    between atoms: C_4  and  C_24
REMARK    6  A    between atoms: C_6  and  C_8
REMARK    7  A    between atoms: C_17  and  C_19
REMARK    8  A    between atoms: C_24  and  C_26
REMARK    9  A    between atoms: C_29  and  C_30
REMARK   10  A    between atoms: C_30  and  C_31
REMARK   11  A    between atoms: C_30  and  C_32
REMARK   12  A    between atoms: C_30  and  C_33
REMARK                            x       y       z     vdW  Elec       q    Type
REMARK                         _______ _______ _______ _____ _____    ______ ____
ROOT
ATOM      1  N   UNL     1       2.548   7.499  19.351  0.00  0.00    +0.000 N 
ATOM      2  C   UNL     1       2.587   6.444  18.444  0.00  0.00    +0.000 C 
ATOM      3  O   UNL     1       1.620   6.160  17.743  0.00  0.00    +0.000 OA
ATOM      4  H   UNL     1       3.291   7.560  20.035  0.00  0.00    +0.000 HD
ENDROOT
BRANCH   2   5
ATOM      5  C   UNL     1       3.958   5.738  18.371  0.00  0.00    +0.000 C 
ATOM      6  C   UNL     1       4.900   6.656  17.559  0.00  0.00    +0.000 C 
ATOM      7  C   UNL     1       5.505   5.715  16.579  0.00  0.00    +0.000 A 
ATOM      8  C   UNL     1       6.500   6.011  15.652  0.00  0.00    +0.000 A 
ATOM      9  C   UNL     1       6.934   4.996  14.804  0.00  0.00    +0.000 A 
ATOM     10  C   UNL     1       6.369   3.715  14.886  0.00  0.00    +0.000 A 
ATOM     11  C   UNL     1       5.362   3.435  15.818  0.00  0.00    +0.000 A 
ATOM     12  C   UNL     1       4.934   4.446  16.664  0.00  0.00    +0.000 A 
ATOM     13  N   UNL     1       3.970   4.408  17.702  0.00  0.00    +0.000 N 
ATOM     14  C   UNL     1       3.306   3.258  18.123  0.00  0.00    +0.000 C 
ATOM     15  O   UNL     1       3.378   2.176  17.535  0.00  0.00    +0.000 OA
BRANCH  14  16
ATOM     16  C   UNL     1       2.445   3.361  19.318  0.00  0.00    +0.000 A 
ATOM     17  C   UNL     1       1.069   3.213  19.311  0.00  0.00    +0.000 A 
ATOM     18  N   UNL     1       0.661   3.449  20.592  0.00  0.00    +0.000 N 
ATOM     19  C   UNL     1       1.778   3.681  21.342  0.00  0.00    +0.000 A 
ATOM     20  N   UNL     1       2.871   3.613  20.617  0.00  0.00    +0.000 NA
ATOM     21  H   UNL     1      -0.293   3.466  20.925  0.00  0.00    +0.000 HD
ENDBRANCH  14  16
ENDBRANCH   2   5
BRANCH   1  22
ATOM     22  C   UNL     1       1.285   8.199  19.630  0.00  0.00    +0.000 C 
BRANCH  22  24
ATOM     23  C   UNL     1      -0.427   8.243  21.541  0.00  0.00    +0.000 C 
ATOM     24  C   UNL     1       1.056   8.308  21.166  0.00  0.00    +0.000 C 
ATOM     25  C   UNL     1       1.699   9.535  21.827  0.00  0.00    +0.000 C 
ENDBRANCH  22  24
BRANCH  22  26
ATOM     26  C   UNL     1       1.298   9.578  18.910  0.00  0.00    +0.000 C 
ATOM     27  O   UNL     1       2.351  10.052  18.470  0.00  0.00    +0.000 OA
BRANCH  26  28
ATOM     28  C   UNL     1       0.005  10.208  18.744  0.00  0.00    +0.000 A 
ATOM     29  N   UNL     1      -0.482  11.209  19.451  0.00  0.00    +0.000 NA
ATOM     30  N   UNL     1      -1.758  11.432  18.986  0.00  0.00    +0.000 NA
ATOM     31  C   UNL     1      -1.973  10.555  18.025  0.00  0.00    +0.000 A 
ATOM     32  O   UNL     1      -0.875   9.765  17.783  0.00  0.00    +0.000 OA
BRANCH  31  33
ATOM     33  C   UNL     1      -3.212  10.334  17.199  0.00  0.00    +0.000 C 
ATOM     34  C   UNL     1      -4.064   9.217  17.834  0.00  0.00    +0.000 C 
ATOM     35  C   UNL     1      -4.050  11.621  17.147  0.00  0.00    +0.000 C 
ATOM     36  C   UNL     1      -2.845   9.906  15.768  0.00  0.00    +0.000 C 
ENDBRANCH  31  33
ENDBRANCH  26  28
ENDBRANCH  22  26
ENDBRANCH   1  22
TORSDOF 7
ENDMDL
MODEL 2
REMARK VINA RESULT:      -7.6      1.465      1.913
REMARK  Name = 
REMARK  12 active torsions:
REMARK  status: ('A' for Active; 'I' for Inactive)
REMARK    1  A    between atoms: C_1  and  C_2
REMARK    2  A    between atoms: C_2  and  C_3
REMARK    3  A    between atoms: C_2  and  C_4
REMARK    4  A    between atoms: C_4  and  N_5
REMARK    5  A    between atoms: C_4  and  C_24
REMARK    6  A    between atoms: C_6  and  C_8
REMARK    7  A    between atoms: C_17  and  C_19
REMARK    8  A    between atoms: C_24  and  C_26
REMARK    9  A    between atoms: C_29  and  C_30
REMARK   10  A    between atoms: C_30  and  C_31
REMARK   11  A    between atoms: C_30  and  C_32
REMARK   12  A    between atoms: C_30  and  C_33
REMARK                            x       y       z     vdW  Elec       q    Type
REMARK                         _______ _______ _______ _____ _____    ______ ____
ROOT
ATOM      1  N   UNL     1       2.497   7.432  19.452  0.00  0.00    +0.000 N 
ATOM      2  C   UNL     1       2.571   6.472  18.448  0.00  0.00    +0.000 C 
ATOM      3  O   UNL     1       1.628   6.258  17.690  0.00  0.00    +0.000 OA
ATOM      4  H   UNL     1       3.217   7.426  20.164  0.00  0.00    +0.000 HD
ENDROOT
BRANCH   2   5
ATOM      5  C   UNL     1       3.945   5.777  18.352  0.00  0.00    +0.000 C 
ATOM      6  C   UNL     1       4.860   6.693  17.507  0.00  0.00    +0.000 C 
ATOM      7  C   UNL     1       5.451   5.744  16.525  0.00  0.00    +0.000 A 
ATOM      8  C   UNL     1       6.421   6.037  15.572  0.00  0.00    +0.000 A 
ATOM      9  C   UNL     1       6.844   5.014  14.726  0.00  0.00    +0.000 A 
ATOM     10  C   UNL     1       6.293   3.730  14.837  0.00  0.00    +0.000 A 
ATOM     11  C   UNL     1       5.310   3.453  15.796  0.00  0.00    +0.000 A 
ATOM     12  C   UNL     1       4.893   4.471  16.639  0.00  0.00    +0.000 A 
ATOM     13  N   UNL     1       3.953   4.438  17.699  0.00  0.00    +0.000 N 
ATOM     14  C   UNL     1       3.310   3.289  18.151  0.00  0.00    +0.000 C 
ATOM     15  O   UNL     1       3.377   2.200  17.575  0.00  0.00    +0.000 OA
BRANCH  14  16
ATOM     16  C   UNL     1       2.475   3.400  19.364  0.00  0.00    +0.000 A 
ATOM     17  C   UNL     1       1.096   3.295  19.382  0.00  0.00    +0.000 A 
ATOM     18  N   UNL     1       0.720   3.523  20.674  0.00  0.00    +0.000 N 
ATOM     19  C   UNL     1       1.859   3.707  21.405  0.00  0.00    +0.000 A 
ATOM     20  N   UNL     1       2.934   3.617  20.658  0.00  0.00    +0.000 NA
ATOM     21  H   UNL     1      -0.226   3.565  21.026  0.00  0.00    +0.000 HD
ENDBRANCH  14  16
ENDBRANCH   2   5
BRANCH   1  22
ATOM     22  C   UNL     1       1.224   8.102  19.756  0.00  0.00    +0.000 C 
BRANCH  22  24
ATOM     23  C   UNL     1      -0.483   8.211  21.670  0.00  0.00    +0.000 C 
ATOM     24  C   UNL     1       1.001   8.167  21.295  0.00  0.00    +0.000 C 
ATOM     25  C   UNL     1       1.743   9.306  22.006  0.00  0.00    +0.000 C 
ENDBRANCH  22  24
BRANCH  22  26
ATOM     26  C   UNL     1       1.207   9.499  19.073  0.00  0.00    +0.000 C 
ATOM     27  O   UNL     1       2.212   9.935  18.500  0.00  0.00    +0.000 OA
BRANCH  26  28
ATOM     28  C   UNL     1      -0.063  10.195  19.104  0.00  0.00    +0.000 A 
ATOM     29  N   UNL     1      -1.041  10.090  18.227  0.00  0.00    +0.000 NA
ATOM     30  N   UNL     1      -2.017  10.977  18.621  0.00  0.00    +0.000 NA
ATOM     31  C   UNL     1      -1.576  11.568  19.714  0.00  0.00    +0.000 A 
ATOM     32  O   UNL     1      -0.350  11.090  20.110  0.00  0.00    +0.000 OA
BRANCH  31  33
ATOM     33  C   UNL     1      -2.227  12.645  20.541  0.00  0.00    +0.000 C 
ATOM     34  C   UNL     1      -1.530  13.993  20.276  0.00  0.00    +0.000 C 
ATOM     35  C   UNL     1      -3.710  12.776  20.166  0.00  0.00    +0.000 C 
ATOM     36  C   UNL     1      -2.108  12.327  22.042  0.00  0.00    +0.000 C 
ENDBRANCH  31  33
ENDBRANCH  26  28
ENDBRANCH  22  26
ENDBRANCH   1  22
TORSDOF 7
ENDMDL
MODEL 3
REMARK VINA RESULT:      -7.5      0.852      1.043
REMARK  Name = 
REMARK  12 active torsions:
REMARK  status: ('A' for Active; 'I' for Inactive)
REMARK    1  A    between atoms: C_1  and  C_2
REMARK    2  A    between atoms: C_2  and  C_3
REMARK    3  A    between atoms: C_2  and  C_4
REMARK    4  A    between atoms: C_4  and  N_5
REMARK    5  A    between atoms: C_4  and  C_24
REMARK    6  A    between atoms: C_6  and  C_8
REMARK    7  A    between atoms: C_17  and  C_19
REMARK    8  A    between atoms: C_24  and  C_26
REMARK    9  A    between atoms: C_29  and  C_30
REMARK   10  A    between atoms: C_30  and  C_31
REMARK   11  A    between atoms: C_30  and  C_32
REMARK   12  A    between atoms: C_30  and  C_33
REMARK                            x       y       z     vdW  Elec       q    Type
REMARK                         _______ _______ _______ _____ _____    ______ ____
ROOT
ATOM      1  N   UNL     1       2.444   7.288  18.980  0.00  0.00    +0.000 N 
ATOM      2  C   UNL     1       2.675   6.122  19.703  0.00  0.00    +0.000 C 
ATOM      3  O   UNL     1       1.878   5.717  20.545  0.00  0.00    +0.000 OA
ATOM      4  H   UNL     1       3.216   7.676  18.453  0.00  0.00    +0.000 HD
ENDROOT
BRANCH   2   5
ATOM      5  C   UNL     1       3.968   5.384  19.297  0.00  0.00    +0.000 C 
ATOM      6  C   UNL     1       4.915   6.435  18.674  0.00  0.00    +0.000 C 
ATOM      7  C   UNL     1       5.352   5.772  17.416  0.00  0.00    +0.000 A 
ATOM      8  C   UNL     1       6.288   6.256  16.507  0.00  0.00    +0.000 A 
ATOM      9  C   UNL     1       6.560   5.496  15.372  0.00  0.00    +0.000 A 
ATOM     10  C   UNL     1       5.895   4.281  15.159  0.00  0.00    +0.000 A 
ATOM     11  C   UNL     1       4.948   3.811  16.078  0.00  0.00    +0.000 A 
ATOM     12  C   UNL     1       4.682   4.567  17.209  0.00  0.00    +0.000 A 
ATOM     13  N   UNL     1       3.808   4.297  18.291  0.00  0.00    +0.000 N 
ATOM     14  C   UNL     1       3.084   3.118  18.449  0.00  0.00    +0.000 C 
ATOM     15  O   UNL     1       3.012   2.243  17.582  0.00  0.00    +0.000 OA
BRANCH  14  16
ATOM     16  C   UNL     1       2.338   2.933  19.709  0.00  0.00    +0.000 A 
ATOM     17  C   UNL     1       0.959   2.959  19.818  0.00  0.00    +0.000 A 
ATOM     18  N   UNL     1       0.686   2.817  21.147  0.00  0.00    +0.000 N 
ATOM     19  C   UNL     1       1.877   2.660  21.796  0.00  0.00    +0.000 A 
ATOM     20  N   UNL     1       2.891   2.701  20.963  0.00  0.00    +0.000 NA
ATOM     21  H   UNL     1      -0.228   2.839  21.578  0.00  0.00    +0.000 HD
ENDBRANCH  14  16
ENDBRANCH   2   5
BRANCH   1  22
ATOM     22  C   UNL     1       1.321   8.173  19.323  0.00  0.00    +0.000 C 
BRANCH  22  24
ATOM     23  C   UNL     1      -0.233   8.310  21.361  0.00  0.00    +0.000 C 
ATOM     24  C   UNL     1       1.216   8.338  20.868  0.00  0.00    +0.000 C 
ATOM     25  C   UNL     1       1.926   9.575  21.432  0.00  0.00    +0.000 C 
ENDBRANCH  22  24
BRANCH  22  26
ATOM     26  C   UNL     1       1.488   9.523  18.570  0.00  0.00    +0.000 C 
ATOM     27  O   UNL     1       2.572   9.836  18.066  0.00  0.00    +0.000 OA
BRANCH  26  28
ATOM     28  C   UNL     1       0.288  10.327  18.454  0.00  0.00    +0.000 A 
ATOM     29  N   UNL     1       0.073  11.506  19.002  0.00  0.00    +0.000 NA
ATOM     30  N   UNL     1      -1.217  11.859  18.677  0.00  0.00    +0.000 NA
ATOM     31  C   UNL     1      -1.710  10.874  17.950  0.00  0.00    +0.000 A 
ATOM     32  O   UNL     1      -0.792   9.877  17.728  0.00  0.00    +0.000 OA
BRANCH  31  33
ATOM     33  C   UNL     1      -3.087  10.726  17.359  0.00  0.00    +0.000 C 
ATOM     34  C   UNL     1      -4.037  11.758  17.998  0.00  0.00    +0.000 C 
ATOM     35  C   UNL     1      -3.041  10.973  15.844  0.00  0.00    +0.000 C 
ATOM     36  C   UNL     1      -3.648   9.320  17.630  0.00  0.00    +0.000 C 
ENDBRANCH  31  33
ENDBRANCH  26  28
ENDBRANCH  22  26
ENDBRANCH   1  22
TORSDOF 7
ENDMDL
MODEL 4
REMARK VINA RESULT:      -7.4      3.551      7.582
REMARK  Name = 
REMARK  12 active torsions:
REMARK  status: ('A' for Active; 'I' for Inactive)
REMARK    1  A    between atoms: C_1  and  C_2
REMARK    2  A    between atoms: C_2  and  C_3
REMARK    3  A    between atoms: C_2  and  C_4
REMARK    4  A    between atoms: C_4  and  N_5
REMARK    5  A    between atoms: C_4  and  C_24
REMARK    6  A    between atoms: C_6  and  C_8
REMARK    7  A    between atoms: C_17  and  C_19
REMARK    8  A    between atoms: C_24  and  C_26
REMARK    9  A    between atoms: C_29  and  C_30
REMARK   10  A    between atoms: C_30  and  C_31
REMARK   11  A    between atoms: C_30  and  C_32
REMARK   12  A    between atoms: C_30  and  C_33
REMARK                            x       y       z     vdW  Elec       q    Type
REMARK                         _______ _______ _______ _____ _____    ______ ____
ROOT
ATOM      1  N   UNL     1       5.233   5.871  17.897  0.00  0.00    +0.000 N 
ATOM      2  C   UNL     1       4.198   5.009  17.550  0.00  0.00    +0.000 C 
ATOM      3  O   UNL     1       4.414   3.921  17.023  0.00  0.00    +0.000 OA
ATOM      4  H   UNL     1       4.992   6.824  18.139  0.00  0.00    +0.000 HD
ENDROOT
BRANCH   2   5
ATOM      5  C   UNL     1       2.799   5.525  17.948  0.00  0.00    +0.000 C 
ATOM      6  C   UNL     1       2.687   6.979  17.435  0.00  0.00    +0.000 C 
ATOM      7  C   UNL     1       2.176   7.706  18.627  0.00  0.00    +0.000 A 
ATOM      8  C   UNL     1       1.814   9.048  18.686  0.00  0.00    +0.000 A 
ATOM      9  C   UNL     1       1.367   9.557  19.903  0.00  0.00    +0.000 A 
ATOM     10  C   UNL     1       1.294   8.731  21.032  0.00  0.00    +0.000 A 
ATOM     11  C   UNL     1       1.671   7.383  20.959  0.00  0.00    +0.000 A 
ATOM     12  C   UNL     1       2.112   6.877  19.747  0.00  0.00    +0.000 A 
ATOM     13  N   UNL     1       2.510   5.560  19.409  0.00  0.00    +0.000 N 
ATOM     14  C   UNL     1       2.445   4.468  20.270  0.00  0.00    +0.000 C 
ATOM     15  O   UNL     1       2.175   4.563  21.470  0.00  0.00    +0.000 OA
BRANCH  14  16
ATOM     16  C   UNL     1       2.754   3.135  19.715  0.00  0.00    +0.000 A 
ATOM     17  C   UNL     1       1.883   2.381  18.949  0.00  0.00    +0.000 A 
ATOM     18  N   UNL     1       2.526   1.203  18.702  0.00  0.00    +0.000 N 
ATOM     19  C   UNL     1       3.765   1.286  19.268  0.00  0.00    +0.000 A 
ATOM     20  N   UNL     1       3.949   2.440  19.866  0.00  0.00    +0.000 NA
ATOM     21  H   UNL     1       2.151   0.407  18.204  0.00  0.00    +0.000 HD
ENDBRANCH  14  16
ENDBRANCH   2   5
BRANCH   1  22
ATOM     22  C   UNL     1       6.616   5.587  17.482  0.00  0.00    +0.000 C 
BRANCH  22  24
ATOM     23  C   UNL     1       5.553   6.534  15.347  0.00  0.00    +0.000 C 
ATOM     24  C   UNL     1       6.808   5.921  15.974  0.00  0.00    +0.000 C 
ATOM     25  C   UNL     1       7.291   4.747  15.112  0.00  0.00    +0.000 C 
ENDBRANCH  22  24
BRANCH  22  26
ATOM     26  C   UNL     1       7.595   6.358  18.413  0.00  0.00    +0.000 C 
ATOM     27  O   UNL     1       8.226   5.767  19.296  0.00  0.00    +0.000 OA
BRANCH  26  28
ATOM     28  C   UNL     1       7.753   7.769  18.122  0.00  0.00    +0.000 A 
ATOM     29  N   UNL     1       7.141   8.452  17.175  0.00  0.00    +0.000 NA
ATOM     30  N   UNL     1       7.644   9.732  17.229  0.00  0.00    +0.000 NA
ATOM     31  C   UNL     1       8.531   9.752  18.204  0.00  0.00    +0.000 A 
ATOM     32  O   UNL     1       8.626   8.544  18.851  0.00  0.00    +0.000 OA
BRANCH  31  33
ATOM     33  C   UNL     1       9.402  10.887  18.674  0.00  0.00    +0.000 C 
ATOM     34  C   UNL     1       9.636  10.766  20.192  0.00  0.00    +0.000 C 
ATOM     35  C   UNL     1      10.762  10.840  17.962  0.00  0.00    +0.000 C 
ATOM     36  C   UNL     1       8.728  12.242  18.396  0.00  0.00    +0.000 C 
ENDBRANCH  31  33
ENDBRANCH  26  28
ENDBRANCH  22  26
ENDBRANCH   1  22
TORSDOF 7
ENDMDL
MODEL 5
REMARK VINA RESULT:      -7.4      5.865      9.591
REMARK  Name = 
REMARK  12 active torsions:
REMARK  status: ('A' for Active; 'I' for Inactive)
REMARK    1  A    between atoms: C_1  and  C_2
REMARK    2  A    between atoms: C_2  and  C_3
REMARK    3  A    between atoms: C_2  and  C_4
REMARK    4  A    between atoms: C_4  and  N_5
REMARK    5  A    between atoms: C_4  and  C_24
REMARK    6  A    between atoms: C_6  and  C_8
REMARK    7  A    between atoms: C_17  and  C_19
REMARK    8  A    between atoms: C_24  and  C_26
REMARK    9  A    between atoms: C_29  and  C_30
REMARK   10  A    between atoms: C_30  and  C_31
REMARK   11  A    between atoms: C_30  and  C_32
REMARK   12  A    between atoms: C_30  and  C_33
REMARK                            x       y       z     vdW  Elec       q    Type
REMARK                         _______ _______ _______ _____ _____    ______ ____
ROOT
ATOM      1  N   UNL     1      -2.894  12.904  22.070  0.00  0.00    +0.000 N 
ATOM      2  C   UNL     1      -3.024  13.084  20.697  0.00  0.00    +0.000 C 
ATOM      3  O   UNL     1      -2.719  14.142  20.153  0.00  0.00    +0.000 OA
ATOM      4  H   UNL     1      -3.343  12.096  22.485  0.00  0.00    +0.000 HD
ENDROOT
BRANCH   2   5
ATOM      5  C   UNL     1      -3.515  11.826  19.948  0.00  0.00    +0.000 C 
ATOM      6  C   UNL     1      -2.265  11.122  19.374  0.00  0.00    +0.000 C 
ATOM      7  C   UNL     1      -2.656  10.870  17.961  0.00  0.00    +0.000 A 
ATOM      8  C   UNL     1      -1.916  10.176  17.008  0.00  0.00    +0.000 A 
ATOM      9  C   UNL     1      -2.443  10.053  15.725  0.00  0.00    +0.000 A 
ATOM     10  C   UNL     1      -3.684  10.624  15.412  0.00  0.00    +0.000 A 
ATOM     11  C   UNL     1      -4.413  11.329  16.380  0.00  0.00    +0.000 A 
ATOM     12  C   UNL     1      -3.888  11.446  17.657  0.00  0.00    +0.000 A 
ATOM     13  N   UNL     1      -4.438  12.068  18.805  0.00  0.00    +0.000 N 
ATOM     14  C   UNL     1      -5.711  12.630  18.868  0.00  0.00    +0.000 C 
ATOM     15  O   UNL     1      -6.438  12.780  17.883  0.00  0.00    +0.000 OA
BRANCH  14  16
ATOM     16  C   UNL     1      -6.190  13.101  20.183  0.00  0.00    +0.000 A 
ATOM     17  C   UNL     1      -6.733  12.286  21.160  0.00  0.00    +0.000 A 
ATOM     18  N   UNL     1      -7.105  13.118  22.176  0.00  0.00    +0.000 N 
ATOM     19  C   UNL     1      -6.741  14.385  21.823  0.00  0.00    +0.000 A 
ATOM     20  N   UNL     1      -6.167  14.413  20.642  0.00  0.00    +0.000 NA
ATOM     21  H   UNL     1      -7.577  12.850  23.029  0.00  0.00    +0.000 HD
ENDBRANCH  14  16
ENDBRANCH   2   5
BRANCH   1  22
ATOM     22  C   UNL     1      -2.552  14.036  22.945  0.00  0.00    +0.000 C 
BRANCH  22  24
ATOM     23  C   UNL     1      -4.285  12.748  24.333  0.00  0.00    +0.000 C 
ATOM     24  C   UNL     1      -3.449  14.025  24.217  0.00  0.00    +0.000 C 
ATOM     25  C   UNL     1      -4.360  15.250  24.372  0.00  0.00    +0.000 C 
ENDBRANCH  22  24
BRANCH  22  26
ATOM     26  C   UNL     1      -1.031  13.991  23.264  0.00  0.00    +0.000 C 
ATOM     27  O   UNL     1      -0.552  14.695  24.161  0.00  0.00    +0.000 OA
BRANCH  26  28
ATOM     28  C   UNL     1      -0.258  13.038  22.495  0.00  0.00    +0.000 A 
ATOM     29  N   UNL     1       0.559  13.308  21.497  0.00  0.00    +0.000 NA
ATOM     30  N   UNL     1       1.019  12.097  21.030  0.00  0.00    +0.000 NA
ATOM     31  C   UNL     1       0.456  11.163  21.771  0.00  0.00    +0.000 A 
ATOM     32  O   UNL     1      -0.342  11.689  22.758  0.00  0.00    +0.000 OA
BRANCH  31  33
ATOM     33  C   UNL     1       0.584   9.666  21.673  0.00  0.00    +0.000 C 
ATOM     34  C   UNL     1       0.842   9.265  20.208  0.00  0.00    +0.000 C 
ATOM     35  C   UNL     1       1.760   9.179  22.531  0.00  0.00    +0.000 C 
ATOM     36  C   UNL     1      -0.709   8.977  22.142  0.00  0.00    +0.000 C 
ENDBRANCH  31  33
ENDBRANCH  26  28
ENDBRANCH  22  26
ENDBRANCH   1  22
TORSDOF 7
ENDMDL
MODEL 6
REMARK VINA RESULT:      -7.2      3.606      7.632
REMARK  Name = 
REMARK  12 active torsions:
REMARK  status: ('A' for Active; 'I' for Inactive)
REMARK    1  A    between atoms: C_1  and  C_2
REMARK    2  A    between atoms: C_2  and  C_3
REMARK    3  A    between atoms: C_2  and  C_4
REMARK    4  A    between atoms: C_4  and  N_5
REMARK    5  A    between atoms: C_4  and  C_24
REMARK    6  A    between atoms: C_6  and  C_8
REMARK    7  A    between atoms: C_17  and  C_19
REMARK    8  A    between atoms: C_24  and  C_26
REMARK    9  A    between atoms: C_29  and  C_30
REMARK   10  A    between atoms: C_30  and  C_31
REMARK   11  A    between atoms: C_30  and  C_32
REMARK   12  A    between atoms: C_30  and  C_33
REMARK                            x       y       z     vdW  Elec       q    Type
REMARK                         _______ _______ _______ _____ _____    ______ ____
ROOT
ATOM      1  N   UNL     1       5.314   5.877  17.892  0.00  0.00    +0.000 N 
ATOM      2  C   UNL     1       4.319   4.950  17.601  0.00  0.00    +0.000 C 
ATOM      3  O   UNL     1       4.582   3.849  17.125  0.00  0.00    +0.000 OA
ATOM      4  H   UNL     1       5.029   6.828  18.091  0.00  0.00    +0.000 HD
ENDROOT
BRANCH   2   5
ATOM      5  C   UNL     1       2.901   5.417  17.994  0.00  0.00    +0.000 C 
ATOM      6  C   UNL     1       2.723   6.848  17.438  0.00  0.00    +0.000 C 
ATOM      7  C   UNL     1       2.186   7.587  18.612  0.00  0.00    +0.000 A 
ATOM      8  C   UNL     1       1.767   8.914  18.633  0.00  0.00    +0.000 A 
ATOM      9  C   UNL     1       1.304   9.439  19.837  0.00  0.00    +0.000 A 
ATOM     10  C   UNL     1       1.274   8.645  20.991  0.00  0.00    +0.000 A 
ATOM     11  C   UNL     1       1.709   7.313  20.956  0.00  0.00    +0.000 A 
ATOM     12  C   UNL     1       2.165   6.791  19.756  0.00  0.00    +0.000 A 
ATOM     13  N   UNL     1       2.618   5.483  19.454  0.00  0.00    +0.000 N 
ATOM     14  C   UNL     1       2.605   4.415  20.349  0.00  0.00    +0.000 C 
ATOM     15  O   UNL     1       2.337   4.534  21.547  0.00  0.00    +0.000 OA
BRANCH  14  16
ATOM     16  C   UNL     1       2.969   3.081  19.831  0.00  0.00    +0.000 A 
ATOM     17  C   UNL     1       4.184   2.456  20.050  0.00  0.00    +0.000 A 
ATOM     18  N   UNL     1       4.134   1.286  19.350  0.00  0.00    +0.000 N 
ATOM     19  C   UNL     1       2.898   1.204  18.776  0.00  0.00    +0.000 A 
ATOM     20  N   UNL     1       2.161   2.252  19.061  0.00  0.00    +0.000 NA
ATOM     21  H   UNL     1       4.879   0.609  19.259  0.00  0.00    +0.000 HD
ENDBRANCH  14  16
ENDBRANCH   2   5
BRANCH   1  22
ATOM     22  C   UNL     1       6.704   5.641  17.473  0.00  0.00    +0.000 C 
BRANCH  22  24
ATOM     23  C   UNL     1       5.604   6.561  15.346  0.00  0.00    +0.000 C 
ATOM     24  C   UNL     1       6.886   6.006  15.971  0.00  0.00    +0.000 C 
ATOM     25  C   UNL     1       7.435   4.872  15.095  0.00  0.00    +0.000 C 
ENDBRANCH  22  24
BRANCH  22  26
ATOM     26  C   UNL     1       7.661   6.424  18.417  0.00  0.00    +0.000 C 
ATOM     27  O   UNL     1       8.287   5.840  19.309  0.00  0.00    +0.000 OA
BRANCH  26  28
ATOM     28  C   UNL     1       7.805   7.836  18.129  0.00  0.00    +0.000 A 
ATOM     29  N   UNL     1       7.173   8.518  17.195  0.00  0.00    +0.000 NA
ATOM     30  N   UNL     1       7.669   9.801  17.245  0.00  0.00    +0.000 NA
ATOM     31  C   UNL     1       8.572   9.824  18.206  0.00  0.00    +0.000 A 
ATOM     32  O   UNL     1       8.685   8.614  18.847  0.00  0.00    +0.000 OA
BRANCH  31  33
ATOM     33  C   UNL     1       9.443  10.963  18.665  0.00  0.00    +0.000 C 
ATOM     34  C   UNL     1      10.764  10.956  17.871  0.00  0.00    +0.000 C 
ATOM     35  C   UNL     1       8.732  12.303  18.425  0.00  0.00    +0.000 C 
ATOM     36  C   UNL     1       9.779  10.825  20.160  0.00  0.00    +0.000 C 
ENDBRANCH  31  33
ENDBRANCH  26  28
ENDBRANCH  22  26
ENDBRANCH   1  22
TORSDOF 7
ENDMDL
MODEL 7
REMARK VINA RESULT:      -7.2      7.800     10.326
REMARK  Name = 
REMARK  12 active torsions:
REMARK  status: ('A' for Active; 'I' for Inactive)
REMARK    1  A    between atoms: C_1  and  C_2
REMARK    2  A    between atoms: C_2  and  C_3
REMARK    3  A    between atoms: C_2  and  C_4
REMARK    4  A    between atoms: C_4  and  N_5
REMARK    5  A    between atoms: C_4  and  C_24
REMARK    6  A    between atoms: C_6  and  C_8
REMARK    7  A    between atoms: C_17  and  C_19
REMARK    8  A    between atoms: C_24  and  C_26
REMARK    9  A    between atoms: C_29  and  C_30
REMARK   10  A    between atoms: C_30  and  C_31
REMARK   11  A    between atoms: C_30  and  C_32
REMARK   12  A    between atoms: C_30  and  C_33
REMARK                            x       y       z     vdW  Elec       q    Type
REMARK                         _______ _______ _______ _____ _____    ______ ____
ROOT
ATOM      1  N   UNL     1      -3.316  14.379  22.298  0.00  0.00    +0.000 N 
ATOM      2  C   UNL     1      -4.027  14.148  21.125  0.00  0.00    +0.000 C 
ATOM      3  O   UNL     1      -4.611  15.053  20.535  0.00  0.00    +0.000 OA
ATOM      4  H   UNL     1      -3.028  13.575  22.842  0.00  0.00    +0.000 HD
ENDROOT
BRANCH   2   5
ATOM      5  C   UNL     1      -3.945  12.689  20.626  0.00  0.00    +0.000 C 
ATOM      6  C   UNL     1      -2.564  12.516  19.953  0.00  0.00    +0.000 C 
ATOM      7  C   UNL     1      -2.912  11.864  18.662  0.00  0.00    +0.000 A 
ATOM      8  C   UNL     1      -2.019  11.405  17.699  0.00  0.00    +0.000 A 
ATOM      9  C   UNL     1      -2.536  10.831  16.540  0.00  0.00    +0.000 A 
ATOM     10  C   UNL     1      -3.922  10.730  16.358  0.00  0.00    +0.000 A 
ATOM     11  C   UNL     1      -4.809  11.205  17.333  0.00  0.00    +0.000 A 
ATOM     12  C   UNL     1      -4.292  11.773  18.487  0.00  0.00    +0.000 A 
ATOM     13  N   UNL     1      -4.968  12.287  19.621  0.00  0.00    +0.000 N 
ATOM     14  C   UNL     1      -6.347  12.233  19.813  0.00  0.00    +0.000 C 
ATOM     15  O   UNL     1      -7.141  11.865  18.945  0.00  0.00    +0.000 OA
BRANCH  14  16
ATOM     16  C   UNL     1      -6.877  12.676  21.119  0.00  0.00    +0.000 A 
ATOM     17  C   UNL     1      -7.673  13.792  21.306  0.00  0.00    +0.000 A 
ATOM     18  N   UNL     1      -7.882  13.880  22.651  0.00  0.00    +0.000 N 
ATOM     19  C   UNL     1      -7.264  12.811  23.233  0.00  0.00    +0.000 A 
ATOM     20  N   UNL     1      -6.669  12.052  22.343  0.00  0.00    +0.000 NA
ATOM     21  H   UNL     1      -8.388  14.610  23.134  0.00  0.00    +0.000 HD
ENDBRANCH  14  16
ENDBRANCH   2   5
BRANCH   1  22
ATOM     22  C   UNL     1      -3.388  15.685  22.972  0.00  0.00    +0.000 C 
BRANCH  22  24
ATOM     23  C   UNL     1      -4.595  16.772  24.958  0.00  0.00    +0.000 C 
ATOM     24  C   UNL     1      -3.904  15.513  24.431  0.00  0.00    +0.000 C 
ATOM     25  C   UNL     1      -2.844  15.048  25.438  0.00  0.00    +0.000 C 
ENDBRANCH  22  24
BRANCH  22  26
ATOM     26  C   UNL     1      -1.998  16.377  22.890  0.00  0.00    +0.000 C 
ATOM     27  O   UNL     1      -1.846  17.539  23.282  0.00  0.00    +0.000 OA
BRANCH  26  28
ATOM     28  C   UNL     1      -0.916  15.551  22.394  0.00  0.00    +0.000 A 
ATOM     29  N   UNL     1      -0.015  14.916  23.116  0.00  0.00    +0.000 NA
ATOM     30  N   UNL     1       0.847  14.316  22.227  0.00  0.00    +0.000 NA
ATOM     31  C   UNL     1       0.420  14.621  21.017  0.00  0.00    +0.000 A 
ATOM     32  O   UNL     1      -0.729  15.373  21.042  0.00  0.00    +0.000 OA
BRANCH  31  33
ATOM     33  C   UNL     1       1.008  14.253  19.680  0.00  0.00    +0.000 C 
ATOM     34  C   UNL     1       1.225  12.729  19.613  0.00  0.00    +0.000 C 
ATOM     35  C   UNL     1       0.051  14.663  18.551  0.00  0.00    +0.000 C 
ATOM     36  C   UNL     1       2.367  14.944  19.474  0.00  0.00    +0.000 C 
ENDBRANCH  31  33
ENDBRANCH  26  28
ENDBRANCH  22  26
ENDBRANCH   1  22
TORSDOF 7
ENDMDL
MODEL 8
REMARK VINA RESULT:      -7.2      1.681      2.324
REMARK  Name = 
REMARK  12 active torsions:
REMARK  status: ('A' for Active; 'I' for Inactive)
REMARK    1  A    between atoms: C_1  and  C_2
REMARK    2  A    between atoms: C_2  and  C_3
REMARK    3  A    between atoms: C_2  and  C_4
REMARK    4  A    between atoms: C_4  and  N_5
REMARK    5  A    between atoms: C_4  and  C_24
REMARK    6  A    between atoms: C_6  and  C_8
REMARK    7  A    between atoms: C_17  and  C_19
REMARK    8  A    between atoms: C_24  and  C_26
REMARK    9  A    between atoms: C_29  and  C_30
REMARK   10  A    between atoms: C_30  and  C_31
REMARK   11  A    between atoms: C_30  and  C_32
REMARK   12  A    between atoms: C_30  and  C_33
REMARK                            x       y       z     vdW  Elec       q    Type
REMARK                         _______ _______ _______ _____ _____    ______ ____
ROOT
ATOM      1  N   UNL     1       2.555   7.723  18.962  0.00  0.00    +0.000 N 
ATOM      2  C   UNL     1       2.556   6.514  18.273  0.00  0.00    +0.000 C 
ATOM      3  O   UNL     1       1.547   6.086  17.721  0.00  0.00    +0.000 OA
ATOM      4  H   UNL     1       3.347   7.926  19.560  0.00  0.00    +0.000 HD
ENDROOT
BRANCH   2   5
ATOM      5  C   UNL     1       3.938   5.827  18.224  0.00  0.00    +0.000 C 
ATOM      6  C   UNL     1       4.863   6.728  17.374  0.00  0.00    +0.000 C 
ATOM      7  C   UNL     1       5.482   5.758  16.431  0.00  0.00    +0.000 A 
ATOM      8  C   UNL     1       6.470   6.033  15.491  0.00  0.00    +0.000 A 
ATOM      9  C   UNL     1       6.918   4.992  14.682  0.00  0.00    +0.000 A 
ATOM     10  C   UNL     1       6.374   3.707  14.816  0.00  0.00    +0.000 A 
ATOM     11  C   UNL     1       5.373   3.448  15.761  0.00  0.00    +0.000 A 
ATOM     12  C   UNL     1       4.931   4.485  16.568  0.00  0.00    +0.000 A 
ATOM     13  N   UNL     1       3.969   4.472  17.608  0.00  0.00    +0.000 N 
ATOM     14  C   UNL     1       3.324   3.330  18.076  0.00  0.00    +0.000 C 
ATOM     15  O   UNL     1       3.412   2.227  17.531  0.00  0.00    +0.000 OA
BRANCH  14  16
ATOM     16  C   UNL     1       2.464   3.467  19.269  0.00  0.00    +0.000 A 
ATOM     17  C   UNL     1       1.101   3.231  19.286  0.00  0.00    +0.000 A 
ATOM     18  N   UNL     1       0.684   3.535  20.549  0.00  0.00    +0.000 N 
ATOM     19  C   UNL     1       1.788   3.892  21.269  0.00  0.00    +0.000 A 
ATOM     20  N   UNL     1       2.879   3.841  20.541  0.00  0.00    +0.000 NA
ATOM     21  H   UNL     1      -0.267   3.515  20.889  0.00  0.00    +0.000 HD
ENDBRANCH  14  16
ENDBRANCH   2   5
BRANCH   1  22
ATOM     22  C   UNL     1       1.298   8.446  19.205  0.00  0.00    +0.000 C 
BRANCH  22  24
ATOM     23  C   UNL     1       1.950   7.769  21.593  0.00  0.00    +0.000 C 
ATOM     24  C   UNL     1       1.114   8.715  20.727  0.00  0.00    +0.000 C 
ATOM     25  C   UNL     1      -0.342   8.701  21.211  0.00  0.00    +0.000 C 
ENDBRANCH  22  24
BRANCH  22  26
ATOM     26  C   UNL     1       1.281   9.742  18.345  0.00  0.00    +0.000 C 
ATOM     27  O   UNL     1       2.080   9.893  17.414  0.00  0.00    +0.000 OA
BRANCH  26  28
ATOM     28  C   UNL     1       0.240  10.695  18.671  0.00  0.00    +0.000 A 
ATOM     29  N   UNL     1      -1.003  10.685  18.232  0.00  0.00    +0.000 NA
ATOM     30  N   UNL     1      -1.609  11.808  18.747  0.00  0.00    +0.000 NA
ATOM     31  C   UNL     1      -0.700  12.435  19.469  0.00  0.00    +0.000 A 
ATOM     32  O   UNL     1       0.497  11.761  19.503  0.00  0.00    +0.000 OA
BRANCH  31  33
ATOM     33  C   UNL     1      -0.815  13.730  20.226  0.00  0.00    +0.000 C 
ATOM     34  C   UNL     1      -0.386  14.900  19.319  0.00  0.00    +0.000 C 
ATOM     35  C   UNL     1      -2.268  13.958  20.667  0.00  0.00    +0.000 C 
ATOM     36  C   UNL     1       0.098  13.721  21.465  0.00  0.00    +0.000 C 
ENDBRANCH  31  33
ENDBRANCH  26  28
ENDBRANCH  22  26
ENDBRANCH   1  22
TORSDOF 7
ENDMDL
MODEL 9
REMARK VINA RESULT:      -7.1      3.896      9.813
REMARK  Name = 
REMARK  12 active torsions:
REMARK  status: ('A' for Active; 'I' for Inactive)
REMARK    1  A    between atoms: C_1  and  C_2
REMARK    2  A    between atoms: C_2  and  C_3
REMARK    3  A    between atoms: C_2  and  C_4
REMARK    4  A    between atoms: C_4  and  N_5
REMARK    5  A    between atoms: C_4  and  C_24
REMARK    6  A    between atoms: C_6  and  C_8
REMARK    7  A    between atoms: C_17  and  C_19
REMARK    8  A    between atoms: C_24  and  C_26
REMARK    9  A    between atoms: C_29  and  C_30
REMARK   10  A    between atoms: C_30  and  C_31
REMARK   11  A    between atoms: C_30  and  C_32
REMARK   12  A    between atoms: C_30  and  C_33
REMARK                            x       y       z     vdW  Elec       q    Type
REMARK                         _______ _______ _______ _____ _____    ______ ____
ROOT
ATOM      1  N   UNL     1      -1.041  11.309  20.415  0.00  0.00    +0.000 N 
ATOM      2  C   UNL     1      -0.219  11.404  21.533  0.00  0.00    +0.000 C 
ATOM      3  O   UNL     1       0.830  10.771  21.618  0.00  0.00    +0.000 OA
ATOM      4  H   UNL     1      -1.977  11.690  20.483  0.00  0.00    +0.000 HD
ENDROOT
BRANCH   2   5
ATOM      5  C   UNL     1      -0.721  12.410  22.590  0.00  0.00    +0.000 C 
ATOM      6  C   UNL     1      -1.881  11.730  23.351  0.00  0.00    +0.000 C 
ATOM      7  C   UNL     1      -2.938  12.777  23.334  0.00  0.00    +0.000 A 
ATOM      8  C   UNL     1      -4.177  12.712  23.964  0.00  0.00    +0.000 A 
ATOM      9  C   UNL     1      -5.045  13.793  23.823  0.00  0.00    +0.000 A 
ATOM     10  C   UNL     1      -4.671  14.906  23.058  0.00  0.00    +0.000 A 
ATOM     11  C   UNL     1      -3.423  14.952  22.422  0.00  0.00    +0.000 A 
ATOM     12  C   UNL     1      -2.559  13.878  22.567  0.00  0.00    +0.000 A 
ATOM     13  N   UNL     1      -1.247  13.699  22.063  0.00  0.00    +0.000 N 
ATOM     14  C   UNL     1      -0.531  14.666  21.360  0.00  0.00    +0.000 C 
ATOM     15  O   UNL     1      -1.023  15.728  20.971  0.00  0.00    +0.000 OA
BRANCH  14  16
ATOM     16  C   UNL     1       0.880  14.376  21.037  0.00  0.00    +0.000 A 
ATOM     17  C   UNL     1       1.379  14.226  19.756  0.00  0.00    +0.000 A 
ATOM     18  N   UNL     1       2.697  13.903  19.903  0.00  0.00    +0.000 N 
ATOM     19  C   UNL     1       2.974  13.914  21.239  0.00  0.00    +0.000 A 
ATOM     20  N   UNL     1       1.915  14.216  21.952  0.00  0.00    +0.000 NA
ATOM     21  H   UNL     1       3.347  13.682  19.162  0.00  0.00    +0.000 HD
ENDBRANCH  14  16
ENDBRANCH   2   5
BRANCH   1  22
ATOM     22  C   UNL     1      -0.772  10.309  19.369  0.00  0.00    +0.000 C 
BRANCH  22  24
ATOM     23  C   UNL     1      -1.543   9.769  16.983  0.00  0.00    +0.000 C 
ATOM     24  C   UNL     1      -1.970  10.226  18.380  0.00  0.00    +0.000 C 
ATOM     25  C   UNL     1      -2.802  11.510  18.267  0.00  0.00    +0.000 C 
ENDBRANCH  22  24
BRANCH  22  26
ATOM     26  C   UNL     1       0.577  10.650  18.675  0.00  0.00    +0.000 C 
ATOM     27  O   UNL     1       0.877  11.820  18.413  0.00  0.00    +0.000 OA
BRANCH  26  28
ATOM     28  C   UNL     1       1.456   9.524  18.431  0.00  0.00    +0.000 A 
ATOM     29  N   UNL     1       2.351   9.417  17.469  0.00  0.00    +0.000 NA
ATOM     30  N   UNL     1       2.901   8.161  17.584  0.00  0.00    +0.000 NA
ATOM     31  C   UNL     1       2.309   7.578  18.609  0.00  0.00    +0.000 A 
ATOM     32  O   UNL     1       1.403   8.404  19.228  0.00  0.00    +0.000 OA
BRANCH  31  33
ATOM     33  C   UNL     1       2.506   6.189  19.156  0.00  0.00    +0.000 C 
ATOM     34  C   UNL     1       4.011   5.916  19.344  0.00  0.00    +0.000 C 
ATOM     35  C   UNL     1       1.808   6.054  20.518  0.00  0.00    +0.000 C 
ATOM     36  C   UNL     1       1.941   5.136  18.187  0.00  0.00    +0.000 C 
ENDBRANCH  31  33
ENDBRANCH  26  28
ENDBRANCH  22  26
ENDBRANCH   1  22
TORSDOF 7
ENDMDL
