MODEL 1
REMARK VINA RESULT:      -7.0      0.000      0.000
REMARK  Name = 
REMARK  5 active torsions:
REMARK  status: ('A' for Active; 'I' for Inactive)
REMARK    1  A    between atoms: C_1  and  O_2
REMARK    2  A    between atoms: O_2  and  C_3
REMARK    3  A    between atoms: C_6  and  C_7
REMARK    4  A    between atoms: C_9  and  C_10
REMARK    5  A    between atoms: N_17  and  C_18
REMARK                            x       y       z     vdW  Elec       q    Type
REMARK                         _______ _______ _______ _____ _____    ______ ____
ROOT
ATOM      1  C   UNL     1       0.265  10.816  18.446  0.00  0.00    +0.000 C 
ATOM      2  C   UNL     1      -1.186  10.545  18.050  0.00  0.00    +0.000 C 
ATOM      3  C   UNL     1      -1.883  11.536  18.933  0.00  0.00    +0.000 C 
ATOM      4  N   UNL     1      -1.127  12.170  19.764  0.00  0.00    +0.000 NA
ATOM      5  N   UNL     1       0.151  11.740  19.585  0.00  0.00    +0.000 N 
ENDROOT
BRANCH   5   6
ATOM      6  C   UNL     1       1.204  12.334  20.250  0.00  0.00    +0.000 C 
ATOM      7  C   UNL     1       2.010  13.335  19.863  0.00  0.00    +0.000 C 
ATOM      8  S   UNL     1       1.876  14.300  18.434  0.00  0.00    +0.000 S 
ATOM      9  C   UNL     1       3.189  15.341  18.913  0.00  0.00    +0.000 C 
ATOM     10  S   UNL     1       3.747  16.662  18.084  0.00  0.00    +0.000 S 
ATOM     11  N   UNL     1       3.712  14.912  20.094  0.00  0.00    +0.000 N 
ATOM     12  C   UNL     1       3.137  13.823  20.695  0.00  0.00    +0.000 C 
ATOM     13  O   UNL     1       3.508  13.340  21.756  0.00  0.00    +0.000 OA
ATOM     14  H   UNL     1       4.498  15.371  20.524  0.00  0.00    +0.000 HD
ENDBRANCH   5   6
BRANCH   1  18
ATOM     15  C   UNL     1       2.398   7.200  19.557  0.00  0.00    +0.000 A 
ATOM     16  C   UNL     1       1.636   7.896  20.494  0.00  0.00    +0.000 A 
ATOM     17  C   UNL     1       0.943   9.056  20.134  0.00  0.00    +0.000 A 
ATOM     18  C   UNL     1       1.020   9.554  18.826  0.00  0.00    +0.000 A 
ATOM     19  C   UNL     1       1.791   8.845  17.887  0.00  0.00    +0.000 A 
ATOM     20  C   UNL     1       2.483   7.683  18.252  0.00  0.00    +0.000 A 
BRANCH  15  22
ATOM     21  C   UNL     1       4.099   5.583  19.248  0.00  0.00    +0.000 C 
ATOM     22  O   UNL     1       3.016   6.075  20.030  0.00  0.00    +0.000 OA
ENDBRANCH  15  22
ENDBRANCH   1  18
BRANCH   3  23
ATOM     23  C   UNL     1      -3.333  11.777  18.825  0.00  0.00    +0.000 A 
ATOM     24  C   UNL     1      -4.023  11.373  17.681  0.00  0.00    +0.000 A 
ATOM     25  C   UNL     1      -5.374  11.698  17.537  0.00  0.00    +0.000 A 
ATOM     26  C   UNL     1      -6.020  12.419  18.536  0.00  0.00    +0.000 A 
ATOM     27  C   UNL     1      -5.341  12.799  19.692  0.00  0.00    +0.000 A 
ATOM     28  C   UNL     1      -3.993  12.470  19.844  0.00  0.00    +0.000 A 
ENDBRANCH   3  23
TORSDOF 4
ENDMDL
MODEL 2
REMARK VINA RESULT:      -6.9      0.834      1.247
REMARK  Name = 
REMARK  5 active torsions:
REMARK  status: ('A' for Active; 'I' for Inactive)
REMARK    1  A    between atoms: C_1  and  O_2
REMARK    2  A    between atoms: O_2  and  C_3
REMARK    3  A    between atoms: C_6  and  C_7
REMARK    4  A    between atoms: C_9  and  C_10
REMARK    5  A    between atoms: N_17  and  C_18
REMARK                            x       y       z     vdW  Elec       q    Type
REMARK                         _______ _______ _______ _____ _____    ______ ____
ROOT
ATOM      1  C   UNL     1       0.238  10.808  18.440  0.00  0.00    +0.000 C 
ATOM      2  C   UNL     1      -1.202  10.532  18.007  0.00  0.00    +0.000 C 
ATOM      3  C   UNL     1      -1.924  11.525  18.870  0.00  0.00    +0.000 C 
ATOM      4  N   UNL     1      -1.191  12.163  19.718  0.00  0.00    +0.000 NA
ATOM      5  N   UNL     1       0.092  11.735  19.574  0.00  0.00    +0.000 N 
ENDROOT
BRANCH   5   6
ATOM      6  C   UNL     1       1.126  12.333  20.264  0.00  0.00    +0.000 C 
ATOM      7  C   UNL     1       1.576  13.596  20.213  0.00  0.00    +0.000 C 
ATOM      8  S   UNL     1       0.885  14.925  19.347  0.00  0.00    +0.000 S 
ATOM      9  C   UNL     1       2.022  16.062  20.018  0.00  0.00    +0.000 C 
ATOM     10  S   UNL     1       2.058  17.694  19.738  0.00  0.00    +0.000 S 
ATOM     11  N   UNL     1       2.903  15.413  20.826  0.00  0.00    +0.000 N 
ATOM     12  C   UNL     1       2.744  14.063  21.000  0.00  0.00    +0.000 C 
ATOM     13  O   UNL     1       3.464  13.364  21.699  0.00  0.00    +0.000 OA
ATOM     14  H   UNL     1       3.656  15.897  21.288  0.00  0.00    +0.000 HD
ENDBRANCH   5   6
BRANCH   1  18
ATOM     15  C   UNL     1       2.401   7.215  19.568  0.00  0.00    +0.000 A 
ATOM     16  C   UNL     1       2.465   7.708  18.266  0.00  0.00    +0.000 A 
ATOM     17  C   UNL     1       1.775   8.869  17.905  0.00  0.00    +0.000 A 
ATOM     18  C   UNL     1       0.985   9.549  18.843  0.00  0.00    +0.000 A 
ATOM     19  C   UNL     1       0.927   9.044  20.155  0.00  0.00    +0.000 A 
ATOM     20  C   UNL     1       1.621   7.881  20.512  0.00  0.00    +0.000 A 
BRANCH  15  22
ATOM     21  C   UNL     1       2.422   4.991  20.376  0.00  0.00    +0.000 C 
ATOM     22  O   UNL     1       3.131   6.081  19.797  0.00  0.00    +0.000 OA
ENDBRANCH  15  22
ENDBRANCH   1  18
BRANCH   3  23
ATOM     23  C   UNL     1      -3.371  11.762  18.723  0.00  0.00    +0.000 A 
ATOM     24  C   UNL     1      -4.021  11.396  17.544  0.00  0.00    +0.000 A 
ATOM     25  C   UNL     1      -5.369  11.719  17.367  0.00  0.00    +0.000 A 
ATOM     26  C   UNL     1      -6.052  12.400  18.370  0.00  0.00    +0.000 A 
ATOM     27  C   UNL     1      -5.413  12.741  19.561  0.00  0.00    +0.000 A 
ATOM     28  C   UNL     1      -4.068  12.413  19.744  0.00  0.00    +0.000 A 
ENDBRANCH   3  23
TORSDOF 4
ENDMDL
MODEL 3
REMARK VINA RESULT:      -6.8      0.837      1.557
REMARK  Name = 
REMARK  5 active torsions:
REMARK  status: ('A' for Active; 'I' for Inactive)
REMARK    1  A    between atoms: C_1  and  O_2
REMARK    2  A    between atoms: O_2  and  C_3
REMARK    3  A    between atoms: C_6  and  C_7
REMARK    4  A    between atoms: C_9  and  C_10
REMARK    5  A    between atoms: N_17  and  C_18
REMARK                            x       y       z     vdW  Elec       q    Type
REMARK                         _______ _______ _______ _____ _____    ______ ____
ROOT
ATOM      1  C   UNL     1       0.101  10.920  18.508  0.00  0.00    +0.000 C 
ATOM      2  C   UNL     1      -1.343  10.625  18.103  0.00  0.00    +0.000 C 
ATOM      3  C   UNL     1      -2.064  11.587  19.001  0.00  0.00    +0.000 C 
ATOM      4  N   UNL     1      -1.323  12.223  19.844  0.00  0.00    +0.000 NA
ATOM      5  N   UNL     1      -0.036  11.823  19.662  0.00  0.00    +0.000 N 
ENDROOT
BRANCH   5   6
ATOM      6  C   UNL     1       1.003  12.428  20.340  0.00  0.00    +0.000 C 
ATOM      7  C   UNL     1       1.448  13.692  20.278  0.00  0.00    +0.000 C 
ATOM      8  S   UNL     1       0.744  15.014  19.411  0.00  0.00    +0.000 S 
ATOM      9  C   UNL     1       1.884  16.159  20.065  0.00  0.00    +0.000 C 
ATOM     10  S   UNL     1       1.912  17.789  19.776  0.00  0.00    +0.000 S 
ATOM     11  N   UNL     1       2.775  15.516  20.868  0.00  0.00    +0.000 N 
ATOM     12  C   UNL     1       2.622  14.167  21.051  0.00  0.00    +0.000 C 
ATOM     13  O   UNL     1       3.351  13.474  21.747  0.00  0.00    +0.000 OA
ATOM     14  H   UNL     1       3.530  16.006  21.321  0.00  0.00    +0.000 HD
ENDBRANCH   5   6
BRANCH   1  18
ATOM     15  C   UNL     1       2.358   7.350  19.518  0.00  0.00    +0.000 A 
ATOM     16  C   UNL     1       2.388   7.872  18.226  0.00  0.00    +0.000 A 
ATOM     17  C   UNL     1       1.668   9.026  17.904  0.00  0.00    +0.000 A 
ATOM     18  C   UNL     1       0.881   9.668  18.870  0.00  0.00    +0.000 A 
ATOM     19  C   UNL     1       0.857   9.133  20.171  0.00  0.00    +0.000 A 
ATOM     20  C   UNL     1       1.581   7.978  20.490  0.00  0.00    +0.000 A 
BRANCH  15  22
ATOM     21  C   UNL     1       3.870   5.786  18.587  0.00  0.00    +0.000 C 
ATOM     22  O   UNL     1       3.114   6.226  19.709  0.00  0.00    +0.000 OA
ENDBRANCH  15  22
ENDBRANCH   1  18
BRANCH   3  23
ATOM     23  C   UNL     1      -3.518  11.799  18.892  0.00  0.00    +0.000 A 
ATOM     24  C   UNL     1      -4.192  12.524  19.877  0.00  0.00    +0.000 A 
ATOM     25  C   UNL     1      -5.583  12.631  19.826  0.00  0.00    +0.000 A 
ATOM     26  C   UNL     1      -6.286  12.017  18.793  0.00  0.00    +0.000 A 
ATOM     27  C   UNL     1      -5.613  11.319  17.793  0.00  0.00    +0.000 A 
ATOM     28  C   UNL     1      -4.221  11.214  17.836  0.00  0.00    +0.000 A 
ENDBRANCH   3  23
TORSDOF 4
ENDMDL
MODEL 4
REMARK VINA RESULT:      -6.8      3.097      6.622
REMARK  Name = 
REMARK  5 active torsions:
REMARK  status: ('A' for Active; 'I' for Inactive)
REMARK    1  A    between atoms: C_1  and  O_2
REMARK    2  A    between atoms: O_2  and  C_3
REMARK    3  A    between atoms: C_6  and  C_7
REMARK    4  A    between atoms: C_9  and  C_10
REMARK    5  A    between atoms: N_17  and  C_18
REMARK                            x       y       z     vdW  Elec       q    Type
REMARK                         _______ _______ _______ _____ _____    ______ ____
ROOT
ATOM      1  C   UNL     1      -1.506  11.590  19.584  0.00  0.00    +0.000 C 
ATOM      2  C   UNL     1      -1.024  10.140  19.588  0.00  0.00    +0.000 C 
ATOM      3  C   UNL     1       0.353  10.325  19.023  0.00  0.00    +0.000 C 
ATOM      4  N   UNL     1       0.639  11.521  18.633  0.00  0.00    +0.000 NA
ATOM      5  N   UNL     1      -0.444  12.311  18.865  0.00  0.00    +0.000 N 
ENDROOT
BRANCH   5   6
ATOM      6  C   UNL     1      -0.389  13.675  18.665  0.00  0.00    +0.000 C 
ATOM      7  C   UNL     1       0.027  14.649  19.489  0.00  0.00    +0.000 C 
ATOM      8  S   UNL     1       0.771  14.467  21.040  0.00  0.00    +0.000 S 
ATOM      9  C   UNL     1       1.061  16.179  21.195  0.00  0.00    +0.000 C 
ATOM     10  S   UNL     1       1.829  16.934  22.452  0.00  0.00    +0.000 S 
ATOM     11  N   UNL     1       0.556  16.832  20.113  0.00  0.00    +0.000 N 
ATOM     12  C   UNL     1      -0.028  16.086  19.124  0.00  0.00    +0.000 C 
ATOM     13  O   UNL     1      -0.516  16.549  18.102  0.00  0.00    +0.000 OA
ATOM     14  H   UNL     1       0.604  17.835  20.030  0.00  0.00    +0.000 HD
ENDBRANCH   5   6
BRANCH   1  18
ATOM     15  C   UNL     1      -5.367  12.116  17.667  0.00  0.00    +0.000 A 
ATOM     16  C   UNL     1      -5.161  12.528  18.983  0.00  0.00    +0.000 A 
ATOM     17  C   UNL     1      -3.916  12.365  19.597  0.00  0.00    +0.000 A 
ATOM     18  C   UNL     1      -2.854  11.763  18.907  0.00  0.00    +0.000 A 
ATOM     19  C   UNL     1      -3.072  11.351  17.580  0.00  0.00    +0.000 A 
ATOM     20  C   UNL     1      -4.321  11.516  16.968  0.00  0.00    +0.000 A 
BRANCH  15  22
ATOM     21  C   UNL     1      -6.971  13.703  16.955  0.00  0.00    +0.000 C 
ATOM     22  O   UNL     1      -6.624  12.341  17.177  0.00  0.00    +0.000 OA
ENDBRANCH  15  22
ENDBRANCH   1  18
BRANCH   3  23
ATOM     23  C   UNL     1       1.313   9.210  18.953  0.00  0.00    +0.000 A 
ATOM     24  C   UNL     1       2.059   9.004  17.791  0.00  0.00    +0.000 A 
ATOM     25  C   UNL     1       2.887   7.884  17.689  0.00  0.00    +0.000 A 
ATOM     26  C   UNL     1       2.965   6.985  18.749  0.00  0.00    +0.000 A 
ATOM     27  C   UNL     1       2.244   7.204  19.921  0.00  0.00    +0.000 A 
ATOM     28  C   UNL     1       1.420   8.325  20.030  0.00  0.00    +0.000 A 
ENDBRANCH   3  23
TORSDOF 4
ENDMDL
MODEL 5
REMARK VINA RESULT:      -6.7      4.025      7.341
REMARK  Name = 
REMARK  5 active torsions:
REMARK  status: ('A' for Active; 'I' for Inactive)
REMARK    1  A    between atoms: C_1  and  O_2
REMARK    2  A    between atoms: O_2  and  C_3
REMARK    3  A    between atoms: C_6  and  C_7
REMARK    4  A    between atoms: C_9  and  C_10
REMARK    5  A    between atoms: N_17  and  C_18
REMARK                            x       y       z     vdW  Elec       q    Type
REMARK                         _______ _______ _______ _____ _____    ______ ____
ROOT
ATOM      1  C   UNL     1      -0.130  12.874  19.558  0.00  0.00    +0.000 C 
ATOM      2  C   UNL     1       0.458  11.728  18.737  0.00  0.00    +0.000 C 
ATOM      3  C   UNL     1       0.931  10.834  19.844  0.00  0.00    +0.000 C 
ATOM      4  N   UNL     1       0.815  11.314  21.036  0.00  0.00    +0.000 NA
ATOM      5  N   UNL     1       0.263  12.553  20.939  0.00  0.00    +0.000 N 
ENDROOT
BRANCH   5   6
ATOM      6  C   UNL     1      -0.099  13.263  22.066  0.00  0.00    +0.000 C 
ATOM      7  C   UNL     1      -1.304  13.415  22.637  0.00  0.00    +0.000 C 
ATOM      8  S   UNL     1      -2.781  12.628  22.198  0.00  0.00    +0.000 S 
ATOM      9  C   UNL     1      -3.646  13.317  23.545  0.00  0.00    +0.000 C 
ATOM     10  S   UNL     1      -5.228  13.037  23.942  0.00  0.00    +0.000 S 
ATOM     11  N   UNL     1      -2.823  14.142  24.249  0.00  0.00    +0.000 N 
ATOM     12  C   UNL     1      -1.523  14.263  23.834  0.00  0.00    +0.000 C 
ATOM     13  O   UNL     1      -0.684  14.967  24.378  0.00  0.00    +0.000 OA
ATOM     14  H   UNL     1      -3.148  14.655  25.052  0.00  0.00    +0.000 HD
ENDBRANCH   5   6
BRANCH   1  18
ATOM     15  C   UNL     1       1.335  16.783  18.360  0.00  0.00    +0.000 A 
ATOM     16  C   UNL     1      -0.024  16.566  18.580  0.00  0.00    +0.000 A 
ATOM     17  C   UNL     1      -0.495  15.310  18.973  0.00  0.00    +0.000 A 
ATOM     18  C   UNL     1       0.392  14.236  19.133  0.00  0.00    +0.000 A 
ATOM     19  C   UNL     1       1.762  14.464  18.909  0.00  0.00    +0.000 A 
ATOM     20  C   UNL     1       2.229  15.724  18.516  0.00  0.00    +0.000 A 
BRANCH  15  22
ATOM     21  C   UNL     1       0.994  18.574  16.851  0.00  0.00    +0.000 C 
ATOM     22  O   UNL     1       1.669  18.057  17.992  0.00  0.00    +0.000 OA
ENDBRANCH  15  22
ENDBRANCH   1  18
BRANCH   3  23
ATOM     23  C   UNL     1       1.463   9.487  19.572  0.00  0.00    +0.000 A 
ATOM     24  C   UNL     1       1.915   9.162  18.291  0.00  0.00    +0.000 A 
ATOM     25  C   UNL     1       2.318   7.855  18.011  0.00  0.00    +0.000 A 
ATOM     26  C   UNL     1       2.270   6.888  19.012  0.00  0.00    +0.000 A 
ATOM     27  C   UNL     1       1.849   7.217  20.299  0.00  0.00    +0.000 A 
ATOM     28  C   UNL     1       1.451   8.524  20.585  0.00  0.00    +0.000 A 
ENDBRANCH   3  23
TORSDOF 4
ENDMDL
MODEL 6
REMARK VINA RESULT:      -6.6      3.201      6.584
REMARK  Name = 
REMARK  5 active torsions:
REMARK  status: ('A' for Active; 'I' for Inactive)
REMARK    1  A    between atoms: C_1  and  O_2
REMARK    2  A    between atoms: O_2  and  C_3
REMARK    3  A    between atoms: C_6  and  C_7
REMARK    4  A    between atoms: C_9  and  C_10
REMARK    5  A    between atoms: N_17  and  C_18
REMARK                            x       y       z     vdW  Elec       q    Type
REMARK                         _______ _______ _______ _____ _____    ______ ____
ROOT
ATOM      1  C   UNL     1      -0.577  11.574  22.168  0.00  0.00    +0.000 C 
ATOM      2  C   UNL     1      -0.473  10.189  21.530  0.00  0.00    +0.000 C 
ATOM      3  C   UNL     1       0.642  10.437  20.558  0.00  0.00    +0.000 C 
ATOM      4  N   UNL     1       1.053  11.657  20.480  0.00  0.00    +0.000 NA
ATOM      5  N   UNL     1       0.324  12.404  21.352  0.00  0.00    +0.000 N 
ENDROOT
BRANCH   5   6
ATOM      6  C   UNL     1       0.625  13.732  21.582  0.00  0.00    +0.000 C 
ATOM      7  C   UNL     1       0.503  14.793  20.770  0.00  0.00    +0.000 C 
ATOM      8  S   UNL     1      -0.220  14.838  19.200  0.00  0.00    +0.000 S 
ATOM      9  C   UNL     1      -0.043  16.568  19.076  0.00  0.00    +0.000 C 
ATOM     10  S   UNL     1      -0.550  17.519  17.819  0.00  0.00    +0.000 S 
ATOM     11  N   UNL     1       0.586  17.048  20.183  0.00  0.00    +0.000 N 
ATOM     12  C   UNL     1       0.926  16.159  21.169  0.00  0.00    +0.000 C 
ATOM     13  O   UNL     1       1.490  16.460  22.210  0.00  0.00    +0.000 OA
ATOM     14  H   UNL     1       0.802  18.026  20.288  0.00  0.00    +0.000 HD
ENDBRANCH   5   6
BRANCH   1  18
ATOM     15  C   UNL     1      -4.623  13.153  22.194  0.00  0.00    +0.000 A 
ATOM     16  C   UNL     1      -3.998  12.769  23.380  0.00  0.00    +0.000 A 
ATOM     17  C   UNL     1      -2.693  12.268  23.372  0.00  0.00    +0.000 A 
ATOM     18  C   UNL     1      -1.994  12.121  22.165  0.00  0.00    +0.000 A 
ATOM     19  C   UNL     1      -2.632  12.511  20.974  0.00  0.00    +0.000 A 
ATOM     20  C   UNL     1      -3.939  13.013  20.987  0.00  0.00    +0.000 A 
BRANCH  15  22
ATOM     21  C   UNL     1      -6.925  12.664  22.440  0.00  0.00    +0.000 C 
ATOM     22  O   UNL     1      -5.893  13.638  22.337  0.00  0.00    +0.000 OA
ENDBRANCH  15  22
ENDBRANCH   1  18
BRANCH   3  23
ATOM     23  C   UNL     1       1.236   9.341  19.772  0.00  0.00    +0.000 A 
ATOM     24  C   UNL     1       1.582   8.142  20.399  0.00  0.00    +0.000 A 
ATOM     25  C   UNL     1       2.241   7.148  19.674  0.00  0.00    +0.000 A 
ATOM     26  C   UNL     1       2.546   7.359  18.332  0.00  0.00    +0.000 A 
ATOM     27  C   UNL     1       2.175   8.542  17.697  0.00  0.00    +0.000 A 
ATOM     28  C   UNL     1       1.510   9.536  18.416  0.00  0.00    +0.000 A 
ENDBRANCH   3  23
TORSDOF 4
ENDMDL
MODEL 7
REMARK VINA RESULT:      -6.6      2.669      6.574
REMARK  Name = 
REMARK  5 active torsions:
REMARK  status: ('A' for Active; 'I' for Inactive)
REMARK    1  A    between atoms: C_1  and  O_2
REMARK    2  A    between atoms: O_2  and  C_3
REMARK    3  A    between atoms: C_6  and  C_7
REMARK    4  A    between atoms: C_9  and  C_10
REMARK    5  A    between atoms: N_17  and  C_18
REMARK                            x       y       z     vdW  Elec       q    Type
REMARK                         _______ _______ _______ _____ _____    ______ ____
ROOT
ATOM      1  C   UNL     1       0.969  10.212  19.270  0.00  0.00    +0.000 C 
ATOM      2  C   UNL     1       1.090   8.693  19.162  0.00  0.00    +0.000 C 
ATOM      3  C   UNL     1       2.255   8.594  18.222  0.00  0.00    +0.000 C 
ATOM      4  N   UNL     1       2.681   9.714  17.744  0.00  0.00    +0.000 NA
ATOM      5  N   UNL     1       1.918  10.712  18.263  0.00  0.00    +0.000 N 
ENDROOT
BRANCH   5   6
ATOM      6  C   UNL     1       2.221  12.039  18.030  0.00  0.00    +0.000 C 
ATOM      7  C   UNL     1       2.335  13.058  18.895  0.00  0.00    +0.000 C 
ATOM      8  S   UNL     1       2.273  12.985  20.622  0.00  0.00    +0.000 S 
ATOM      9  C   UNL     1       2.666  14.675  20.791  0.00  0.00    +0.000 C 
ATOM     10  S   UNL     1       2.870  15.497  22.214  0.00  0.00    +0.000 S 
ATOM     11  N   UNL     1       2.786  15.247  19.562  0.00  0.00    +0.000 N 
ATOM     12  C   UNL     1       2.625  14.448  18.461  0.00  0.00    +0.000 C 
ATOM     13  O   UNL     1       2.710  14.836  17.304  0.00  0.00    +0.000 OA
ATOM     14  H   UNL     1       2.987  16.227  19.451  0.00  0.00    +0.000 HD
ENDBRANCH   5   6
BRANCH   1  18
ATOM     15  C   UNL     1      -3.069  11.614  18.499  0.00  0.00    +0.000 A 
ATOM     16  C   UNL     1      -2.452  10.704  17.641  0.00  0.00    +0.000 A 
ATOM     17  C   UNL     1      -1.156  10.247  17.894  0.00  0.00    +0.000 A 
ATOM     18  C   UNL     1      -0.440  10.713  19.006  0.00  0.00    +0.000 A 
ATOM     19  C   UNL     1      -1.070  11.632  19.865  0.00  0.00    +0.000 A 
ATOM     20  C   UNL     1      -2.370  12.086  19.608  0.00  0.00    +0.000 A 
BRANCH  15  22
ATOM     21  C   UNL     1      -4.800  11.495  16.889  0.00  0.00    +0.000 C 
ATOM     22  O   UNL     1      -4.341  11.973  18.149  0.00  0.00    +0.000 OA
ENDBRANCH  15  22
ENDBRANCH   1  18
BRANCH   3  23
ATOM     23  C   UNL     1       2.876   7.297  17.899  0.00  0.00    +0.000 A 
ATOM     24  C   UNL     1       2.235   6.110  18.256  0.00  0.00    +0.000 A 
ATOM     25  C   UNL     1       2.876   4.887  18.045  0.00  0.00    +0.000 A 
ATOM     26  C   UNL     1       4.146   4.863  17.476  0.00  0.00    +0.000 A 
ATOM     27  C   UNL     1       4.775   6.046  17.090  0.00  0.00    +0.000 A 
ATOM     28  C   UNL     1       4.135   7.269  17.294  0.00  0.00    +0.000 A 
ENDBRANCH   3  23
TORSDOF 4
ENDMDL
MODEL 8
REMARK VINA RESULT:      -6.6      2.642      6.607
REMARK  Name = 
REMARK  5 active torsions:
REMARK  status: ('A' for Active; 'I' for Inactive)
REMARK    1  A    between atoms: C_1  and  O_2
REMARK    2  A    between atoms: O_2  and  C_3
REMARK    3  A    between atoms: C_6  and  C_7
REMARK    4  A    between atoms: C_9  and  C_10
REMARK    5  A    between atoms: N_17  and  C_18
REMARK                            x       y       z     vdW  Elec       q    Type
REMARK                         _______ _______ _______ _____ _____    ______ ____
ROOT
ATOM      1  C   UNL     1       0.843  10.131  19.108  0.00  0.00    +0.000 C 
ATOM      2  C   UNL     1       1.004   8.615  19.019  0.00  0.00    +0.000 C 
ATOM      3  C   UNL     1       2.258   8.537  18.199  0.00  0.00    +0.000 C 
ATOM      4  N   UNL     1       2.708   9.664  17.761  0.00  0.00    +0.000 NA
ATOM      5  N   UNL     1       1.877  10.648  18.197  0.00  0.00    +0.000 N 
ENDROOT
BRANCH   5   6
ATOM      6  C   UNL     1       2.176  11.980  17.989  0.00  0.00    +0.000 C 
ATOM      7  C   UNL     1       2.197  13.001  18.859  0.00  0.00    +0.000 C 
ATOM      8  S   UNL     1       1.988  12.927  20.574  0.00  0.00    +0.000 S 
ATOM      9  C   UNL     1       2.334  14.623  20.775  0.00  0.00    +0.000 C 
ATOM     10  S   UNL     1       2.401  15.448  22.209  0.00  0.00    +0.000 S 
ATOM     11  N   UNL     1       2.550  15.197  19.560  0.00  0.00    +0.000 N 
ATOM     12  C   UNL     1       2.498  14.395  18.450  0.00  0.00    +0.000 C 
ATOM     13  O   UNL     1       2.675  14.785  17.304  0.00  0.00    +0.000 OA
ATOM     14  H   UNL     1       2.742  16.181  19.465  0.00  0.00    +0.000 HD
ENDBRANCH   5   6
BRANCH   1  18
ATOM     15  C   UNL     1      -3.126  11.449  17.936  0.00  0.00    +0.000 A 
ATOM     16  C   UNL     1      -2.430  10.512  17.174  0.00  0.00    +0.000 A 
ATOM     17  C   UNL     1      -1.156  10.082  17.555  0.00  0.00    +0.000 A 
ATOM     18  C   UNL     1      -0.543  10.604  18.703  0.00  0.00    +0.000 A 
ATOM     19  C   UNL     1      -1.252  11.549  19.466  0.00  0.00    +0.000 A 
ATOM     20  C   UNL     1      -2.529  11.976  19.080  0.00  0.00    +0.000 A 
BRANCH  15  22
ATOM     21  C   UNL     1      -5.468  11.165  18.127  0.00  0.00    +0.000 C 
ATOM     22  O   UNL     1      -4.367  11.777  17.464  0.00  0.00    +0.000 OA
ENDBRANCH  15  22
ENDBRANCH   1  18
BRANCH   3  23
ATOM     23  C   UNL     1       2.934   7.252  17.945  0.00  0.00    +0.000 A 
ATOM     24  C   UNL     1       4.167   7.230  17.293  0.00  0.00    +0.000 A 
ATOM     25  C   UNL     1       4.752   6.007  16.959  0.00  0.00    +0.000 A 
ATOM     26  C   UNL     1       4.102   4.820  17.284  0.00  0.00    +0.000 A 
ATOM     27  C   UNL     1       2.885   4.838  17.962  0.00  0.00    +0.000 A 
ATOM     28  C   UNL     1       2.300   6.059  18.303  0.00  0.00    +0.000 A 
ENDBRANCH   3  23
TORSDOF 4
ENDMDL
MODEL 9
REMARK VINA RESULT:      -6.6      3.151      6.626
REMARK  Name = 
REMARK  5 active torsions:
REMARK  status: ('A' for Active; 'I' for Inactive)
REMARK    1  A    between atoms: C_1  and  O_2
REMARK    2  A    between atoms: O_2  and  C_3
REMARK    3  A    between atoms: C_6  and  C_7
REMARK    4  A    between atoms: C_9  and  C_10
REMARK    5  A    between atoms: N_17  and  C_18
REMARK                            x       y       z     vdW  Elec       q    Type
REMARK                         _______ _______ _______ _____ _____    ______ ____
ROOT
ATOM      1  C   UNL     1      -0.599  11.589  22.155  0.00  0.00    +0.000 C 
ATOM      2  C   UNL     1      -0.494  10.204  21.520  0.00  0.00    +0.000 C 
ATOM      3  C   UNL     1       0.631  10.447  20.557  0.00  0.00    +0.000 C 
ATOM      4  N   UNL     1       1.045  11.666  20.482  0.00  0.00    +0.000 NA
ATOM      5  N   UNL     1       0.311  12.416  21.347  0.00  0.00    +0.000 N 
ENDROOT
BRANCH   5   6
ATOM      6  C   UNL     1       0.615  13.743  21.578  0.00  0.00    +0.000 C 
ATOM      7  C   UNL     1       0.498  14.805  20.767  0.00  0.00    +0.000 C 
ATOM      8  S   UNL     1      -0.221  14.853  19.194  0.00  0.00    +0.000 S 
ATOM      9  C   UNL     1      -0.040  16.582  19.072  0.00  0.00    +0.000 C 
ATOM     10  S   UNL     1      -0.541  17.535  17.815  0.00  0.00    +0.000 S 
ATOM     11  N   UNL     1       0.587  17.060  20.181  0.00  0.00    +0.000 N 
ATOM     12  C   UNL     1       0.922  16.169  21.168  0.00  0.00    +0.000 C 
ATOM     13  O   UNL     1       1.484  16.469  22.211  0.00  0.00    +0.000 OA
ATOM     14  H   UNL     1       0.806  18.037  20.287  0.00  0.00    +0.000 HD
ENDBRANCH   5   6
BRANCH   1  18
ATOM     15  C   UNL     1      -4.650  13.152  22.082  0.00  0.00    +0.000 A 
ATOM     16  C   UNL     1      -3.930  12.978  20.901  0.00  0.00    +0.000 A 
ATOM     17  C   UNL     1      -2.629  12.467  20.924  0.00  0.00    +0.000 A 
ATOM     18  C   UNL     1      -2.014  12.141  22.141  0.00  0.00    +0.000 A 
ATOM     19  C   UNL     1      -2.748  12.320  23.327  0.00  0.00    +0.000 A 
ATOM     20  C   UNL     1      -4.052  12.831  23.299  0.00  0.00    +0.000 A 
BRANCH  15  22
ATOM     21  C   UNL     1      -6.429  13.632  20.596  0.00  0.00    +0.000 C 
ATOM     22  O   UNL     1      -5.915  13.646  21.924  0.00  0.00    +0.000 OA
ENDBRANCH  15  22
ENDBRANCH   1  18
BRANCH   3  23
ATOM     23  C   UNL     1       1.228   9.349  19.777  0.00  0.00    +0.000 A 
ATOM     24  C   UNL     1       1.586   8.159  20.412  0.00  0.00    +0.000 A 
ATOM     25  C   UNL     1       2.249   7.162  19.691  0.00  0.00    +0.000 A 
ATOM     26  C   UNL     1       2.542   7.364  18.345  0.00  0.00    +0.000 A 
ATOM     27  C   UNL     1       2.159   8.539  17.702  0.00  0.00    +0.000 A 
ATOM     28  C   UNL     1       1.490   9.534  18.417  0.00  0.00    +0.000 A 
ENDBRANCH   3  23
TORSDOF 4
ENDMDL
