MODEL 1
REMARK VINA RESULT:      -8.3      0.000      0.000
REMARK  Name = 
REMARK  6 active torsions:
REMARK  status: ('A' for Active; 'I' for Inactive)
REMARK    1  A    between atoms: C_2  and  C_26
REMARK    2  A    between atoms: N_3  and  C_4
REMARK    3  A    between atoms: C_8  and  C_9
REMARK    4  A    between atoms: C_9  and  N_10
REMARK    5  A    between atoms: C_13  and  C_14
REMARK    6  A    between atoms: N_16  and  C_17
REMARK                            x       y       z     vdW  Elec       q    Type
REMARK                         _______ _______ _______ _____ _____    ______ ____
ROOT
ATOM      1  C   UNL     1       2.335   7.295  20.054  0.00  0.00    +0.000 C 
ENDROOT
BRANCH   1   6
ATOM      2  C   UNL     1      -0.157  10.211  20.566  0.00  0.00    +0.000 A 
ATOM      3  C   UNL     1      -0.149  10.738  19.270  0.00  0.00    +0.000 A 
ATOM      4  C   UNL     1       0.656  10.208  18.266  0.00  0.00    +0.000 A 
ATOM      5  C   UNL     1       1.464   9.109  18.535  0.00  0.00    +0.000 A 
ATOM      6  C   UNL     1       1.454   8.515  19.805  0.00  0.00    +0.000 A 
ATOM      7  C   UNL     1       0.629   9.081  20.818  0.00  0.00    +0.000 A 
BRANCH   2  10
ATOM      8  O   UNL     1       0.348  12.676  21.951  0.00  0.00    +0.000 OA
ATOM      9  C   UNL     1      -0.690  12.040  22.159  0.00  0.00    +0.000 C 
ATOM     10  N   UNL     1      -0.957  10.789  21.603  0.00  0.00    +0.000 N 
ATOM     11  H   UNL     1      -1.652  10.196  22.038  0.00  0.00    +0.000 HD
BRANCH   9  12
ATOM     12  C   UNL     1      -1.663  12.685  23.089  0.00  0.00    +0.000 A 
ATOM     13  C   UNL     1      -2.930  12.193  23.391  0.00  0.00    +0.000 A 
ATOM     14  C   UNL     1      -3.766  12.994  24.164  0.00  0.00    +0.000 A 
ATOM     15  N   UNL     1      -3.429  14.214  24.645  0.00  0.00    +0.000 NA
ATOM     16  C   UNL     1      -2.198  14.664  24.347  0.00  0.00    +0.000 A 
ATOM     17  C   UNL     1      -1.294  13.944  23.593  0.00  0.00    +0.000 A 
ENDBRANCH   9  12
ENDBRANCH   2  10
ENDBRANCH   1   6
BRANCH   1  18
ATOM     18  N   UNL     1       1.808   5.980  19.629  0.00  0.00    +0.000 NA
ATOM     19  C   UNL     1       2.068   5.718  18.214  0.00  0.00    +0.000 C 
ATOM     20  C   UNL     1       1.505   4.374  17.749  0.00  0.00    +0.000 C 
ATOM     21  C   UNL     1       2.000   3.210  18.614  0.00  0.00    +0.000 C 
ATOM     22  C   UNL     1       1.675   3.515  20.077  0.00  0.00    +0.000 C 
ATOM     23  C   UNL     1       2.200   4.886  20.520  0.00  0.00    +0.000 C 
BRANCH  21  24
ATOM     24  C   UNL     1       3.482   2.880  18.370  0.00  0.00    +0.000 C 
ATOM     25  O   UNL     1       4.078   2.003  18.985  0.00  0.00    +0.000 OA
ATOM     26  N   UNL     1       4.112   3.720  17.465  0.00  0.00    +0.000 N 
ATOM     27  H   UNL     1       3.572   4.410  16.966  0.00  0.00    +0.000 HD
BRANCH  26  28
ATOM     28  C   UNL     1       5.537   3.604  17.167  0.00  0.00    +0.000 C 
ATOM     29  C   UNL     1       5.827   3.837  15.675  0.00  0.00    +0.000 C 
ATOM     30  C   UNL     1       5.910   5.311  15.281  0.00  0.00    +0.000 C 
ATOM     31  C   UNL     1       6.896   6.062  16.167  0.00  0.00    +0.000 C 
ATOM     32  C   UNL     1       6.469   5.968  17.626  0.00  0.00    +0.000 C 
ATOM     33  C   UNL     1       6.372   4.512  18.087  0.00  0.00    +0.000 C 
ENDBRANCH  26  28
ENDBRANCH  21  24
ENDBRANCH   1  18
TORSDOF 6
ENDMDL
MODEL 2
REMARK VINA RESULT:      -8.2      1.761      2.372
REMARK  Name = 
REMARK  6 active torsions:
REMARK  status: ('A' for Active; 'I' for Inactive)
REMARK    1  A    between atoms: C_2  and  C_26
REMARK    2  A    between atoms: N_3  and  C_4
REMARK    3  A    between atoms: C_8  and  C_9
REMARK    4  A    between atoms: C_9  and  N_10
REMARK    5  A    between atoms: C_13  and  C_14
REMARK    6  A    between atoms: N_16  and  C_17
REMARK                            x       y       z     vdW  Elec       q    Type
REMARK                         _______ _______ _______ _____ _____    ______ ____
ROOT
ATOM      1  C   UNL     1       2.020   5.611  20.718  0.00  0.00    +0.000 C 
ENDROOT
BRANCH   1   6
ATOM      2  C   UNL     1       1.371   9.267  19.631  0.00  0.00    +0.000 A 
ATOM      3  C   UNL     1       1.953   9.226  18.359  0.00  0.00    +0.000 A 
ATOM      4  C   UNL     1       2.573   8.078  17.872  0.00  0.00    +0.000 A 
ATOM      5  C   UNL     1       2.601   6.925  18.648  0.00  0.00    +0.000 A 
ATOM      6  C   UNL     1       1.989   6.902  19.908  0.00  0.00    +0.000 A 
ATOM      7  C   UNL     1       1.371   8.091  20.389  0.00  0.00    +0.000 A 
BRANCH   2  10
ATOM      8  O   UNL     1      -1.310  10.181  19.160  0.00  0.00    +0.000 OA
ATOM      9  C   UNL     1      -0.568  10.786  19.941  0.00  0.00    +0.000 C 
ATOM     10  N   UNL     1       0.774  10.464  20.142  0.00  0.00    +0.000 N 
ATOM     11  H   UNL     1       1.392  11.159  20.539  0.00  0.00    +0.000 HD
BRANCH   9  12
ATOM     12  C   UNL     1      -1.193  11.936  20.659  0.00  0.00    +0.000 A 
ATOM     13  C   UNL     1      -2.184  12.764  20.138  0.00  0.00    +0.000 A 
ATOM     14  C   UNL     1      -2.551  13.880  20.887  0.00  0.00    +0.000 A 
ATOM     15  N   UNL     1      -2.014  14.210  22.084  0.00  0.00    +0.000 NA
ATOM     16  C   UNL     1      -1.064  13.392  22.570  0.00  0.00    +0.000 A 
ATOM     17  C   UNL     1      -0.635  12.259  21.908  0.00  0.00    +0.000 A 
ENDBRANCH   9  12
ENDBRANCH   2  10
ENDBRANCH   1   6
BRANCH   1  18
ATOM     18  N   UNL     1       2.236   4.349  19.975  0.00  0.00    +0.000 NA
ATOM     19  C   UNL     1       1.759   4.440  18.595  0.00  0.00    +0.000 C 
ATOM     20  C   UNL     1       1.947   3.135  17.820  0.00  0.00    +0.000 C 
ATOM     21  C   UNL     1       3.398   2.644  17.859  0.00  0.00    +0.000 C 
ATOM     22  C   UNL     1       3.838   2.534  19.319  0.00  0.00    +0.000 C 
ATOM     23  C   UNL     1       3.599   3.831  20.103  0.00  0.00    +0.000 C 
BRANCH  21  24
ATOM     24  C   UNL     1       4.338   3.506  16.998  0.00  0.00    +0.000 C 
ATOM     25  O   UNL     1       4.034   3.905  15.879  0.00  0.00    +0.000 OA
ATOM     26  N   UNL     1       5.590   3.714  17.552  0.00  0.00    +0.000 N 
ATOM     27  H   UNL     1       5.782   3.387  18.487  0.00  0.00    +0.000 HD
BRANCH  26  28
ATOM     28  C   UNL     1       6.637   4.444  16.843  0.00  0.00    +0.000 C 
ATOM     29  C   UNL     1       6.114   5.767  16.261  0.00  0.00    +0.000 C 
ATOM     30  C   UNL     1       6.063   6.913  17.272  0.00  0.00    +0.000 C 
ATOM     31  C   UNL     1       7.408   7.097  17.962  0.00  0.00    +0.000 C 
ATOM     32  C   UNL     1       7.806   5.819  18.689  0.00  0.00    +0.000 C 
ATOM     33  C   UNL     1       7.882   4.630  17.730  0.00  0.00    +0.000 C 
ENDBRANCH  26  28
ENDBRANCH  21  24
ENDBRANCH   1  18
TORSDOF 6
ENDMDL
MODEL 3
REMARK VINA RESULT:      -8.1      0.699      1.110
REMARK  Name = 
REMARK  6 active torsions:
REMARK  status: ('A' for Active; 'I' for Inactive)
REMARK    1  A    between atoms: C_2  and  C_26
REMARK    2  A    between atoms: N_3  and  C_4
REMARK    3  A    between atoms: C_8  and  C_9
REMARK    4  A    between atoms: C_9  and  N_10
REMARK    5  A    between atoms: C_13  and  C_14
REMARK    6  A    between atoms: N_16  and  C_17
REMARK                            x       y       z     vdW  Elec       q    Type
REMARK                         _______ _______ _______ _____ _____    ______ ____
ROOT
ATOM      1  C   UNL     1       2.356   6.459  20.462  0.00  0.00    +0.000 C 
ENDROOT
BRANCH   1   6
ATOM      2  C   UNL     1       0.244   9.701  20.466  0.00  0.00    +0.000 A 
ATOM      3  C   UNL     1       0.456  10.104  19.142  0.00  0.00    +0.000 A 
ATOM      4  C   UNL     1       1.282   9.388  18.281  0.00  0.00    +0.000 A 
ATOM      5  C   UNL     1       1.901   8.224  18.722  0.00  0.00    +0.000 A 
ATOM      6  C   UNL     1       1.679   7.752  20.023  0.00  0.00    +0.000 A 
ATOM      7  C   UNL     1       0.839   8.507  20.890  0.00  0.00    +0.000 A 
BRANCH   2  10
ATOM      8  O   UNL     1       0.936  12.191  21.717  0.00  0.00    +0.000 OA
ATOM      9  C   UNL     1      -0.196  11.715  21.849  0.00  0.00    +0.000 C 
ATOM     10  N   UNL     1      -0.573  10.465  21.358  0.00  0.00    +0.000 N 
ATOM     11  H   UNL     1      -1.386  10.007  21.751  0.00  0.00    +0.000 HD
BRANCH   9  12
ATOM     12  C   UNL     1      -1.163  12.559  22.611  0.00  0.00    +0.000 A 
ATOM     13  C   UNL     1      -0.899  13.834  23.104  0.00  0.00    +0.000 A 
ATOM     14  C   UNL     1      -1.863  14.423  23.918  0.00  0.00    +0.000 A 
ATOM     15  N   UNL     1      -3.038  13.843  24.259  0.00  0.00    +0.000 NA
ATOM     16  C   UNL     1      -3.274  12.615  23.765  0.00  0.00    +0.000 A 
ATOM     17  C   UNL     1      -2.385  11.949  22.945  0.00  0.00    +0.000 A 
ENDBRANCH   9  12
ENDBRANCH   2  10
ENDBRANCH   1   6
BRANCH   1  18
ATOM     18  N   UNL     1       1.820   5.193  19.915  0.00  0.00    +0.000 NA
ATOM     19  C   UNL     1       1.849   5.174  18.452  0.00  0.00    +0.000 C 
ATOM     20  C   UNL     1       1.271   3.885  17.868  0.00  0.00    +0.000 C 
ATOM     21  C   UNL     1       1.952   2.636  18.438  0.00  0.00    +0.000 C 
ATOM     22  C   UNL     1       1.866   2.686  19.964  0.00  0.00    +0.000 C 
ATOM     23  C   UNL     1       2.401   4.003  20.539  0.00  0.00    +0.000 C 
BRANCH  21  24
ATOM     24  C   UNL     1       3.385   2.450  17.909  0.00  0.00    +0.000 C 
ATOM     25  O   UNL     1       4.029   1.423  18.084  0.00  0.00    +0.000 OA
ATOM     26  N   UNL     1       3.918   3.575  17.300  0.00  0.00    +0.000 N 
ATOM     27  H   UNL     1       3.338   4.387  17.158  0.00  0.00    +0.000 HD
BRANCH  26  28
ATOM     28  C   UNL     1       5.293   3.607  16.806  0.00  0.00    +0.000 C 
ATOM     29  C   UNL     1       5.389   4.300  15.438  0.00  0.00    +0.000 C 
ATOM     30  C   UNL     1       5.429   5.826  15.516  0.00  0.00    +0.000 C 
ATOM     31  C   UNL     1       6.525   6.299  16.462  0.00  0.00    +0.000 C 
ATOM     32  C   UNL     1       6.290   5.743  17.860  0.00  0.00    +0.000 C 
ATOM     33  C   UNL     1       6.244   4.214  17.853  0.00  0.00    +0.000 C 
ENDBRANCH  26  28
ENDBRANCH  21  24
ENDBRANCH   1  18
TORSDOF 6
ENDMDL
MODEL 4
REMARK VINA RESULT:      -7.9      1.707      2.358
REMARK  Name = 
REMARK  6 active torsions:
REMARK  status: ('A' for Active; 'I' for Inactive)
REMARK    1  A    between atoms: C_2  and  C_26
REMARK    2  A    between atoms: N_3  and  C_4
REMARK    3  A    between atoms: C_8  and  C_9
REMARK    4  A    between atoms: C_9  and  N_10
REMARK    5  A    between atoms: C_13  and  C_14
REMARK    6  A    between atoms: N_16  and  C_17
REMARK                            x       y       z     vdW  Elec       q    Type
REMARK                         _______ _______ _______ _____ _____    ______ ____
ROOT
ATOM      1  C   UNL     1       2.034   5.775  20.607  0.00  0.00    +0.000 C 
ENDROOT
BRANCH   1   6
ATOM      2  C   UNL     1       1.165   9.339  19.378  0.00  0.00    +0.000 A 
ATOM      3  C   UNL     1       1.931   9.362  18.208  0.00  0.00    +0.000 A 
ATOM      4  C   UNL     1       2.737   8.289  17.837  0.00  0.00    +0.000 A 
ATOM      5  C   UNL     1       2.773   7.146  18.625  0.00  0.00    +0.000 A 
ATOM      6  C   UNL     1       1.985   7.055  19.781  0.00  0.00    +0.000 A 
ATOM      7  C   UNL     1       1.177   8.169  20.146  0.00  0.00    +0.000 A 
BRANCH   2  10
ATOM      8  O   UNL     1       1.277  10.715  21.897  0.00  0.00    +0.000 OA
ATOM      9  C   UNL     1       0.556  11.132  20.985  0.00  0.00    +0.000 C 
ATOM     10  N   UNL     1       0.371  10.463  19.775  0.00  0.00    +0.000 N 
ATOM     11  H   UNL     1      -0.441  10.680  19.212  0.00  0.00    +0.000 HD
BRANCH   9  12
ATOM     12  C   UNL     1      -0.155  12.415  21.263  0.00  0.00    +0.000 A 
ATOM     13  C   UNL     1      -0.816  12.724  22.448  0.00  0.00    +0.000 A 
ATOM     14  C   UNL     1      -1.552  13.906  22.488  0.00  0.00    +0.000 A 
ATOM     15  N   UNL     1      -1.663  14.774  21.455  0.00  0.00    +0.000 NA
ATOM     16  C   UNL     1      -1.010  14.458  20.323  0.00  0.00    +0.000 A 
ATOM     17  C   UNL     1      -0.251  13.313  20.186  0.00  0.00    +0.000 A 
ENDBRANCH   9  12
ENDBRANCH   2  10
ENDBRANCH   1   6
BRANCH   1  18
ATOM     18  N   UNL     1       2.256   4.506  19.879  0.00  0.00    +0.000 NA
ATOM     19  C   UNL     1       1.839   4.599  18.480  0.00  0.00    +0.000 C 
ATOM     20  C   UNL     1       2.035   3.288  17.718  0.00  0.00    +0.000 C 
ATOM     21  C   UNL     1       3.474   2.769  17.819  0.00  0.00    +0.000 C 
ATOM     22  C   UNL     1       3.850   2.658  19.297  0.00  0.00    +0.000 C 
ATOM     23  C   UNL     1       3.603   3.963  20.065  0.00  0.00    +0.000 C 
BRANCH  21  24
ATOM     24  C   UNL     1       4.464   3.609  16.995  0.00  0.00    +0.000 C 
ATOM     25  O   UNL     1       4.214   4.012  15.865  0.00  0.00    +0.000 OA
ATOM     26  N   UNL     1       5.698   3.792  17.599  0.00  0.00    +0.000 N 
ATOM     27  H   UNL     1       5.846   3.463  18.540  0.00  0.00    +0.000 HD
BRANCH  26  28
ATOM     28  C   UNL     1       6.788   4.498  16.930  0.00  0.00    +0.000 C 
ATOM     29  C   UNL     1       6.316   5.830  16.325  0.00  0.00    +0.000 C 
ATOM     30  C   UNL     1       6.248   6.979  17.330  0.00  0.00    +0.000 C 
ATOM     31  C   UNL     1       7.567   7.138  18.074  0.00  0.00    +0.000 C 
ATOM     32  C   UNL     1       7.909   5.855  18.819  0.00  0.00    +0.000 C 
ATOM     33  C   UNL     1       7.999   4.662  17.866  0.00  0.00    +0.000 C 
ENDBRANCH  26  28
ENDBRANCH  21  24
ENDBRANCH   1  18
TORSDOF 6
ENDMDL
MODEL 5
REMARK VINA RESULT:      -7.9      1.705      2.513
REMARK  Name = 
REMARK  6 active torsions:
REMARK  status: ('A' for Active; 'I' for Inactive)
REMARK    1  A    between atoms: C_2  and  C_26
REMARK    2  A    between atoms: N_3  and  C_4
REMARK    3  A    between atoms: C_8  and  C_9
REMARK    4  A    between atoms: C_9  and  N_10
REMARK    5  A    between atoms: C_13  and  C_14
REMARK    6  A    between atoms: N_16  and  C_17
REMARK                            x       y       z     vdW  Elec       q    Type
REMARK                         _______ _______ _______ _____ _____    ______ ____
ROOT
ATOM      1  C   UNL     1       1.439   4.732  21.022  0.00  0.00    +0.000 C 
ENDROOT
BRANCH   1   6
ATOM      2  C   UNL     1       1.318   8.523  20.255  0.00  0.00    +0.000 A 
ATOM      3  C   UNL     1       2.013   8.524  19.040  0.00  0.00    +0.000 A 
ATOM      4  C   UNL     1       2.542   7.358  18.496  0.00  0.00    +0.000 A 
ATOM      5  C   UNL     1       2.364   6.145  19.151  0.00  0.00    +0.000 A 
ATOM      6  C   UNL     1       1.633   6.085  20.345  0.00  0.00    +0.000 A 
ATOM      7  C   UNL     1       1.110   7.292  20.888  0.00  0.00    +0.000 A 
BRANCH   2  10
ATOM      8  O   UNL     1      -0.993   9.996  19.394  0.00  0.00    +0.000 OA
ATOM      9  C   UNL     1      -0.373  10.334  20.408  0.00  0.00    +0.000 C 
ATOM     10  N   UNL     1       0.813   9.733  20.829  0.00  0.00    +0.000 N 
ATOM     11  H   UNL     1       1.421  10.235  21.463  0.00  0.00    +0.000 HD
BRANCH   9  12
ATOM     12  C   UNL     1      -0.961  11.477  21.168  0.00  0.00    +0.000 A 
ATOM     13  C   UNL     1      -0.854  11.663  22.544  0.00  0.00    +0.000 A 
ATOM     14  C   UNL     1      -1.586  12.703  23.112  0.00  0.00    +0.000 A 
ATOM     15  N   UNL     1      -2.388  13.545  22.419  0.00  0.00    +0.000 NA
ATOM     16  C   UNL     1      -2.469  13.350  21.091  0.00  0.00    +0.000 A 
ATOM     17  C   UNL     1      -1.780  12.351  20.433  0.00  0.00    +0.000 A 
ENDBRANCH   9  12
ENDBRANCH   2  10
ENDBRANCH   1   6
BRANCH   1  18
ATOM     18  N   UNL     1       1.990   3.544  20.333  0.00  0.00    +0.000 NA
ATOM     19  C   UNL     1       1.397   3.355  19.010  0.00  0.00    +0.000 C 
ATOM     20  C   UNL     1       1.935   2.115  18.294  0.00  0.00    +0.000 C 
ATOM     21  C   UNL     1       3.464   2.117  18.205  0.00  0.00    +0.000 C 
ATOM     22  C   UNL     1       4.035   2.283  19.614  0.00  0.00    +0.000 C 
ATOM     23  C   UNL     1       3.454   3.500  20.343  0.00  0.00    +0.000 C 
BRANCH  21  24
ATOM     24  C   UNL     1       3.997   3.152  17.201  0.00  0.00    +0.000 C 
ATOM     25  O   UNL     1       3.320   3.594  16.280  0.00  0.00    +0.000 OA
ATOM     26  N   UNL     1       5.335   3.473  17.367  0.00  0.00    +0.000 N 
ATOM     27  H   UNL     1       5.842   3.102  18.155  0.00  0.00    +0.000 HD
BRANCH  26  28
ATOM     28  C   UNL     1       6.031   4.381  16.458  0.00  0.00    +0.000 C 
ATOM     29  C   UNL     1       5.271   5.706  16.287  0.00  0.00    +0.000 C 
ATOM     30  C   UNL     1       5.519   6.713  17.410  0.00  0.00    +0.000 C 
ATOM     31  C   UNL     1       7.009   6.944  17.622  0.00  0.00    +0.000 C 
ATOM     32  C   UNL     1       7.700   5.634  17.977  0.00  0.00    +0.000 C 
ATOM     33  C   UNL     1       7.495   4.581  16.887  0.00  0.00    +0.000 C 
ENDBRANCH  26  28
ENDBRANCH  21  24
ENDBRANCH   1  18
TORSDOF 6
ENDMDL
MODEL 6
REMARK VINA RESULT:      -7.9      2.906      4.480
REMARK  Name = 
REMARK  6 active torsions:
REMARK  status: ('A' for Active; 'I' for Inactive)
REMARK    1  A    between atoms: C_2  and  C_26
REMARK    2  A    between atoms: N_3  and  C_4
REMARK    3  A    between atoms: C_8  and  C_9
REMARK    4  A    between atoms: C_9  and  N_10
REMARK    5  A    between atoms: C_13  and  C_14
REMARK    6  A    between atoms: N_16  and  C_17
REMARK                            x       y       z     vdW  Elec       q    Type
REMARK                         _______ _______ _______ _____ _____    ______ ____
ROOT
ATOM      1  C   UNL     1       3.654   7.044  17.332  0.00  0.00    +0.000 C 
ENDROOT
BRANCH   1   6
ATOM      2  C   UNL     1       1.479   8.543  20.159  0.00  0.00    +0.000 A 
ATOM      3  C   UNL     1       1.240   7.377  20.896  0.00  0.00    +0.000 A 
ATOM      4  C   UNL     1       1.722   6.137  20.485  0.00  0.00    +0.000 A 
ATOM      5  C   UNL     1       2.486   6.041  19.328  0.00  0.00    +0.000 A 
ATOM      6  C   UNL     1       2.794   7.187  18.583  0.00  0.00    +0.000 A 
ATOM      7  C   UNL     1       2.281   8.442  19.017  0.00  0.00    +0.000 A 
BRANCH   2  10
ATOM      8  O   UNL     1      -0.978   9.733  19.267  0.00  0.00    +0.000 OA
ATOM      9  C   UNL     1      -0.306  10.269  20.154  0.00  0.00    +0.000 C 
ATOM     10  N   UNL     1       0.943   9.807  20.566  0.00  0.00    +0.000 N 
ATOM     11  H   UNL     1       1.565  10.439  21.054  0.00  0.00    +0.000 HD
BRANCH   9  12
ATOM     12  C   UNL     1      -0.905  11.494  20.761  0.00  0.00    +0.000 A 
ATOM     13  C   UNL     1      -1.505  12.530  20.051  0.00  0.00    +0.000 A 
ATOM     14  C   UNL     1      -1.881  13.666  20.762  0.00  0.00    +0.000 A 
ATOM     15  N   UNL     1      -1.708  13.830  22.094  0.00  0.00    +0.000 NA
ATOM     16  C   UNL     1      -1.133  12.813  22.760  0.00  0.00    +0.000 A 
ATOM     17  C   UNL     1      -0.730  11.644  22.148  0.00  0.00    +0.000 A 
ENDBRANCH   9  12
ENDBRANCH   2  10
ENDBRANCH   1   6
BRANCH   1  18
ATOM     18  N   UNL     1       4.709   6.006  17.350  0.00  0.00    +0.000 NA
ATOM     19  C   UNL     1       4.349   4.848  16.531  0.00  0.00    +0.000 C 
ATOM     20  C   UNL     1       5.415   3.751  16.561  0.00  0.00    +0.000 C 
ATOM     21  C   UNL     1       6.799   4.280  16.171  0.00  0.00    +0.000 C 
ATOM     22  C   UNL     1       7.142   5.465  17.075  0.00  0.00    +0.000 C 
ATOM     23  C   UNL     1       6.046   6.537  17.079  0.00  0.00    +0.000 C 
BRANCH  21  24
ATOM     24  C   UNL     1       6.909   4.601  14.671  0.00  0.00    +0.000 C 
ATOM     25  O   UNL     1       7.506   5.582  14.243  0.00  0.00    +0.000 OA
ATOM     26  N   UNL     1       6.198   3.740  13.850  0.00  0.00    +0.000 N 
ATOM     27  H   UNL     1       5.744   2.933  14.248  0.00  0.00    +0.000 HD
BRANCH  26  28
ATOM     28  C   UNL     1       6.125   3.936  12.404  0.00  0.00    +0.000 C 
ATOM     29  C   UNL     1       7.475   3.660  11.724  0.00  0.00    +0.000 C 
ATOM     30  C   UNL     1       7.748   2.179  11.464  0.00  0.00    +0.000 C 
ATOM     31  C   UNL     1       6.596   1.532  10.706  0.00  0.00    +0.000 C 
ATOM     32  C   UNL     1       5.305   1.660  11.502  0.00  0.00    +0.000 C 
ATOM     33  C   UNL     1       4.969   3.124  11.792  0.00  0.00    +0.000 C 
ENDBRANCH  26  28
ENDBRANCH  21  24
ENDBRANCH   1  18
TORSDOF 6
ENDMDL
MODEL 7
REMARK VINA RESULT:      -7.9      1.824      2.541
REMARK  Name = 
REMARK  6 active torsions:
REMARK  status: ('A' for Active; 'I' for Inactive)
REMARK    1  A    between atoms: C_2  and  C_26
REMARK    2  A    between atoms: N_3  and  C_4
REMARK    3  A    between atoms: C_8  and  C_9
REMARK    4  A    between atoms: C_9  and  N_10
REMARK    5  A    between atoms: C_13  and  C_14
REMARK    6  A    between atoms: N_16  and  C_17
REMARK                            x       y       z     vdW  Elec       q    Type
REMARK                         _______ _______ _______ _____ _____    ______ ____
ROOT
ATOM      1  C   UNL     1       1.749   5.874  21.242  0.00  0.00    +0.000 C 
ENDROOT
BRANCH   1   6
ATOM      2  C   UNL     1       1.306   9.328  19.553  0.00  0.00    +0.000 A 
ATOM      3  C   UNL     1       1.889   9.043  18.313  0.00  0.00    +0.000 A 
ATOM      4  C   UNL     1       2.446   7.799  18.032  0.00  0.00    +0.000 A 
ATOM      5  C   UNL     1       2.409   6.792  18.989  0.00  0.00    +0.000 A 
ATOM      6  C   UNL     1       1.791   7.012  20.228  0.00  0.00    +0.000 A 
ATOM      7  C   UNL     1       1.238   8.296  20.496  0.00  0.00    +0.000 A 
BRANCH   2  10
ATOM      8  O   UNL     1      -1.362  10.247  19.022  0.00  0.00    +0.000 OA
ATOM      9  C   UNL     1      -0.565  10.957  19.643  0.00  0.00    +0.000 C 
ATOM     10  N   UNL     1       0.773  10.623  19.849  0.00  0.00    +0.000 N 
ATOM     11  H   UNL     1       1.433  11.354  20.082  0.00  0.00    +0.000 HD
BRANCH   9  12
ATOM     12  C   UNL     1      -1.116  12.247  20.153  0.00  0.00    +0.000 A 
ATOM     13  C   UNL     1      -0.867  13.500  19.600  0.00  0.00    +0.000 A 
ATOM     14  C   UNL     1      -1.341  14.615  20.287  0.00  0.00    +0.000 A 
ATOM     15  N   UNL     1      -2.030  14.562  21.451  0.00  0.00    +0.000 NA
ATOM     16  C   UNL     1      -2.266  13.341  21.962  0.00  0.00    +0.000 A 
ATOM     17  C   UNL     1      -1.843  12.176  21.355  0.00  0.00    +0.000 A 
ENDBRANCH   9  12
ENDBRANCH   2  10
ENDBRANCH   1   6
BRANCH   1  18
ATOM     18  N   UNL     1       1.938   4.500  20.728  0.00  0.00    +0.000 NA
ATOM     19  C   UNL     1       1.026   4.199  19.624  0.00  0.00    +0.000 C 
ATOM     20  C   UNL     1       1.187   2.772  19.098  0.00  0.00    +0.000 C 
ATOM     21  C   UNL     1       2.635   2.463  18.702  0.00  0.00    +0.000 C 
ATOM     22  C   UNL     1       3.543   2.761  19.896  0.00  0.00    +0.000 C 
ATOM     23  C   UNL     1       3.338   4.177  20.449  0.00  0.00    +0.000 C 
BRANCH  21  24
ATOM     24  C   UNL     1       3.061   3.183  17.411  0.00  0.00    +0.000 C 
ATOM     25  O   UNL     1       2.349   3.239  16.416  0.00  0.00    +0.000 OA
ATOM     26  N   UNL     1       4.355   3.680  17.436  0.00  0.00    +0.000 N 
ATOM     27  H   UNL     1       4.892   3.631  18.288  0.00  0.00    +0.000 HD
BRANCH  26  28
ATOM     28  C   UNL     1       4.956   4.327  16.272  0.00  0.00    +0.000 C 
ATOM     29  C   UNL     1       4.803   5.855  16.328  0.00  0.00    +0.000 C 
ATOM     30  C   UNL     1       5.849   6.551  17.199  0.00  0.00    +0.000 C 
ATOM     31  C   UNL     1       7.259   6.144  16.796  0.00  0.00    +0.000 C 
ATOM     32  C   UNL     1       7.432   4.637  16.934  0.00  0.00    +0.000 C 
ATOM     33  C   UNL     1       6.415   3.877  16.080  0.00  0.00    +0.000 C 
ENDBRANCH  26  28
ENDBRANCH  21  24
ENDBRANCH   1  18
TORSDOF 6
ENDMDL
MODEL 8
REMARK VINA RESULT:      -7.7      2.854      4.441
REMARK  Name = 
REMARK  6 active torsions:
REMARK  status: ('A' for Active; 'I' for Inactive)
REMARK    1  A    between atoms: C_2  and  C_26
REMARK    2  A    between atoms: N_3  and  C_4
REMARK    3  A    between atoms: C_8  and  C_9
REMARK    4  A    between atoms: C_9  and  N_10
REMARK    5  A    between atoms: C_13  and  C_14
REMARK    6  A    between atoms: N_16  and  C_17
REMARK                            x       y       z     vdW  Elec       q    Type
REMARK                         _______ _______ _______ _____ _____    ______ ____
ROOT
ATOM      1  C   UNL     1       3.915   7.212  17.506  0.00  0.00    +0.000 C 
ENDROOT
BRANCH   1   6
ATOM      2  C   UNL     1       1.200   8.436  19.977  0.00  0.00    +0.000 A 
ATOM      3  C   UNL     1       1.170   7.332  20.837  0.00  0.00    +0.000 A 
ATOM      4  C   UNL     1       1.962   6.209  20.617  0.00  0.00    +0.000 A 
ATOM      5  C   UNL     1       2.830   6.176  19.532  0.00  0.00    +0.000 A 
ATOM      6  C   UNL     1       2.933   7.277  18.671  0.00  0.00    +0.000 A 
ATOM      7  C   UNL     1       2.106   8.410  18.910  0.00  0.00    +0.000 A 
BRANCH   2  10
ATOM      8  O   UNL     1       1.390  10.350  22.110  0.00  0.00    +0.000 OA
ATOM      9  C   UNL     1       0.573  10.506  21.198  0.00  0.00    +0.000 C 
ATOM     10  N   UNL     1       0.353   9.571  20.187  0.00  0.00    +0.000 N 
ATOM     11  H   UNL     1      -0.514   9.605  19.665  0.00  0.00    +0.000 HD
BRANCH   9  12
ATOM     12  C   UNL     1      -0.214  11.773  21.250  0.00  0.00    +0.000 A 
ATOM     13  C   UNL     1      -1.271  12.025  22.120  0.00  0.00    +0.000 A 
ATOM     14  C   UNL     1      -1.992  13.202  21.937  0.00  0.00    +0.000 A 
ATOM     15  N   UNL     1      -1.731  14.118  20.974  0.00  0.00    +0.000 NA
ATOM     16  C   UNL     1      -0.701  13.857  20.150  0.00  0.00    +0.000 A 
ATOM     17  C   UNL     1       0.076  12.721  20.254  0.00  0.00    +0.000 A 
ENDBRANCH   9  12
ENDBRANCH   2  10
ENDBRANCH   1   6
BRANCH   1  18
ATOM     18  N   UNL     1       4.862   6.075  17.481  0.00  0.00    +0.000 NA
ATOM     19  C   UNL     1       4.376   4.977  16.646  0.00  0.00    +0.000 C 
ATOM     20  C   UNL     1       5.329   3.781  16.630  0.00  0.00    +0.000 C 
ATOM     21  C   UNL     1       6.752   4.181  16.224  0.00  0.00    +0.000 C 
ATOM     22  C   UNL     1       7.226   5.306  17.145  0.00  0.00    +0.000 C 
ATOM     23  C   UNL     1       6.240   6.479  17.193  0.00  0.00    +0.000 C 
BRANCH  21  24
ATOM     24  C   UNL     1       6.865   4.524  14.728  0.00  0.00    +0.000 C 
ATOM     25  O   UNL     1       7.481   5.499  14.315  0.00  0.00    +0.000 OA
ATOM     26  N   UNL     1       6.135   3.691  13.895  0.00  0.00    +0.000 N 
ATOM     27  H   UNL     1       5.665   2.887  14.282  0.00  0.00    +0.000 HD
BRANCH  26  28
ATOM     28  C   UNL     1       6.063   3.911  12.453  0.00  0.00    +0.000 C 
ATOM     29  C   UNL     1       7.440   3.764  11.786  0.00  0.00    +0.000 C 
ATOM     30  C   UNL     1       7.838   2.316  11.499  0.00  0.00    +0.000 C 
ATOM     31  C   UNL     1       6.753   1.593  10.713  0.00  0.00    +0.000 C 
ATOM     32  C   UNL     1       5.446   1.595  11.493  0.00  0.00    +0.000 C 
ATOM     33  C   UNL     1       4.986   3.020  11.809  0.00  0.00    +0.000 C 
ENDBRANCH  26  28
ENDBRANCH  21  24
ENDBRANCH   1  18
TORSDOF 6
ENDMDL
MODEL 9
REMARK VINA RESULT:      -7.7      2.018      2.393
REMARK  Name = 
REMARK  6 active torsions:
REMARK  status: ('A' for Active; 'I' for Inactive)
REMARK    1  A    between atoms: C_2  and  C_26
REMARK    2  A    between atoms: N_3  and  C_4
REMARK    3  A    between atoms: C_8  and  C_9
REMARK    4  A    between atoms: C_9  and  N_10
REMARK    5  A    between atoms: C_13  and  C_14
REMARK    6  A    between atoms: N_16  and  C_17
REMARK                            x       y       z     vdW  Elec       q    Type
REMARK                         _______ _______ _______ _____ _____    ______ ____
ROOT
ATOM      1  C   UNL     1       1.602   6.625  21.072  0.00  0.00    +0.000 C 
ENDROOT
BRANCH   1   6
ATOM      2  C   UNL     1       1.127   9.991  19.223  0.00  0.00    +0.000 A 
ATOM      3  C   UNL     1       1.815   9.693  18.041  0.00  0.00    +0.000 A 
ATOM      4  C   UNL     1       2.450   8.468  17.850  0.00  0.00    +0.000 A 
ATOM      5  C   UNL     1       2.387   7.495  18.840  0.00  0.00    +0.000 A 
ATOM      6  C   UNL     1       1.668   7.727  20.020  0.00  0.00    +0.000 A 
ATOM      7  C   UNL     1       1.036   8.990  20.197  0.00  0.00    +0.000 A 
BRANCH   2  10
ATOM      8  O   UNL     1      -1.652  10.632  18.884  0.00  0.00    +0.000 OA
ATOM      9  C   UNL     1      -0.864  11.471  19.332  0.00  0.00    +0.000 C 
ATOM     10  N   UNL     1       0.513  11.267  19.428  0.00  0.00    +0.000 N 
ATOM     11  H   UNL     1       1.124  12.070  19.505  0.00  0.00    +0.000 HD
BRANCH   9  12
ATOM     12  C   UNL     1      -1.475  12.767  19.752  0.00  0.00    +0.000 A 
ATOM     13  C   UNL     1      -0.825  13.998  19.745  0.00  0.00    +0.000 A 
ATOM     14  C   UNL     1      -1.494  15.083  20.307  0.00  0.00    +0.000 A 
ATOM     15  N   UNL     1      -2.731  15.022  20.853  0.00  0.00    +0.000 NA
ATOM     16  C   UNL     1      -3.341  13.824  20.842  0.00  0.00    +0.000 A 
ATOM     17  C   UNL     1      -2.765  12.691  20.305  0.00  0.00    +0.000 A 
ENDBRANCH   9  12
ENDBRANCH   2  10
ENDBRANCH   1   6
BRANCH   1  18
ATOM     18  N   UNL     1       1.533   5.229  20.587  0.00  0.00    +0.000 NA
ATOM     19  C   UNL     1       1.736   5.142  19.141  0.00  0.00    +0.000 C 
ATOM     20  C   UNL     1       1.639   3.708  18.617  0.00  0.00    +0.000 C 
ATOM     21  C   UNL     1       2.589   2.758  19.354  0.00  0.00    +0.000 C 
ATOM     22  C   UNL     1       2.315   2.861  20.855  0.00  0.00    +0.000 C 
ATOM     23  C   UNL     1       2.364   4.307  21.363  0.00  0.00    +0.000 C 
BRANCH  21  24
ATOM     24  C   UNL     1       4.063   2.989  18.982  0.00  0.00    +0.000 C 
ATOM     25  O   UNL     1       4.993   2.579  19.667  0.00  0.00    +0.000 OA
ATOM     26  N   UNL     1       4.251   3.779  17.859  0.00  0.00    +0.000 N 
ATOM     27  H   UNL     1       3.453   4.070  17.315  0.00  0.00    +0.000 HD
BRANCH  26  28
ATOM     28  C   UNL     1       5.583   4.166  17.401  0.00  0.00    +0.000 C 
ATOM     29  C   UNL     1       5.881   3.623  15.994  0.00  0.00    +0.000 C 
ATOM     30  C   UNL     1       5.296   4.470  14.865  0.00  0.00    +0.000 C 
ATOM     31  C   UNL     1       5.709   5.929  15.001  0.00  0.00    +0.000 C 
ATOM     32  C   UNL     1       5.230   6.490  16.333  0.00  0.00    +0.000 C 
ATOM     33  C   UNL     1       5.786   5.688  17.511  0.00  0.00    +0.000 C 
ENDBRANCH  26  28
ENDBRANCH  21  24
ENDBRANCH   1  18
TORSDOF 6
ENDMDL
