MODEL 1
REMARK VINA RESULT:      -8.2      0.000      0.000
REMARK  Name = 
REMARK  5 active torsions:
REMARK  status: ('A' for Active; 'I' for Inactive)
REMARK    1  A    between atoms: C_2  and  C_4
REMARK    2  A    between atoms: C_4  and  C_5
REMARK    3  A    between atoms: C_4  and  N_12
REMARK    4  A    between atoms: C_5  and  C_6
REMARK    5  A    between atoms: C_16  and  C_17
REMARK                            x       y       z     vdW  Elec       q    Type
REMARK                         _______ _______ _______ _____ _____    ______ ____
ROOT
ATOM      1  C   UNL     1       5.676   5.097  17.019  0.00  0.00    +0.000 C 
ENDROOT
BRANCH   1   3
ATOM      2  N   UNL     1       7.885   4.365  17.786  0.00  0.00    +0.000 N 
ATOM      3  C   UNL     1       6.567   4.561  18.126  0.00  0.00    +0.000 C 
ATOM      4  O   UNL     1       6.201   4.361  19.283  0.00  0.00    +0.000 OA
ATOM      5  H   UNL     1       8.496   3.980  18.497  0.00  0.00    +0.000 HD
ATOM      6  H   UNL     1       8.221   4.327  16.830  0.00  0.00    +0.000 HD
ENDBRANCH   1   3
BRANCH   1   7
ATOM      7  N   UNL     1       4.630   6.013  17.492  0.00  0.00    +0.000 N 
ATOM      8  C   UNL     1       4.685   7.386  17.375  0.00  0.00    +0.000 A 
ATOM      9  C   UNL     1       3.402   7.828  17.537  0.00  0.00    +0.000 A 
ATOM     10  N   UNL     1       2.594   6.796  17.899  0.00  0.00    +0.000 NA
ATOM     11  C   UNL     1       3.342   5.701  17.928  0.00  0.00    +0.000 A 
BRANCH  11  12
ATOM     12  C   UNL     1       2.791   4.414  18.395  0.00  0.00    +0.000 A 
ATOM     13  C   UNL     1       2.708   3.353  17.468  0.00  0.00    +0.000 A 
ATOM     14  C   UNL     1       2.245   2.086  17.839  0.00  0.00    +0.000 A 
ATOM     15  C   UNL     1       1.845   1.854  19.149  0.00  0.00    +0.000 A 
ATOM     16  C   UNL     1       1.920   2.888  20.074  0.00  0.00    +0.000 A 
ATOM     17 CL   UNL     1       1.436   2.624  21.706  0.00  0.00    +0.000 Cl
ATOM     18  C   UNL     1       2.402   4.146  19.708  0.00  0.00    +0.000 A 
ENDBRANCH  11  12
ENDBRANCH   1   7
BRANCH   1  19
ATOM     19  C   UNL     1       6.613   5.643  15.914  0.00  0.00    +0.000 C 
BRANCH  19  20
ATOM     20  C   UNL     1       6.577   4.933  14.574  0.00  0.00    +0.000 A 
ATOM     21  C   UNL     1       5.509   4.068  14.290  0.00  0.00    +0.000 A 
ATOM     22  C   UNL     1       5.415   3.436  13.049  0.00  0.00    +0.000 A 
ATOM     23  C   UNL     1       6.385   3.660  12.077  0.00  0.00    +0.000 A 
ATOM     24  C   UNL     1       7.459   4.502  12.349  0.00  0.00    +0.000 A 
ATOM     25  C   UNL     1       7.552   5.139  13.587  0.00  0.00    +0.000 A 
ENDBRANCH  19  20
ENDBRANCH   1  19
TORSDOF 5
ENDMDL
MODEL 2
REMARK VINA RESULT:      -8.1      0.169      1.018
REMARK  Name = 
REMARK  5 active torsions:
REMARK  status: ('A' for Active; 'I' for Inactive)
REMARK    1  A    between atoms: C_2  and  C_4
REMARK    2  A    between atoms: C_4  and  C_5
REMARK    3  A    between atoms: C_4  and  N_12
REMARK    4  A    between atoms: C_5  and  C_6
REMARK    5  A    between atoms: C_16  and  C_17
REMARK                            x       y       z     vdW  Elec       q    Type
REMARK                         _______ _______ _______ _____ _____    ______ ____
ROOT
ATOM      1  C   UNL     1       5.576   5.163  17.120  0.00  0.00    +0.000 C 
ENDROOT
BRANCH   1   3
ATOM      2  N   UNL     1       7.720   4.236  17.858  0.00  0.00    +0.000 N 
ATOM      3  C   UNL     1       6.478   4.683  18.244  0.00  0.00    +0.000 C 
ATOM      4  O   UNL     1       6.192   4.730  19.439  0.00  0.00    +0.000 OA
ATOM      5  H   UNL     1       8.331   3.882  18.584  0.00  0.00    +0.000 HD
ATOM      6  H   UNL     1       7.960   3.993  16.904  0.00  0.00    +0.000 HD
ENDBRANCH   1   3
BRANCH   1   7
ATOM      7  N   UNL     1       4.506   6.066  17.564  0.00  0.00    +0.000 N 
ATOM      8  C   UNL     1       4.537   7.438  17.431  0.00  0.00    +0.000 A 
ATOM      9  C   UNL     1       3.244   7.858  17.567  0.00  0.00    +0.000 A 
ATOM     10  N   UNL     1       2.449   6.816  17.929  0.00  0.00    +0.000 NA
ATOM     11  C   UNL     1       3.217   5.735  17.985  0.00  0.00    +0.000 A 
BRANCH  11  12
ATOM     12  C   UNL     1       2.682   4.444  18.459  0.00  0.00    +0.000 A 
ATOM     13  C   UNL     1       2.580   3.387  17.530  0.00  0.00    +0.000 A 
ATOM     14  C   UNL     1       2.131   2.117  17.907  0.00  0.00    +0.000 A 
ATOM     15  C   UNL     1       1.763   1.878  19.225  0.00  0.00    +0.000 A 
ATOM     16  C   UNL     1       1.856   2.909  20.152  0.00  0.00    +0.000 A 
ATOM     17 CL   UNL     1       1.413   2.637  21.794  0.00  0.00    +0.000 Cl
ATOM     18  C   UNL     1       2.325   4.170  19.779  0.00  0.00    +0.000 A 
ENDBRANCH  11  12
ENDBRANCH   1   7
BRANCH   1  19
ATOM     19  C   UNL     1       6.500   5.700  16.000  0.00  0.00    +0.000 C 
BRANCH  19  20
ATOM     20  C   UNL     1       6.425   4.999  14.657  0.00  0.00    +0.000 A 
ATOM     21  C   UNL     1       7.477   5.164  13.743  0.00  0.00    +0.000 A 
ATOM     22  C   UNL     1       7.468   4.495  12.518  0.00  0.00    +0.000 A 
ATOM     23  C   UNL     1       6.410   3.653  12.191  0.00  0.00    +0.000 A 
ATOM     24  C   UNL     1       5.352   3.491  13.080  0.00  0.00    +0.000 A 
ATOM     25  C   UNL     1       5.361   4.155  14.307  0.00  0.00    +0.000 A 
ENDBRANCH  19  20
ENDBRANCH   1  19
TORSDOF 5
ENDMDL
MODEL 3
REMARK VINA RESULT:      -7.7      3.184      6.629
REMARK  Name = 
REMARK  5 active torsions:
REMARK  status: ('A' for Active; 'I' for Inactive)
REMARK    1  A    between atoms: C_2  and  C_4
REMARK    2  A    between atoms: C_4  and  C_5
REMARK    3  A    between atoms: C_4  and  N_12
REMARK    4  A    between atoms: C_5  and  C_6
REMARK    5  A    between atoms: C_16  and  C_17
REMARK                            x       y       z     vdW  Elec       q    Type
REMARK                         _______ _______ _______ _____ _____    ______ ____
ROOT
ATOM      1  C   UNL     1       2.267   4.667  19.107  0.00  0.00    +0.000 C 
ENDROOT
BRANCH   1   3
ATOM      2  N   UNL     1       0.861   2.728  18.594  0.00  0.00    +0.000 N 
ATOM      3  C   UNL     1       1.366   3.921  18.137  0.00  0.00    +0.000 C 
ATOM      4  O   UNL     1       1.029   4.342  17.032  0.00  0.00    +0.000 OA
ATOM      5  H   UNL     1       0.281   2.195  17.957  0.00  0.00    +0.000 HD
ATOM      6  H   UNL     1       1.228   2.230  19.397  0.00  0.00    +0.000 HD
ENDBRANCH   1   3
BRANCH   1   7
ATOM      7  N   UNL     1       3.313   3.830  19.707  0.00  0.00    +0.000 N 
ATOM      8  C   UNL     1       3.140   3.055  20.835  0.00  0.00    +0.000 A 
ATOM      9  C   UNL     1       4.160   2.146  20.826  0.00  0.00    +0.000 A 
ATOM     10  N   UNL     1       5.033   2.432  19.823  0.00  0.00    +0.000 NA
ATOM     11  C   UNL     1       4.556   3.487  19.174  0.00  0.00    +0.000 A 
BRANCH  11  12
ATOM     12  C   UNL     1       5.325   4.125  18.088  0.00  0.00    +0.000 A 
ATOM     13  C   UNL     1       6.364   5.011  18.445  0.00  0.00    +0.000 A 
ATOM     14  C   UNL     1       7.174   5.621  17.482  0.00  0.00    +0.000 A 
ATOM     15  C   UNL     1       6.957   5.364  16.133  0.00  0.00    +0.000 A 
ATOM     16  C   UNL     1       5.937   4.494  15.765  0.00  0.00    +0.000 A 
ATOM     17 CL   UNL     1       5.651   4.153  14.102  0.00  0.00    +0.000 Cl
ATOM     18  C   UNL     1       5.142   3.870  16.729  0.00  0.00    +0.000 A 
ENDBRANCH  11  12
ENDBRANCH   1   7
BRANCH   1  19
ATOM     19  C   UNL     1       2.750   5.945  18.379  0.00  0.00    +0.000 C 
BRANCH  19  20
ATOM     20  C   UNL     1       2.179   7.265  18.862  0.00  0.00    +0.000 A 
ATOM     21  C   UNL     1       1.975   8.299  17.935  0.00  0.00    +0.000 A 
ATOM     22  C   UNL     1       1.404   9.509  18.333  0.00  0.00    +0.000 A 
ATOM     23  C   UNL     1       1.030   9.701  19.659  0.00  0.00    +0.000 A 
ATOM     24  C   UNL     1       1.240   8.692  20.593  0.00  0.00    +0.000 A 
ATOM     25  C   UNL     1       1.805   7.480  20.197  0.00  0.00    +0.000 A 
ENDBRANCH  19  20
ENDBRANCH   1  19
TORSDOF 5
ENDMDL
MODEL 4
REMARK VINA RESULT:      -7.6      3.198      6.578
REMARK  Name = 
REMARK  5 active torsions:
REMARK  status: ('A' for Active; 'I' for Inactive)
REMARK    1  A    between atoms: C_2  and  C_4
REMARK    2  A    between atoms: C_4  and  C_5
REMARK    3  A    between atoms: C_4  and  N_12
REMARK    4  A    between atoms: C_5  and  C_6
REMARK    5  A    between atoms: C_16  and  C_17
REMARK                            x       y       z     vdW  Elec       q    Type
REMARK                         _______ _______ _______ _____ _____    ______ ____
ROOT
ATOM      1  C   UNL     1       2.230   4.633  19.124  0.00  0.00    +0.000 C 
ENDROOT
BRANCH   1   3
ATOM      2  N   UNL     1       0.810   2.686  18.685  0.00  0.00    +0.000 N 
ATOM      3  C   UNL     1       1.326   3.857  18.182  0.00  0.00    +0.000 C 
ATOM      4  O   UNL     1       0.995   4.236  17.060  0.00  0.00    +0.000 OA
ATOM      5  H   UNL     1       0.227   2.133  18.067  0.00  0.00    +0.000 HD
ATOM      6  H   UNL     1       1.171   2.218  19.508  0.00  0.00    +0.000 HD
ENDBRANCH   1   3
BRANCH   1   7
ATOM      7  N   UNL     1       3.293   3.821  19.729  0.00  0.00    +0.000 N 
ATOM      8  C   UNL     1       3.112   2.974  20.802  0.00  0.00    +0.000 A 
ATOM      9  C   UNL     1       4.182   2.124  20.794  0.00  0.00    +0.000 A 
ATOM     10  N   UNL     1       5.083   2.515  19.854  0.00  0.00    +0.000 NA
ATOM     11  C   UNL     1       4.577   3.577  19.240  0.00  0.00    +0.000 A 
BRANCH  11  12
ATOM     12  C   UNL     1       5.358   4.318  18.231  0.00  0.00    +0.000 A 
ATOM     13  C   UNL     1       5.229   3.934  16.880  0.00  0.00    +0.000 A 
ATOM     14  C   UNL     1       5.894   4.615  15.854  0.00  0.00    +0.000 A 
ATOM     15  C   UNL     1       6.715   5.694  16.161  0.00  0.00    +0.000 A 
ATOM     16  C   UNL     1       6.853   6.084  17.488  0.00  0.00    +0.000 A 
ATOM     17 CL   UNL     1       7.858   7.422  17.894  0.00  0.00    +0.000 Cl
ATOM     18  C   UNL     1       6.172   5.417  18.507  0.00  0.00    +0.000 A 
ENDBRANCH  11  12
ENDBRANCH   1   7
BRANCH   1  19
ATOM     19  C   UNL     1       2.689   5.901  18.363  0.00  0.00    +0.000 C 
BRANCH  19  20
ATOM     20  C   UNL     1       2.150   7.229  18.860  0.00  0.00    +0.000 A 
ATOM     21  C   UNL     1       1.950   8.270  17.939  0.00  0.00    +0.000 A 
ATOM     22  C   UNL     1       1.409   9.489  18.350  0.00  0.00    +0.000 A 
ATOM     23  C   UNL     1       1.060   9.684  19.683  0.00  0.00    +0.000 A 
ATOM     24  C   UNL     1       1.266   8.668  20.610  0.00  0.00    +0.000 A 
ATOM     25  C   UNL     1       1.803   7.446  20.201  0.00  0.00    +0.000 A 
ENDBRANCH  19  20
ENDBRANCH   1  19
TORSDOF 5
ENDMDL
MODEL 5
REMARK VINA RESULT:      -7.6      3.315      6.614
REMARK  Name = 
REMARK  5 active torsions:
REMARK  status: ('A' for Active; 'I' for Inactive)
REMARK    1  A    between atoms: C_2  and  C_4
REMARK    2  A    between atoms: C_4  and  C_5
REMARK    3  A    between atoms: C_4  and  N_12
REMARK    4  A    between atoms: C_5  and  C_6
REMARK    5  A    between atoms: C_16  and  C_17
REMARK                            x       y       z     vdW  Elec       q    Type
REMARK                         _______ _______ _______ _____ _____    ______ ____
ROOT
ATOM      1  C   UNL     1       2.400   4.721  18.841  0.00  0.00    +0.000 C 
ENDROOT
BRANCH   1   3
ATOM      2  N   UNL     1       2.375   2.800  17.322  0.00  0.00    +0.000 N 
ATOM      3  C   UNL     1       1.795   4.003  17.647  0.00  0.00    +0.000 C 
ATOM      4  O   UNL     1       0.813   4.396  17.019  0.00  0.00    +0.000 OA
ATOM      5  H   UNL     1       2.010   2.313  16.511  0.00  0.00    +0.000 HD
ATOM      6  H   UNL     1       3.282   2.501  17.660  0.00  0.00    +0.000 HD
ENDBRANCH   1   3
BRANCH   1   7
ATOM      7  N   UNL     1       3.350   3.903  19.605  0.00  0.00    +0.000 N 
ATOM      8  C   UNL     1       2.993   3.028  20.609  0.00  0.00    +0.000 A 
ATOM      9  C   UNL     1       4.059   2.187  20.771  0.00  0.00    +0.000 A 
ATOM     10  N   UNL     1       5.106   2.609  20.014  0.00  0.00    +0.000 NA
ATOM     11  C   UNL     1       4.703   3.682  19.345  0.00  0.00    +0.000 A 
BRANCH  11  12
ATOM     12  C   UNL     1       5.641   4.455  18.509  0.00  0.00    +0.000 A 
ATOM     13  C   UNL     1       6.477   5.396  19.146  0.00  0.00    +0.000 A 
ATOM     14  C   UNL     1       7.429   6.135  18.435  0.00  0.00    +0.000 A 
ATOM     15  C   UNL     1       7.560   5.954  17.063  0.00  0.00    +0.000 A 
ATOM     16  C   UNL     1       6.743   5.032  16.421  0.00  0.00    +0.000 A 
ATOM     17 CL   UNL     1       6.890   4.784  14.723  0.00  0.00    +0.000 Cl
ATOM     18  C   UNL     1       5.809   4.280  17.135  0.00  0.00    +0.000 A 
ENDBRANCH  11  12
ENDBRANCH   1   7
BRANCH   1  19
ATOM     19  C   UNL     1       2.932   6.081  18.325  0.00  0.00    +0.000 C 
BRANCH  19  20
ATOM     20  C   UNL     1       2.212   7.325  18.809  0.00  0.00    +0.000 A 
ATOM     21  C   UNL     1       1.859   7.424  20.164  0.00  0.00    +0.000 A 
ATOM     22  C   UNL     1       1.241   8.575  20.657  0.00  0.00    +0.000 A 
ATOM     23  C   UNL     1       0.969   9.640  19.803  0.00  0.00    +0.000 A 
ATOM     24  C   UNL     1       1.299   9.551  18.455  0.00  0.00    +0.000 A 
ATOM     25  C   UNL     1       1.921   8.404  17.961  0.00  0.00    +0.000 A 
ENDBRANCH  19  20
ENDBRANCH   1  19
TORSDOF 5
ENDMDL
MODEL 6
REMARK VINA RESULT:      -7.6      2.174      4.845
REMARK  Name = 
REMARK  5 active torsions:
REMARK  status: ('A' for Active; 'I' for Inactive)
REMARK    1  A    between atoms: C_2  and  C_4
REMARK    2  A    between atoms: C_4  and  C_5
REMARK    3  A    between atoms: C_4  and  N_12
REMARK    4  A    between atoms: C_5  and  C_6
REMARK    5  A    between atoms: C_16  and  C_17
REMARK                            x       y       z     vdW  Elec       q    Type
REMARK                         _______ _______ _______ _____ _____    ______ ____
ROOT
ATOM      1  C   UNL     1       5.668   4.038  16.276  0.00  0.00    +0.000 C 
ENDROOT
BRANCH   1   3
ATOM      2  N   UNL     1       6.240   3.467  13.964  0.00  0.00    +0.000 N 
ATOM      3  C   UNL     1       6.215   4.453  14.921  0.00  0.00    +0.000 C 
ATOM      4  O   UNL     1       6.564   5.596  14.628  0.00  0.00    +0.000 OA
ATOM      5  H   UNL     1       6.627   3.709  13.059  0.00  0.00    +0.000 HD
ATOM      6  H   UNL     1       6.149   2.479  14.169  0.00  0.00    +0.000 HD
ENDBRANCH   1   3
BRANCH   1   7
ATOM      7  N   UNL     1       6.390   4.626  17.412  0.00  0.00    +0.000 N 
ATOM      8  C   UNL     1       7.703   4.348  17.729  0.00  0.00    +0.000 A 
ATOM      9  C   UNL     1       8.114   5.361  18.549  0.00  0.00    +0.000 A 
ATOM     10  N   UNL     1       7.062   6.161  18.867  0.00  0.00    +0.000 NA
ATOM     11  C   UNL     1       6.000   5.690  18.226  0.00  0.00    +0.000 A 
BRANCH  11  12
ATOM     12  C   UNL     1       4.660   6.269  18.442  0.00  0.00    +0.000 A 
ATOM     13  C   UNL     1       4.199   7.235  17.523  0.00  0.00    +0.000 A 
ATOM     14  C   UNL     1       2.922   7.798  17.625  0.00  0.00    +0.000 A 
ATOM     15  C   UNL     1       2.078   7.412  18.659  0.00  0.00    +0.000 A 
ATOM     16  C   UNL     1       2.518   6.462  19.574  0.00  0.00    +0.000 A 
ATOM     17 CL   UNL     1       1.488   5.961  20.860  0.00  0.00    +0.000 Cl
ATOM     18  C   UNL     1       3.784   5.886  19.458  0.00  0.00    +0.000 A 
ENDBRANCH  11  12
ENDBRANCH   1   7
BRANCH   1  19
ATOM     19  C   UNL     1       4.140   4.284  16.239  0.00  0.00    +0.000 C 
BRANCH  19  20
ATOM     20  C   UNL     1       3.292   3.472  17.199  0.00  0.00    +0.000 A 
ATOM     21  C   UNL     1       3.884   2.408  17.896  0.00  0.00    +0.000 A 
ATOM     22  C   UNL     1       3.149   1.670  18.826  0.00  0.00    +0.000 A 
ATOM     23  C   UNL     1       1.816   1.987  19.071  0.00  0.00    +0.000 A 
ATOM     24  C   UNL     1       1.211   3.029  18.377  0.00  0.00    +0.000 A 
ATOM     25  C   UNL     1       1.945   3.771  17.451  0.00  0.00    +0.000 A 
ENDBRANCH  19  20
ENDBRANCH   1  19
TORSDOF 5
ENDMDL
MODEL 7
REMARK VINA RESULT:      -7.6      3.106      5.656
REMARK  Name = 
REMARK  5 active torsions:
REMARK  status: ('A' for Active; 'I' for Inactive)
REMARK    1  A    between atoms: C_2  and  C_4
REMARK    2  A    between atoms: C_4  and  C_5
REMARK    3  A    between atoms: C_4  and  N_12
REMARK    4  A    between atoms: C_5  and  C_6
REMARK    5  A    between atoms: C_16  and  C_17
REMARK                            x       y       z     vdW  Elec       q    Type
REMARK                         _______ _______ _______ _____ _____    ______ ____
ROOT
ATOM      1  C   UNL     1       2.623   6.832  18.423  0.00  0.00    +0.000 C 
ENDROOT
BRANCH   1   3
ATOM      2  N   UNL     1       1.559   8.840  19.337  0.00  0.00    +0.000 N 
ATOM      3  C   UNL     1       2.079   8.235  18.217  0.00  0.00    +0.000 C 
ATOM      4  O   UNL     1       2.133   8.857  17.157  0.00  0.00    +0.000 OA
ATOM      5  H   UNL     1       1.162   9.765  19.222  0.00  0.00    +0.000 HD
ATOM      6  H   UNL     1       1.311   8.341  20.183  0.00  0.00    +0.000 HD
ENDBRANCH   1   3
BRANCH   1   7
ATOM      7  N   UNL     1       3.913   6.594  17.761  0.00  0.00    +0.000 N 
ATOM      8  C   UNL     1       4.672   7.574  17.159  0.00  0.00    +0.000 A 
ATOM      9  C   UNL     1       5.931   7.055  17.043  0.00  0.00    +0.000 A 
ATOM     10  N   UNL     1       5.933   5.746  17.410  0.00  0.00    +0.000 NA
ATOM     11  C   UNL     1       4.700   5.442  17.795  0.00  0.00    +0.000 A 
BRANCH  11  12
ATOM     12  C   UNL     1       4.333   4.059  18.154  0.00  0.00    +0.000 A 
ATOM     13  C   UNL     1       3.462   3.360  17.293  0.00  0.00    +0.000 A 
ATOM     14  C   UNL     1       3.102   2.029  17.531  0.00  0.00    +0.000 A 
ATOM     15  C   UNL     1       3.602   1.368  18.647  0.00  0.00    +0.000 A 
ATOM     16  C   UNL     1       4.461   2.043  19.506  0.00  0.00    +0.000 A 
ATOM     17 CL   UNL     1       5.100   1.245  20.891  0.00  0.00    +0.000 Cl
ATOM     18  C   UNL     1       4.836   3.364  19.254  0.00  0.00    +0.000 A 
ENDBRANCH  11  12
ENDBRANCH   1   7
BRANCH   1  19
ATOM     19  C   UNL     1       2.575   6.549  19.944  0.00  0.00    +0.000 C 
BRANCH  19  20
ATOM     20  C   UNL     1       2.055   5.190  20.372  0.00  0.00    +0.000 A 
ATOM     21  C   UNL     1       1.100   4.543  19.572  0.00  0.00    +0.000 A 
ATOM     22  C   UNL     1       0.636   3.270  19.905  0.00  0.00    +0.000 A 
ATOM     23  C   UNL     1       1.120   2.627  21.041  0.00  0.00    +0.000 A 
ATOM     24  C   UNL     1       2.054   3.261  21.853  0.00  0.00    +0.000 A 
ATOM     25  C   UNL     1       2.523   4.532  21.518  0.00  0.00    +0.000 A 
ENDBRANCH  19  20
ENDBRANCH   1  19
TORSDOF 5
ENDMDL
MODEL 8
REMARK VINA RESULT:      -7.5      2.577      6.394
REMARK  Name = 
REMARK  5 active torsions:
REMARK  status: ('A' for Active; 'I' for Inactive)
REMARK    1  A    between atoms: C_2  and  C_4
REMARK    2  A    between atoms: C_4  and  C_5
REMARK    3  A    between atoms: C_4  and  N_12
REMARK    4  A    between atoms: C_5  and  C_6
REMARK    5  A    between atoms: C_16  and  C_17
REMARK                            x       y       z     vdW  Elec       q    Type
REMARK                         _______ _______ _______ _____ _____    ______ ____
ROOT
ATOM      1  C   UNL     1       4.709   5.575  17.068  0.00  0.00    +0.000 C 
ENDROOT
BRANCH   1   3
ATOM      2  N   UNL     1       3.712   7.813  17.079  0.00  0.00    +0.000 N 
ATOM      3  C   UNL     1       4.460   6.902  16.371  0.00  0.00    +0.000 C 
ATOM      4  O   UNL     1       4.926   7.215  15.277  0.00  0.00    +0.000 OA
ATOM      5  H   UNL     1       3.506   8.695  16.626  0.00  0.00    +0.000 HD
ATOM      6  H   UNL     1       3.147   7.574  17.885  0.00  0.00    +0.000 HD
ENDBRANCH   1   3
BRANCH   1   7
ATOM      7  N   UNL     1       6.132   5.275  17.280  0.00  0.00    +0.000 N 
ATOM      8  C   UNL     1       6.761   5.305  18.506  0.00  0.00    +0.000 A 
ATOM      9  C   UNL     1       7.915   4.589  18.353  0.00  0.00    +0.000 A 
ATOM     10  N   UNL     1       8.088   4.255  17.047  0.00  0.00    +0.000 NA
ATOM     11  C   UNL     1       7.038   4.715  16.379  0.00  0.00    +0.000 A 
BRANCH  11  12
ATOM     12  C   UNL     1       6.967   4.615  14.908  0.00  0.00    +0.000 A 
ATOM     13  C   UNL     1       7.881   5.373  14.148  0.00  0.00    +0.000 A 
ATOM     14  C   UNL     1       7.916   5.300  12.751  0.00  0.00    +0.000 A 
ATOM     15  C   UNL     1       7.026   4.468  12.081  0.00  0.00    +0.000 A 
ATOM     16  C   UNL     1       6.118   3.715  12.817  0.00  0.00    +0.000 A 
ATOM     17 CL   UNL     1       5.010   2.671  12.011  0.00  0.00    +0.000 Cl
ATOM     18  C   UNL     1       6.099   3.774  14.211  0.00  0.00    +0.000 A 
ENDBRANCH  11  12
ENDBRANCH   1   7
BRANCH   1  19
ATOM     19  C   UNL     1       3.813   5.556  18.331  0.00  0.00    +0.000 C 
BRANCH  19  20
ATOM     20  C   UNL     1       2.905   4.354  18.506  0.00  0.00    +0.000 A 
ATOM     21  C   UNL     1       1.858   4.422  19.438  0.00  0.00    +0.000 A 
ATOM     22  C   UNL     1       0.970   3.356  19.591  0.00  0.00    +0.000 A 
ATOM     23  C   UNL     1       1.117   2.210  18.816  0.00  0.00    +0.000 A 
ATOM     24  C   UNL     1       2.159   2.121  17.898  0.00  0.00    +0.000 A 
ATOM     25  C   UNL     1       3.044   3.187  17.740  0.00  0.00    +0.000 A 
ENDBRANCH  19  20
ENDBRANCH   1  19
TORSDOF 5
ENDMDL
MODEL 9
REMARK VINA RESULT:      -7.5      2.183      4.839
REMARK  Name = 
REMARK  5 active torsions:
REMARK  status: ('A' for Active; 'I' for Inactive)
REMARK    1  A    between atoms: C_2  and  C_4
REMARK    2  A    between atoms: C_4  and  C_5
REMARK    3  A    between atoms: C_4  and  N_12
REMARK    4  A    between atoms: C_5  and  C_6
REMARK    5  A    between atoms: C_16  and  C_17
REMARK                            x       y       z     vdW  Elec       q    Type
REMARK                         _______ _______ _______ _____ _____    ______ ____
ROOT
ATOM      1  C   UNL     1       5.627   4.033  16.249  0.00  0.00    +0.000 C 
ENDROOT
BRANCH   1   3
ATOM      2  N   UNL     1       6.268   3.489  13.947  0.00  0.00    +0.000 N 
ATOM      3  C   UNL     1       6.134   4.482  14.889  0.00  0.00    +0.000 C 
ATOM      4  O   UNL     1       6.361   5.650  14.579  0.00  0.00    +0.000 OA
ATOM      5  H   UNL     1       6.632   3.756  13.040  0.00  0.00    +0.000 HD
ATOM      6  H   UNL     1       6.281   2.500  14.169  0.00  0.00    +0.000 HD
ENDBRANCH   1   3
BRANCH   1   7
ATOM      7  N   UNL     1       6.359   4.620  17.378  0.00  0.00    +0.000 N 
ATOM      8  C   UNL     1       7.669   4.329  17.693  0.00  0.00    +0.000 A 
ATOM      9  C   UNL     1       8.094   5.343  18.505  0.00  0.00    +0.000 A 
ATOM     10  N   UNL     1       7.053   6.158  18.819  0.00  0.00    +0.000 NA
ATOM     11  C   UNL     1       5.984   5.695  18.184  0.00  0.00    +0.000 A 
BRANCH  11  12
ATOM     12  C   UNL     1       4.652   6.292  18.399  0.00  0.00    +0.000 A 
ATOM     13  C   UNL     1       4.193   7.245  17.466  0.00  0.00    +0.000 A 
ATOM     14  C   UNL     1       2.923   7.823  17.566  0.00  0.00    +0.000 A 
ATOM     15  C   UNL     1       2.083   7.466  18.614  0.00  0.00    +0.000 A 
ATOM     16  C   UNL     1       2.520   6.529  19.543  0.00  0.00    +0.000 A 
ATOM     17 CL   UNL     1       1.496   6.064  20.847  0.00  0.00    +0.000 Cl
ATOM     18  C   UNL     1       3.780   5.937  19.429  0.00  0.00    +0.000 A 
ENDBRANCH  11  12
ENDBRANCH   1   7
BRANCH   1  19
ATOM     19  C   UNL     1       4.093   4.241  16.248  0.00  0.00    +0.000 C 
BRANCH  19  20
ATOM     20  C   UNL     1       3.294   3.449  17.265  0.00  0.00    +0.000 A 
ATOM     21  C   UNL     1       1.952   3.789  17.491  0.00  0.00    +0.000 A 
ATOM     22  C   UNL     1       1.170   3.051  18.382  0.00  0.00    +0.000 A 
ATOM     23  C   UNL     1       1.720   1.965  19.057  0.00  0.00    +0.000 A 
ATOM     24  C   UNL     1       3.053   1.625  18.856  0.00  0.00    +0.000 A 
ATOM     25  C   UNL     1       3.835   2.358  17.962  0.00  0.00    +0.000 A 
ENDBRANCH  19  20
ENDBRANCH   1  19
TORSDOF 5
ENDMDL
