MODEL 1
REMARK VINA RESULT:      -7.3      0.000      0.000
REMARK  Name = 
REMARK  3 active torsions:
REMARK  status: ('A' for Active; 'I' for Inactive)
REMARK    1  A    between atoms: C_1  and  C_2
REMARK    2  A    between atoms: C_5  and  N_6
REMARK    3  A    between atoms: C_16  and  C_17
REMARK                            x       y       z     vdW  Elec       q    Type
REMARK                         _______ _______ _______ _____ _____    ______ ____
ROOT
ATOM      1  N   UNL     1       5.252   5.312  17.907  0.00  0.00    +0.000 N 
ATOM      2  C   UNL     1       5.598   5.055  16.620  0.00  0.00    +0.000 A 
ATOM      3  N   UNL     1       4.903   4.372  15.739  0.00  0.00    +0.000 NA
ATOM      4  C   UNL     1       5.576   4.256  14.546  0.00  0.00    +0.000 A 
ATOM      5  C   UNL     1       5.114   3.562  13.412  0.00  0.00    +0.000 A 
ATOM      6  C   UNL     1       5.902   3.515  12.262  0.00  0.00    +0.000 A 
ATOM      7  C   UNL     1       7.143   4.146  12.236  0.00  0.00    +0.000 A 
ATOM      8  C   UNL     1       7.624   4.839  13.353  0.00  0.00    +0.000 A 
ATOM      9  C   UNL     1       6.818   4.884  14.502  0.00  0.00    +0.000 A 
ATOM     10  S   UNL     1       7.105   5.648  16.017  0.00  0.00    +0.000 S 
ATOM     11  H   UNL     1       5.940   5.825  18.433  0.00  0.00    +0.000 HD
ENDROOT
BRANCH   1  16
ATOM     12  C   UNL     1       1.354   2.729  21.275  0.00  0.00    +0.000 C 
ATOM     13  C   UNL     1       2.352   3.375  20.364  0.00  0.00    +0.000 A 
ATOM     14  C   UNL     1       3.584   2.784  20.127  0.00  0.00    +0.000 A 
ATOM     15  C   UNL     1       4.516   3.412  19.297  0.00  0.00    +0.000 A 
ATOM     16  C   UNL     1       4.271   4.657  18.689  0.00  0.00    +0.000 A 
ATOM     17  C   UNL     1       2.994   5.231  18.886  0.00  0.00    +0.000 A 
ATOM     18  C   UNL     1       2.543   6.534  18.279  0.00  0.00    +0.000 C 
ATOM     19  C   UNL     1       2.061   4.588  19.732  0.00  0.00    +0.000 A 
ENDBRANCH   1  16
TORSDOF 1
ENDMDL
MODEL 2
REMARK VINA RESULT:      -7.0      3.837      7.347
REMARK  Name = 
REMARK  3 active torsions:
REMARK  status: ('A' for Active; 'I' for Inactive)
REMARK    1  A    between atoms: C_1  and  C_2
REMARK    2  A    between atoms: C_5  and  N_6
REMARK    3  A    between atoms: C_16  and  C_17
REMARK                            x       y       z     vdW  Elec       q    Type
REMARK                         _______ _______ _______ _____ _____    ______ ____
ROOT
ATOM      1  N   UNL     1       2.737   7.104  17.863  0.00  0.00    +0.000 N 
ATOM      2  C   UNL     1       2.135   7.937  18.749  0.00  0.00    +0.000 A 
ATOM      3  N   UNL     1       1.914   7.705  20.023  0.00  0.00    +0.000 NA
ATOM      4  C   UNL     1       1.230   8.740  20.614  0.00  0.00    +0.000 A 
ATOM      5  C   UNL     1       0.819   8.786  21.960  0.00  0.00    +0.000 A 
ATOM      6  C   UNL     1       0.123   9.898  22.432  0.00  0.00    +0.000 A 
ATOM      7  C   UNL     1      -0.170  10.957  21.577  0.00  0.00    +0.000 A 
ATOM      8  C   UNL     1       0.226  10.933  20.235  0.00  0.00    +0.000 A 
ATOM      9  C   UNL     1       0.932   9.810  19.773  0.00  0.00    +0.000 A 
ATOM     10  S   UNL     1       1.562   9.475  18.207  0.00  0.00    +0.000 S 
ATOM     11  H   UNL     1       2.779   7.453  16.919  0.00  0.00    +0.000 HD
ENDROOT
BRANCH   1  16
ATOM     12  C   UNL     1       3.625   1.419  18.173  0.00  0.00    +0.000 C 
ATOM     13  C   UNL     1       3.390   2.897  18.138  0.00  0.00    +0.000 A 
ATOM     14  C   UNL     1       2.102   3.411  18.106  0.00  0.00    +0.000 A 
ATOM     15  C   UNL     1       1.898   4.792  18.046  0.00  0.00    +0.000 A 
ATOM     16  C   UNL     1       2.960   5.713  17.994  0.00  0.00    +0.000 A 
ATOM     17  C   UNL     1       4.272   5.191  18.083  0.00  0.00    +0.000 A 
ATOM     18  C   UNL     1       5.524   6.028  18.087  0.00  0.00    +0.000 C 
ATOM     19  C   UNL     1       4.465   3.791  18.139  0.00  0.00    +0.000 A 
ENDBRANCH   1  16
TORSDOF 1
ENDMDL
MODEL 3
REMARK VINA RESULT:      -6.9      2.448      6.863
REMARK  Name = 
REMARK  3 active torsions:
REMARK  status: ('A' for Active; 'I' for Inactive)
REMARK    1  A    between atoms: C_1  and  C_2
REMARK    2  A    between atoms: C_5  and  N_6
REMARK    3  A    between atoms: C_16  and  C_17
REMARK                            x       y       z     vdW  Elec       q    Type
REMARK                         _______ _______ _______ _____ _____    ______ ____
ROOT
ATOM      1  N   UNL     1       4.423   4.671  17.918  0.00  0.00    +0.000 N 
ATOM      2  C   UNL     1       3.621   5.665  18.376  0.00  0.00    +0.000 A 
ATOM      3  N   UNL     1       3.219   6.722  17.709  0.00  0.00    +0.000 NA
ATOM      4  C   UNL     1       2.462   7.558  18.495  0.00  0.00    +0.000 A 
ATOM      5  C   UNL     1       1.905   8.784  18.084  0.00  0.00    +0.000 A 
ATOM      6  C   UNL     1       1.160   9.541  18.988  0.00  0.00    +0.000 A 
ATOM      7  C   UNL     1       0.971   9.091  20.292  0.00  0.00    +0.000 A 
ATOM      8  C   UNL     1       1.517   7.877  20.723  0.00  0.00    +0.000 A 
ATOM      9  C   UNL     1       2.260   7.121  19.802  0.00  0.00    +0.000 A 
ATOM     10  S   UNL     1       3.045   5.603  20.004  0.00  0.00    +0.000 S 
ATOM     11  H   UNL     1       4.647   3.963  18.600  0.00  0.00    +0.000 HD
ENDROOT
BRANCH   1  16
ATOM     12  C   UNL     1       7.756   4.940  13.225  0.00  0.00    +0.000 C 
ATOM     13  C   UNL     1       6.903   4.826  14.451  0.00  0.00    +0.000 A 
ATOM     14  C   UNL     1       5.612   4.326  14.373  0.00  0.00    +0.000 A 
ATOM     15  C   UNL     1       4.817   4.251  15.520  0.00  0.00    +0.000 A 
ATOM     16  C   UNL     1       5.264   4.689  16.780  0.00  0.00    +0.000 A 
ATOM     17  C   UNL     1       6.599   5.146  16.869  0.00  0.00    +0.000 A 
ATOM     18  C   UNL     1       7.259   5.610  18.141  0.00  0.00    +0.000 C 
ATOM     19  C   UNL     1       7.392   5.221  15.700  0.00  0.00    +0.000 A 
ENDBRANCH   1  16
TORSDOF 1
ENDMDL
MODEL 4
REMARK VINA RESULT:      -6.9      4.550      6.982
REMARK  Name = 
REMARK  3 active torsions:
REMARK  status: ('A' for Active; 'I' for Inactive)
REMARK    1  A    between atoms: C_1  and  C_2
REMARK    2  A    between atoms: C_5  and  N_6
REMARK    3  A    between atoms: C_16  and  C_17
REMARK                            x       y       z     vdW  Elec       q    Type
REMARK                         _______ _______ _______ _____ _____    ______ ____
ROOT
ATOM      1  N   UNL     1       1.839   8.139  19.599  0.00  0.00    +0.000 N 
ATOM      2  C   UNL     1       2.213   6.847  19.780  0.00  0.00    +0.000 A 
ATOM      3  N   UNL     1       1.665   5.976  20.595  0.00  0.00    +0.000 NA
ATOM      4  C   UNL     1       2.331   4.773  20.571  0.00  0.00    +0.000 A 
ATOM      5  C   UNL     1       2.008   3.645  21.349  0.00  0.00    +0.000 A 
ATOM      6  C   UNL     1       2.774   2.484  21.232  0.00  0.00    +0.000 A 
ATOM      7  C   UNL     1       3.855   2.442  20.356  0.00  0.00    +0.000 A 
ATOM      8  C   UNL     1       4.195   3.552  19.575  0.00  0.00    +0.000 A 
ATOM      9  C   UNL     1       3.413   4.712  19.697  0.00  0.00    +0.000 A 
ATOM     10  S   UNL     1       3.555   6.224  18.886  0.00  0.00    +0.000 S 
ATOM     11  H   UNL     1       2.412   8.656  18.951  0.00  0.00    +0.000 HD
ENDROOT
BRANCH   1  16
ATOM     12  C   UNL     1      -1.291  11.514  23.066  0.00  0.00    +0.000 C 
ATOM     13  C   UNL     1      -0.511  10.605  22.167  0.00  0.00    +0.000 A 
ATOM     14  C   UNL     1       0.316   9.624  22.693  0.00  0.00    +0.000 A 
ATOM     15  C   UNL     1       1.060   8.801  21.843  0.00  0.00    +0.000 A 
ATOM     16  C   UNL     1       1.027   8.934  20.443  0.00  0.00    +0.000 A 
ATOM     17  C   UNL     1       0.142   9.896  19.906  0.00  0.00    +0.000 A 
ATOM     18  C   UNL     1      -0.055  10.146  18.433  0.00  0.00    +0.000 C 
ATOM     19  C   UNL     1      -0.602  10.726  20.777  0.00  0.00    +0.000 A 
ENDBRANCH   1  16
TORSDOF 1
ENDMDL
MODEL 5
REMARK VINA RESULT:      -6.7      1.857      6.853
REMARK  Name = 
REMARK  3 active torsions:
REMARK  status: ('A' for Active; 'I' for Inactive)
REMARK    1  A    between atoms: C_1  and  C_2
REMARK    2  A    between atoms: C_5  and  N_6
REMARK    3  A    between atoms: C_16  and  C_17
REMARK                            x       y       z     vdW  Elec       q    Type
REMARK                         _______ _______ _______ _____ _____    ______ ____
ROOT
ATOM      1  N   UNL     1       4.860   3.356  16.877  0.00  0.00    +0.000 N 
ATOM      2  C   UNL     1       4.098   4.076  17.738  0.00  0.00    +0.000 A 
ATOM      3  N   UNL     1       3.743   5.334  17.612  0.00  0.00    +0.000 NA
ATOM      4  C   UNL     1       3.018   5.765  18.698  0.00  0.00    +0.000 A 
ATOM      5  C   UNL     1       2.515   7.068  18.879  0.00  0.00    +0.000 A 
ATOM      6  C   UNL     1       1.798   7.376  20.035  0.00  0.00    +0.000 A 
ATOM      7  C   UNL     1       1.585   6.403  21.009  0.00  0.00    +0.000 A 
ATOM      8  C   UNL     1       2.078   5.103  20.850  0.00  0.00    +0.000 A 
ATOM      9  C   UNL     1       2.792   4.804  19.680  0.00  0.00    +0.000 A 
ATOM     10  S   UNL     1       3.513   3.323  19.179  0.00  0.00    +0.000 S 
ATOM     11  H   UNL     1       5.051   2.412  17.172  0.00  0.00    +0.000 HD
ENDROOT
BRANCH   1  16
ATOM     12  C   UNL     1       8.180   5.521  12.694  0.00  0.00    +0.000 C 
ATOM     13  C   UNL     1       7.339   4.918  13.775  0.00  0.00    +0.000 A 
ATOM     14  C   UNL     1       6.168   4.239  13.469  0.00  0.00    +0.000 A 
ATOM     15  C   UNL     1       5.378   3.706  14.491  0.00  0.00    +0.000 A 
ATOM     16  C   UNL     1       5.706   3.842  15.852  0.00  0.00    +0.000 A 
ATOM     17  C   UNL     1       6.928   4.484  16.160  0.00  0.00    +0.000 A 
ATOM     18  C   UNL     1       7.460   4.680  17.556  0.00  0.00    +0.000 C 
ATOM     19  C   UNL     1       7.717   5.025  15.117  0.00  0.00    +0.000 A 
ENDBRANCH   1  16
TORSDOF 1
ENDMDL
MODEL 6
REMARK VINA RESULT:      -6.7      2.922      6.533
REMARK  Name = 
REMARK  3 active torsions:
REMARK  status: ('A' for Active; 'I' for Inactive)
REMARK    1  A    between atoms: C_1  and  C_2
REMARK    2  A    between atoms: C_5  and  N_6
REMARK    3  A    between atoms: C_16  and  C_17
REMARK                            x       y       z     vdW  Elec       q    Type
REMARK                         _______ _______ _______ _____ _____    ______ ____
ROOT
ATOM      1  N   UNL     1       5.992   4.591  17.773  0.00  0.00    +0.000 N 
ATOM      2  C   UNL     1       4.808   4.220  18.323  0.00  0.00    +0.000 A 
ATOM      3  N   UNL     1       3.889   5.014  18.822  0.00  0.00    +0.000 NA
ATOM      4  C   UNL     1       2.839   4.302  19.350  0.00  0.00    +0.000 A 
ATOM      5  C   UNL     1       1.709   4.858  19.981  0.00  0.00    +0.000 A 
ATOM      6  C   UNL     1       0.715   4.017  20.482  0.00  0.00    +0.000 A 
ATOM      7  C   UNL     1       0.839   2.635  20.364  0.00  0.00    +0.000 A 
ATOM      8  C   UNL     1       1.954   2.061  19.743  0.00  0.00    +0.000 A 
ATOM      9  C   UNL     1       2.945   2.917  19.237  0.00  0.00    +0.000 A 
ATOM     10  S   UNL     1       4.413   2.540  18.422  0.00  0.00    +0.000 S 
ATOM     11  H   UNL     1       6.577   3.826  17.479  0.00  0.00    +0.000 HD
ENDROOT
BRANCH   1  16
ATOM     12  C   UNL     1       8.859   9.575  18.155  0.00  0.00    +0.000 C 
ATOM     13  C   UNL     1       8.086   8.294  18.090  0.00  0.00    +0.000 A 
ATOM     14  C   UNL     1       8.398   7.233  18.927  0.00  0.00    +0.000 A 
ATOM     15  C   UNL     1       7.686   6.034  18.836  0.00  0.00    +0.000 A 
ATOM     16  C   UNL     1       6.656   5.834  17.899  0.00  0.00    +0.000 A 
ATOM     17  C   UNL     1       6.301   6.935  17.085  0.00  0.00    +0.000 A 
ATOM     18  C   UNL     1       5.197   6.916  16.060  0.00  0.00    +0.000 C 
ATOM     19  C   UNL     1       7.032   8.142  17.183  0.00  0.00    +0.000 A 
ENDBRANCH   1  16
TORSDOF 1
ENDMDL
MODEL 7
REMARK VINA RESULT:      -6.6      3.782      6.047
REMARK  Name = 
REMARK  3 active torsions:
REMARK  status: ('A' for Active; 'I' for Inactive)
REMARK    1  A    between atoms: C_1  and  C_2
REMARK    2  A    between atoms: C_5  and  N_6
REMARK    3  A    between atoms: C_16  and  C_17
REMARK                            x       y       z     vdW  Elec       q    Type
REMARK                         _______ _______ _______ _____ _____    ______ ____
ROOT
ATOM      1  N   UNL     1       2.289   7.934  19.093  0.00  0.00    +0.000 N 
ATOM      2  C   UNL     1       2.433   6.598  18.905  0.00  0.00    +0.000 A 
ATOM      3  N   UNL     1       1.619   5.653  19.318  0.00  0.00    +0.000 NA
ATOM      4  C   UNL     1       2.097   4.403  19.006  0.00  0.00    +0.000 A 
ATOM      5  C   UNL     1       1.473   3.184  19.333  0.00  0.00    +0.000 A 
ATOM      6  C   UNL     1       2.071   1.980  18.961  0.00  0.00    +0.000 A 
ATOM      7  C   UNL     1       3.283   1.981  18.276  0.00  0.00    +0.000 A 
ATOM      8  C   UNL     1       3.923   3.181  17.942  0.00  0.00    +0.000 A 
ATOM      9  C   UNL     1       3.307   4.386  18.316  0.00  0.00    +0.000 A 
ATOM     10  S   UNL     1       3.817   6.009  18.055  0.00  0.00    +0.000 S 
ATOM     11  H   UNL     1       3.044   8.494  18.730  0.00  0.00    +0.000 HD
ENDROOT
BRANCH   1  16
ATOM     12  C   UNL     1      -0.946  10.768  22.929  0.00  0.00    +0.000 C 
ATOM     13  C   UNL     1      -0.137   9.998  21.932  0.00  0.00    +0.000 A 
ATOM     14  C   UNL     1       0.747   9.011  22.343  0.00  0.00    +0.000 A 
ATOM     15  C   UNL     1       1.516   8.320  21.403  0.00  0.00    +0.000 A 
ATOM     16  C   UNL     1       1.454   8.595  20.025  0.00  0.00    +0.000 A 
ATOM     17  C   UNL     1       0.512   9.561  19.601  0.00  0.00    +0.000 A 
ATOM     18  C   UNL     1       0.279   9.951  18.165  0.00  0.00    +0.000 C 
ATOM     19  C   UNL     1      -0.257  10.257  20.563  0.00  0.00    +0.000 A 
ENDBRANCH   1  16
TORSDOF 1
ENDMDL
MODEL 8
REMARK VINA RESULT:      -6.6      3.178      6.746
REMARK  Name = 
REMARK  3 active torsions:
REMARK  status: ('A' for Active; 'I' for Inactive)
REMARK    1  A    between atoms: C_1  and  C_2
REMARK    2  A    between atoms: C_5  and  N_6
REMARK    3  A    between atoms: C_16  and  C_17
REMARK                            x       y       z     vdW  Elec       q    Type
REMARK                         _______ _______ _______ _____ _____    ______ ____
ROOT
ATOM      1  N   UNL     1       6.020   5.047  17.538  0.00  0.00    +0.000 N 
ATOM      2  C   UNL     1       4.867   4.675  18.151  0.00  0.00    +0.000 A 
ATOM      3  N   UNL     1       4.051   5.449  18.829  0.00  0.00    +0.000 NA
ATOM      4  C   UNL     1       3.007   4.734  19.366  0.00  0.00    +0.000 A 
ATOM      5  C   UNL     1       1.978   5.267  20.166  0.00  0.00    +0.000 A 
ATOM      6  C   UNL     1       0.977   4.426  20.654  0.00  0.00    +0.000 A 
ATOM      7  C   UNL     1       0.998   3.066  20.358  0.00  0.00    +0.000 A 
ATOM      8  C   UNL     1       2.012   2.514  19.567  0.00  0.00    +0.000 A 
ATOM      9  C   UNL     1       3.010   3.372  19.076  0.00  0.00    +0.000 A 
ATOM     10  S   UNL     1       4.371   3.021  18.083  0.00  0.00    +0.000 S 
ATOM     11  H   UNL     1       6.524   4.294  17.099  0.00  0.00    +0.000 HD
ENDROOT
BRANCH   1  16
ATOM     12  C   UNL     1       8.923   9.925  18.528  0.00  0.00    +0.000 C 
ATOM     13  C   UNL     1       8.199   8.647  18.238  0.00  0.00    +0.000 A 
ATOM     14  C   UNL     1       7.244   8.584  17.235  0.00  0.00    +0.000 A 
ATOM     15  C   UNL     1       6.556   7.392  16.993  0.00  0.00    +0.000 A 
ATOM     16  C   UNL     1       6.774   6.226  17.750  0.00  0.00    +0.000 A 
ATOM     17  C   UNL     1       7.787   6.275  18.735  0.00  0.00    +0.000 A 
ATOM     18  C   UNL     1       8.185   5.113  19.607  0.00  0.00    +0.000 C 
ATOM     19  C   UNL     1       8.473   7.489  18.973  0.00  0.00    +0.000 A 
ENDBRANCH   1  16
TORSDOF 1
ENDMDL
MODEL 9
REMARK VINA RESULT:      -6.5      3.399      7.274
REMARK  Name = 
REMARK  3 active torsions:
REMARK  status: ('A' for Active; 'I' for Inactive)
REMARK    1  A    between atoms: C_1  and  C_2
REMARK    2  A    between atoms: C_5  and  N_6
REMARK    3  A    between atoms: C_16  and  C_17
REMARK                            x       y       z     vdW  Elec       q    Type
REMARK                         _______ _______ _______ _____ _____    ______ ____
ROOT
ATOM      1  N   UNL     1       3.136   5.928  18.907  0.00  0.00    +0.000 N 
ATOM      2  C   UNL     1       2.435   7.070  19.127  0.00  0.00    +0.000 A 
ATOM      3  N   UNL     1       2.190   8.022  18.256  0.00  0.00    +0.000 NA
ATOM      4  C   UNL     1       1.501   9.064  18.829  0.00  0.00    +0.000 A 
ATOM      5  C   UNL     1       1.110  10.245  18.170  0.00  0.00    +0.000 A 
ATOM      6  C   UNL     1       0.418  11.231  18.873  0.00  0.00    +0.000 A 
ATOM      7  C   UNL     1       0.119  11.053  20.221  0.00  0.00    +0.000 A 
ATOM      8  C   UNL     1       0.499   9.887  20.897  0.00  0.00    +0.000 A 
ATOM      9  C   UNL     1       1.190   8.900  20.176  0.00  0.00    +0.000 A 
ATOM     10  S   UNL     1       1.782   7.371  20.698  0.00  0.00    +0.000 S 
ATOM     11  H   UNL     1       3.244   5.339  19.717  0.00  0.00    +0.000 HD
ENDROOT
BRANCH   1  16
ATOM     12  C   UNL     1       6.905   4.707  14.723  0.00  0.00    +0.000 C 
ATOM     13  C   UNL     1       5.900   5.047  15.779  0.00  0.00    +0.000 A 
ATOM     14  C   UNL     1       5.965   6.254  16.460  0.00  0.00    +0.000 A 
ATOM     15  C   UNL     1       5.037   6.546  17.463  0.00  0.00    +0.000 A 
ATOM     16  C   UNL     1       4.025   5.646  17.843  0.00  0.00    +0.000 A 
ATOM     17  C   UNL     1       3.924   4.441  17.111  0.00  0.00    +0.000 A 
ATOM     18  C   UNL     1       2.879   3.383  17.349  0.00  0.00    +0.000 C 
ATOM     19  C   UNL     1       4.873   4.154  16.100  0.00  0.00    +0.000 A 
ENDBRANCH   1  16
TORSDOF 1
ENDMDL
