MODEL 1
REMARK VINA RESULT:      -7.9      0.000      0.000
REMARK  Name = 
REMARK  5 active torsions:
REMARK  status: ('A' for Active; 'I' for Inactive)
REMARK    1  A    between atoms: C_1  and  N_2
REMARK    2  A    between atoms: N_2  and  C_3
REMARK    3  A    between atoms: N_2  and  C_4
REMARK    4  A    between atoms: C_4  and  C_5
REMARK    5  A    between atoms: C_11  and  C_12
REMARK                            x       y       z     vdW  Elec       q    Type
REMARK                         _______ _______ _______ _____ _____    ______ ____
ROOT
ATOM      1  C   UNL     1       4.639   5.389  18.861  0.00  0.00    +0.000 C 
ATOM      2  C   UNL     1       6.049   5.463  18.211  0.00  0.00    +0.000 C 
ATOM      3  C   UNL     1       6.204   4.482  17.041  0.00  0.00    +0.000 C 
ATOM      4  C   UNL     1       5.255   5.058  15.985  0.00  0.00    +0.000 C 
ATOM      5  C   UNL     1       4.737   6.352  16.646  0.00  0.00    +0.000 C 
ATOM      6  C   UNL     1       5.958   6.792  17.460  0.00  0.00    +0.000 C 
ATOM      7  C   UNL     1       3.703   5.980  17.751  0.00  0.00    +0.000 C 
ENDROOT
BRANCH   7   8
ATOM      8  C   UNL     1       2.842   7.129  18.276  0.00  0.00    +0.000 A 
ATOM      9  C   UNL     1       2.507   8.251  17.508  0.00  0.00    +0.000 A 
ATOM     10  C   UNL     1       1.735   9.291  18.036  0.00  0.00    +0.000 A 
ATOM     11  C   UNL     1       1.277   9.246  19.359  0.00  0.00    +0.000 A 
ATOM     12  C   UNL     1       0.519  10.295  19.906  0.00  0.00    +0.000 A 
ATOM     13  C   UNL     1       0.090  10.244  21.233  0.00  0.00    +0.000 A 
ATOM     14  C   UNL     1       0.405   9.142  22.020  0.00  0.00    +0.000 A 
ATOM     15  C   UNL     1       1.146   8.086  21.484  0.00  0.00    +0.000 A 
ATOM     16  C   UNL     1       1.590   8.124  20.152  0.00  0.00    +0.000 A 
ATOM     17  C   UNL     1       2.352   7.077  19.595  0.00  0.00    +0.000 A 
ENDBRANCH   7   8
BRANCH   1  18
ATOM     18  C   UNL     1       4.209   3.990  19.354  0.00  0.00    +0.000 C 
BRANCH  18  20
ATOM     19  C   UNL     1       3.368   2.154  17.984  0.00  0.00    +0.000 C 
ATOM     20  N   UNL     1       3.054   3.434  18.624  0.00  0.00    +0.000 NA
ATOM     21  C   UNL     1       1.913   3.251  19.525  0.00  0.00    +0.000 C 
ENDBRANCH  18  20
ENDBRANCH   1  18
TORSDOF 3
ENDMDL
MODEL 2
REMARK VINA RESULT:      -7.8      1.307      3.137
REMARK  Name = 
REMARK  5 active torsions:
REMARK  status: ('A' for Active; 'I' for Inactive)
REMARK    1  A    between atoms: C_1  and  N_2
REMARK    2  A    between atoms: N_2  and  C_3
REMARK    3  A    between atoms: N_2  and  C_4
REMARK    4  A    between atoms: C_4  and  C_5
REMARK    5  A    between atoms: C_11  and  C_12
REMARK                            x       y       z     vdW  Elec       q    Type
REMARK                         _______ _______ _______ _____ _____    ______ ____
ROOT
ATOM      1  C   UNL     1       3.524   4.587  17.683  0.00  0.00    +0.000 C 
ATOM      2  C   UNL     1       2.758   3.263  17.407  0.00  0.00    +0.000 C 
ATOM      3  C   UNL     1       3.233   2.116  18.310  0.00  0.00    +0.000 C 
ATOM      4  C   UNL     1       2.764   2.558  19.699  0.00  0.00    +0.000 C 
ATOM      5  C   UNL     1       1.996   3.865  19.412  0.00  0.00    +0.000 C 
ATOM      6  C   UNL     1       1.398   3.573  18.033  0.00  0.00    +0.000 C 
ATOM      7  C   UNL     1       3.020   4.999  19.109  0.00  0.00    +0.000 C 
ENDROOT
BRANCH   7   8
ATOM      8  C   UNL     1       2.467   6.425  19.134  0.00  0.00    +0.000 A 
ATOM      9  C   UNL     1       2.470   7.268  18.015  0.00  0.00    +0.000 A 
ATOM     10  C   UNL     1       1.975   8.575  18.087  0.00  0.00    +0.000 A 
ATOM     11  C   UNL     1       1.466   9.085  19.289  0.00  0.00    +0.000 A 
ATOM     12  C   UNL     1       0.986  10.402  19.378  0.00  0.00    +0.000 A 
ATOM     13  C   UNL     1       0.503  10.902  20.587  0.00  0.00    +0.000 A 
ATOM     14  C   UNL     1       0.487  10.089  21.715  0.00  0.00    +0.000 A 
ATOM     15  C   UNL     1       0.947   8.772  21.636  0.00  0.00    +0.000 A 
ATOM     16  C   UNL     1       1.441   8.255  20.427  0.00  0.00    +0.000 A 
ATOM     17  C   UNL     1       1.926   6.935  20.329  0.00  0.00    +0.000 A 
ENDBRANCH   7   8
BRANCH   1  18
ATOM     18  C   UNL     1       5.061   4.499  17.569  0.00  0.00    +0.000 C 
BRANCH  18  20
ATOM     19  C   UNL     1       5.254   6.116  15.750  0.00  0.00    +0.000 C 
ATOM     20  N   UNL     1       5.570   4.760  16.209  0.00  0.00    +0.000 NA
ATOM     21  C   UNL     1       7.021   4.562  16.154  0.00  0.00    +0.000 C 
ENDBRANCH  18  20
ENDBRANCH   1  18
TORSDOF 3
ENDMDL
MODEL 3
REMARK VINA RESULT:      -7.8      0.976      1.914
REMARK  Name = 
REMARK  5 active torsions:
REMARK  status: ('A' for Active; 'I' for Inactive)
REMARK    1  A    between atoms: C_1  and  N_2
REMARK    2  A    between atoms: N_2  and  C_3
REMARK    3  A    between atoms: N_2  and  C_4
REMARK    4  A    between atoms: C_4  and  C_5
REMARK    5  A    between atoms: C_11  and  C_12
REMARK                            x       y       z     vdW  Elec       q    Type
REMARK                         _______ _______ _______ _____ _____    ______ ____
ROOT
ATOM      1  C   UNL     1       4.596   4.345  17.900  0.00  0.00    +0.000 C 
ATOM      2  C   UNL     1       6.106   4.451  17.548  0.00  0.00    +0.000 C 
ATOM      3  C   UNL     1       6.374   4.221  16.053  0.00  0.00    +0.000 C 
ATOM      4  C   UNL     1       5.732   5.448  15.399  0.00  0.00    +0.000 C 
ATOM      5  C   UNL     1       5.251   6.280  16.606  0.00  0.00    +0.000 C 
ATOM      6  C   UNL     1       6.328   5.960  17.647  0.00  0.00    +0.000 C 
ATOM      7  C   UNL     1       3.980   5.611  17.209  0.00  0.00    +0.000 C 
ENDROOT
BRANCH   7   8
ATOM      8  C   UNL     1       3.175   6.465  18.189  0.00  0.00    +0.000 A 
ATOM      9  C   UNL     1       2.848   6.045  19.485  0.00  0.00    +0.000 A 
ATOM     10  C   UNL     1       2.089   6.849  20.342  0.00  0.00    +0.000 A 
ATOM     11  C   UNL     1       1.623   8.103  19.925  0.00  0.00    +0.000 A 
ATOM     12  C   UNL     1       0.843   8.910  20.770  0.00  0.00    +0.000 A 
ATOM     13  C   UNL     1       0.368  10.146  20.331  0.00  0.00    +0.000 A 
ATOM     14  C   UNL     1       0.677  10.592  19.051  0.00  0.00    +0.000 A 
ATOM     15  C   UNL     1       1.465   9.806  18.206  0.00  0.00    +0.000 A 
ATOM     16  C   UNL     1       1.947   8.556  18.631  0.00  0.00    +0.000 A 
ATOM     17  C   UNL     1       2.729   7.740  17.790  0.00  0.00    +0.000 A 
ENDBRANCH   7   8
BRANCH   1  18
ATOM     18  C   UNL     1       3.912   3.022  17.493  0.00  0.00    +0.000 C 
BRANCH  18  20
ATOM     19  C   UNL     1       4.202   2.594  19.879  0.00  0.00    +0.000 C 
ATOM     20  N   UNL     1       3.543   2.170  18.640  0.00  0.00    +0.000 NA
ATOM     21  C   UNL     1       2.092   2.178  18.844  0.00  0.00    +0.000 C 
ENDBRANCH  18  20
ENDBRANCH   1  18
TORSDOF 3
ENDMDL
MODEL 4
REMARK VINA RESULT:      -7.8      1.177      2.966
REMARK  Name = 
REMARK  5 active torsions:
REMARK  status: ('A' for Active; 'I' for Inactive)
REMARK    1  A    between atoms: C_1  and  N_2
REMARK    2  A    between atoms: N_2  and  C_3
REMARK    3  A    between atoms: N_2  and  C_4
REMARK    4  A    between atoms: C_4  and  C_5
REMARK    5  A    between atoms: C_11  and  C_12
REMARK                            x       y       z     vdW  Elec       q    Type
REMARK                         _______ _______ _______ _____ _____    ______ ____
ROOT
ATOM      1  C   UNL     1       3.342   4.820  17.364  0.00  0.00    +0.000 C 
ATOM      2  C   UNL     1       2.681   3.413  17.385  0.00  0.00    +0.000 C 
ATOM      3  C   UNL     1       3.531   2.381  18.140  0.00  0.00    +0.000 C 
ATOM      4  C   UNL     1       3.453   2.872  19.589  0.00  0.00    +0.000 C 
ATOM      5  C   UNL     1       2.494   4.077  19.503  0.00  0.00    +0.000 C 
ATOM      6  C   UNL     1       1.546   3.635  18.384  0.00  0.00    +0.000 C 
ATOM      7  C   UNL     1       3.247   5.280  18.860  0.00  0.00    +0.000 C 
ENDROOT
BRANCH   7   8
ATOM      8  C   UNL     1       2.571   6.645  18.999  0.00  0.00    +0.000 A 
ATOM      9  C   UNL     1       2.452   7.554  17.940  0.00  0.00    +0.000 A 
ATOM     10  C   UNL     1       1.847   8.803  18.117  0.00  0.00    +0.000 A 
ATOM     11  C   UNL     1       1.346   9.188  19.368  0.00  0.00    +0.000 A 
ATOM     12  C   UNL     1       0.755  10.447  19.561  0.00  0.00    +0.000 A 
ATOM     13  C   UNL     1       0.282  10.824  20.818  0.00  0.00    +0.000 A 
ATOM     14  C   UNL     1       0.385   9.943  21.889  0.00  0.00    +0.000 A 
ATOM     15  C   UNL     1       0.956   8.681  21.706  0.00  0.00    +0.000 A 
ATOM     16  C   UNL     1       1.443   8.289  20.448  0.00  0.00    +0.000 A 
ATOM     17  C   UNL     1       2.038   7.027  20.245  0.00  0.00    +0.000 A 
ENDBRANCH   7   8
BRANCH   1  18
ATOM     18  C   UNL     1       4.774   4.871  16.789  0.00  0.00    +0.000 C 
BRANCH  18  20
ATOM     19  C   UNL     1       6.964   4.707  17.856  0.00  0.00    +0.000 C 
ATOM     20  N   UNL     1       5.751   5.513  17.690  0.00  0.00    +0.000 NA
ATOM     21  C   UNL     1       6.123   6.839  17.188  0.00  0.00    +0.000 C 
ENDBRANCH  18  20
ENDBRANCH   1  18
TORSDOF 3
ENDMDL
MODEL 5
REMARK VINA RESULT:      -7.7      1.481      3.060
REMARK  Name = 
REMARK  5 active torsions:
REMARK  status: ('A' for Active; 'I' for Inactive)
REMARK    1  A    between atoms: C_1  and  N_2
REMARK    2  A    between atoms: N_2  and  C_3
REMARK    3  A    between atoms: N_2  and  C_4
REMARK    4  A    between atoms: C_4  and  C_5
REMARK    5  A    between atoms: C_11  and  C_12
REMARK                            x       y       z     vdW  Elec       q    Type
REMARK                         _______ _______ _______ _____ _____    ______ ____
ROOT
ATOM      1  C   UNL     1       4.119   4.625  18.237  0.00  0.00    +0.000 C 
ATOM      2  C   UNL     1       3.582   3.368  17.498  0.00  0.00    +0.000 C 
ATOM      3  C   UNL     1       3.607   2.115  18.386  0.00  0.00    +0.000 C 
ATOM      4  C   UNL     1       2.548   2.428  19.447  0.00  0.00    +0.000 C 
ATOM      5  C   UNL     1       1.979   3.786  18.987  0.00  0.00    +0.000 C 
ATOM      6  C   UNL     1       2.082   3.662  17.464  0.00  0.00    +0.000 C 
ATOM      7  C   UNL     1       3.012   4.906  19.312  0.00  0.00    +0.000 C 
ENDROOT
BRANCH   7   8
ATOM      8  C   UNL     1       2.490   6.341  19.238  0.00  0.00    +0.000 A 
ATOM      9  C   UNL     1       2.582   7.133  18.086  0.00  0.00    +0.000 A 
ATOM     10  C   UNL     1       2.112   8.450  18.069  0.00  0.00    +0.000 A 
ATOM     11  C   UNL     1       1.538   9.024  19.211  0.00  0.00    +0.000 A 
ATOM     12  C   UNL     1       1.082  10.353  19.211  0.00  0.00    +0.000 A 
ATOM     13  C   UNL     1       0.534  10.915  20.363  0.00  0.00    +0.000 A 
ATOM     14  C   UNL     1       0.427  10.154  21.522  0.00  0.00    +0.000 A 
ATOM     15  C   UNL     1       0.863   8.827  21.531  0.00  0.00    +0.000 A 
ATOM     16  C   UNL     1       1.422   8.246  20.380  0.00  0.00    +0.000 A 
ATOM     17  C   UNL     1       1.884   6.915  20.372  0.00  0.00    +0.000 A 
ENDBRANCH   7   8
BRANCH   1  18
ATOM     18  C   UNL     1       5.538   4.491  18.829  0.00  0.00    +0.000 C 
BRANCH  18  20
ATOM     19  C   UNL     1       7.582   5.804  19.069  0.00  0.00    +0.000 C 
ATOM     20  N   UNL     1       6.545   5.329  18.149  0.00  0.00    +0.000 NA
ATOM     21  C   UNL     1       7.179   4.587  17.055  0.00  0.00    +0.000 C 
ENDBRANCH  18  20
ENDBRANCH   1  18
TORSDOF 3
ENDMDL
MODEL 6
REMARK VINA RESULT:      -7.7      1.251      3.416
REMARK  Name = 
REMARK  5 active torsions:
REMARK  status: ('A' for Active; 'I' for Inactive)
REMARK    1  A    between atoms: C_1  and  N_2
REMARK    2  A    between atoms: N_2  and  C_3
REMARK    3  A    between atoms: N_2  and  C_4
REMARK    4  A    between atoms: C_4  and  C_5
REMARK    5  A    between atoms: C_11  and  C_12
REMARK                            x       y       z     vdW  Elec       q    Type
REMARK                         _______ _______ _______ _____ _____    ______ ____
ROOT
ATOM      1  C   UNL     1       3.227   4.277  19.091  0.00  0.00    +0.000 C 
ATOM      2  C   UNL     1       2.336   3.011  19.236  0.00  0.00    +0.000 C 
ATOM      3  C   UNL     1       2.623   2.241  20.533  0.00  0.00    +0.000 C 
ATOM      4  C   UNL     1       2.121   3.200  21.617  0.00  0.00    +0.000 C 
ATOM      5  C   UNL     1       1.524   4.368  20.806  0.00  0.00    +0.000 C 
ATOM      6  C   UNL     1       0.983   3.639  19.572  0.00  0.00    +0.000 C 
ATOM      7  C   UNL     1       2.685   5.224  20.217  0.00  0.00    +0.000 C 
ENDROOT
BRANCH   7   8
ATOM      8  C   UNL     1       2.295   6.599  19.673  0.00  0.00    +0.000 A 
ATOM      9  C   UNL     1       2.542   7.001  18.354  0.00  0.00    +0.000 A 
ATOM     10  C   UNL     1       2.189   8.277  17.904  0.00  0.00    +0.000 A 
ATOM     11  C   UNL     1       1.581   9.200  18.764  0.00  0.00    +0.000 A 
ATOM     12  C   UNL     1       1.242  10.492  18.328  0.00  0.00    +0.000 A 
ATOM     13  C   UNL     1       0.657  11.406  19.204  0.00  0.00    +0.000 A 
ATOM     14  C   UNL     1       0.398  11.037  20.520  0.00  0.00    +0.000 A 
ATOM     15  C   UNL     1       0.717   9.750  20.962  0.00  0.00    +0.000 A 
ATOM     16  C   UNL     1       1.310   8.819  20.093  0.00  0.00    +0.000 A 
ATOM     17  C   UNL     1       1.656   7.522  20.523  0.00  0.00    +0.000 A 
ENDBRANCH   7   8
BRANCH   1  18
ATOM     18  C   UNL     1       4.748   4.028  19.168  0.00  0.00    +0.000 C 
BRANCH  18  20
ATOM     19  C   UNL     1       4.623   4.380  16.756  0.00  0.00    +0.000 C 
ATOM     20  N   UNL     1       5.475   4.426  17.947  0.00  0.00    +0.000 NA
ATOM     21  C   UNL     1       6.024   5.778  18.090  0.00  0.00    +0.000 C 
ENDBRANCH  18  20
ENDBRANCH   1  18
TORSDOF 3
ENDMDL
MODEL 7
REMARK VINA RESULT:      -7.7      1.283      3.300
REMARK  Name = 
REMARK  5 active torsions:
REMARK  status: ('A' for Active; 'I' for Inactive)
REMARK    1  A    between atoms: C_1  and  N_2
REMARK    2  A    between atoms: N_2  and  C_3
REMARK    3  A    between atoms: N_2  and  C_4
REMARK    4  A    between atoms: C_4  and  C_5
REMARK    5  A    between atoms: C_11  and  C_12
REMARK                            x       y       z     vdW  Elec       q    Type
REMARK                         _______ _______ _______ _____ _____    ______ ____
ROOT
ATOM      1  C   UNL     1       2.301   4.795  18.442  0.00  0.00    +0.000 C 
ATOM      2  C   UNL     1       1.628   3.466  18.888  0.00  0.00    +0.000 C 
ATOM      3  C   UNL     1       2.611   2.527  19.602  0.00  0.00    +0.000 C 
ATOM      4  C   UNL     1       2.910   3.272  20.906  0.00  0.00    +0.000 C 
ATOM      5  C   UNL     1       1.992   4.509  20.823  0.00  0.00    +0.000 C 
ATOM      6  C   UNL     1       0.783   3.945  20.069  0.00  0.00    +0.000 C 
ATOM      7  C   UNL     1       2.593   5.520  19.801  0.00  0.00    +0.000 C 
ENDROOT
BRANCH   7   8
ATOM      8  C   UNL     1       2.010   6.933  19.835  0.00  0.00    +0.000 A 
ATOM      9  C   UNL     1       2.107   7.829  18.762  0.00  0.00    +0.000 A 
ATOM     10  C   UNL     1       1.579   9.122  18.844  0.00  0.00    +0.000 A 
ATOM     11  C   UNL     1       0.942   9.566  20.010  0.00  0.00    +0.000 A 
ATOM     12  C   UNL     1       0.428  10.870  20.110  0.00  0.00    +0.000 A 
ATOM     13  C   UNL     1      -0.184  11.303  21.286  0.00  0.00    +0.000 A 
ATOM     14  C   UNL     1      -0.296  10.436  22.368  0.00  0.00    +0.000 A 
ATOM     15  C   UNL     1       0.198   9.133  22.276  0.00  0.00    +0.000 A 
ATOM     16  C   UNL     1       0.821   8.682  21.100  0.00  0.00    +0.000 A 
ATOM     17  C   UNL     1       1.341   7.377  20.991  0.00  0.00    +0.000 A 
ENDBRANCH   7   8
BRANCH   1  18
ATOM     18  C   UNL     1       3.545   4.638  17.542  0.00  0.00    +0.000 C 
BRANCH  18  20
ATOM     19  C   UNL     1       5.869   4.473  18.274  0.00  0.00    +0.000 C 
ATOM     20  N   UNL     1       4.730   5.366  18.039  0.00  0.00    +0.000 NA
ATOM     21  C   UNL     1       5.129   6.410  17.091  0.00  0.00    +0.000 C 
ENDBRANCH  18  20
ENDBRANCH   1  18
TORSDOF 3
ENDMDL
MODEL 8
REMARK VINA RESULT:      -7.6      1.363      3.573
REMARK  Name = 
REMARK  5 active torsions:
REMARK  status: ('A' for Active; 'I' for Inactive)
REMARK    1  A    between atoms: C_1  and  N_2
REMARK    2  A    between atoms: N_2  and  C_3
REMARK    3  A    between atoms: N_2  and  C_4
REMARK    4  A    between atoms: C_4  and  C_5
REMARK    5  A    between atoms: C_11  and  C_12
REMARK                            x       y       z     vdW  Elec       q    Type
REMARK                         _______ _______ _______ _____ _____    ______ ____
ROOT
ATOM      1  C   UNL     1       3.676   4.581  18.079  0.00  0.00    +0.000 C 
ATOM      2  C   UNL     1       2.982   3.451  17.267  0.00  0.00    +0.000 C 
ATOM      3  C   UNL     1       3.175   2.069  17.909  0.00  0.00    +0.000 C 
ATOM      4  C   UNL     1       2.361   2.178  19.201  0.00  0.00    +0.000 C 
ATOM      5  C   UNL     1       1.726   3.580  19.102  0.00  0.00    +0.000 C 
ATOM      6  C   UNL     1       1.512   3.714  17.591  0.00  0.00    +0.000 C 
ATOM      7  C   UNL     1       2.818   4.654  19.390  0.00  0.00    +0.000 C 
ENDROOT
BRANCH   7   8
ATOM      8  C   UNL     1       2.309   6.069  19.666  0.00  0.00    +0.000 A 
ATOM      9  C   UNL     1       1.661   6.434  20.853  0.00  0.00    +0.000 A 
ATOM     10  C   UNL     1       1.191   7.736  21.055  0.00  0.00    +0.000 A 
ATOM     11  C   UNL     1       1.348   8.718  20.068  0.00  0.00    +0.000 A 
ATOM     12  C   UNL     1       0.861  10.023  20.252  0.00  0.00    +0.000 A 
ATOM     13  C   UNL     1       1.005  10.983  19.250  0.00  0.00    +0.000 A 
ATOM     14  C   UNL     1       1.646  10.651  18.061  0.00  0.00    +0.000 A 
ATOM     15  C   UNL     1       2.148   9.361  17.872  0.00  0.00    +0.000 A 
ATOM     16  C   UNL     1       2.006   8.382  18.869  0.00  0.00    +0.000 A 
ATOM     17  C   UNL     1       2.490   7.070  18.692  0.00  0.00    +0.000 A 
ENDBRANCH   7   8
BRANCH   1  18
ATOM     18  C   UNL     1       5.185   4.382  18.336  0.00  0.00    +0.000 C 
BRANCH  18  20
ATOM     19  C   UNL     1       5.894   6.396  17.153  0.00  0.00    +0.000 C 
ATOM     20  N   UNL     1       6.044   4.943  17.276  0.00  0.00    +0.000 NA
ATOM     21  C   UNL     1       7.453   4.628  17.532  0.00  0.00    +0.000 C 
ENDBRANCH  18  20
ENDBRANCH   1  18
TORSDOF 3
ENDMDL
MODEL 9
REMARK VINA RESULT:      -7.6      1.052      1.350
REMARK  Name = 
REMARK  5 active torsions:
REMARK  status: ('A' for Active; 'I' for Inactive)
REMARK    1  A    between atoms: C_1  and  N_2
REMARK    2  A    between atoms: N_2  and  C_3
REMARK    3  A    between atoms: N_2  and  C_4
REMARK    4  A    between atoms: C_4  and  C_5
REMARK    5  A    between atoms: C_11  and  C_12
REMARK                            x       y       z     vdW  Elec       q    Type
REMARK                         _______ _______ _______ _____ _____    ______ ____
ROOT
ATOM      1  C   UNL     1       2.783   5.023  18.534  0.00  0.00    +0.000 C 
ATOM      2  C   UNL     1       4.243   4.520  18.716  0.00  0.00    +0.000 C 
ATOM      3  C   UNL     1       4.867   4.052  17.393  0.00  0.00    +0.000 C 
ATOM      4  C   UNL     1       4.998   5.355  16.599  0.00  0.00    +0.000 C 
ATOM      5  C   UNL     1       4.516   6.427  17.597  0.00  0.00    +0.000 C 
ATOM      6  C   UNL     1       4.986   5.839  18.931  0.00  0.00    +0.000 C 
ATOM      7  C   UNL     1       2.964   6.349  17.716  0.00  0.00    +0.000 C 
ENDROOT
BRANCH   7   8
ATOM      8  C   UNL     1       2.283   7.539  18.392  0.00  0.00    +0.000 A 
ATOM      9  C   UNL     1       1.982   8.733  17.723  0.00  0.00    +0.000 A 
ATOM     10  C   UNL     1       1.378   9.806  18.386  0.00  0.00    +0.000 A 
ATOM     11  C   UNL     1       1.062   9.724  19.749  0.00  0.00    +0.000 A 
ATOM     12  C   UNL     1       0.475  10.803  20.429  0.00  0.00    +0.000 A 
ATOM     13  C   UNL     1       0.187  10.712  21.791  0.00  0.00    +0.000 A 
ATOM     14  C   UNL     1       0.473   9.540  22.482  0.00  0.00    +0.000 A 
ATOM     15  C   UNL     1       1.043   8.454  21.814  0.00  0.00    +0.000 A 
ATOM     16  C   UNL     1       1.343   8.531  20.443  0.00  0.00    +0.000 A 
ATOM     17  C   UNL     1       1.934   7.453  19.753  0.00  0.00    +0.000 A 
ENDBRANCH   7   8
BRANCH   1  18
ATOM     18  C   UNL     1       1.812   4.018  17.880  0.00  0.00    +0.000 C 
BRANCH  18  20
ATOM     19  C   UNL     1       1.755   1.900  19.092  0.00  0.00    +0.000 C 
ATOM     20  N   UNL     1       1.083   3.181  18.852  0.00  0.00    +0.000 NA
ATOM     21  C   UNL     1       0.930   3.886  20.128  0.00  0.00    +0.000 C 
ENDBRANCH  18  20
ENDBRANCH   1  18
TORSDOF 3
ENDMDL
