MODEL 1
REMARK VINA RESULT:      -7.3      0.000      0.000
REMARK  Name = 
REMARK  7 active torsions:
REMARK  status: ('A' for Active; 'I' for Inactive)
REMARK    1  A    between atoms: C_1  and  C_2
REMARK    2  A    between atoms: C_3  and  C_4
REMARK    3  A    between atoms: C_4  and  C_5
REMARK    4  A    between atoms: C_5  and  C_6
REMARK    5  A    between atoms: C_6  and  N_7
REMARK    6  A    between atoms: N_14  and  C_15
REMARK    7  A    between atoms: C_15  and  C_16
REMARK                            x       y       z     vdW  Elec       q    Type
REMARK                         _______ _______ _______ _____ _____    ______ ____
ROOT
ATOM      1  C   UNL     1       2.763   7.927  18.185  0.00  0.00    +0.000 C 
ATOM      2  C   UNL     1       2.712   6.606  18.896  0.00  0.00    +0.000 A 
ATOM      3  C   UNL     1       1.927   6.277  20.013  0.00  0.00    +0.000 A 
ATOM      4  C   UNL     1       2.290   4.982  20.346  0.00  0.00    +0.000 A 
ATOM      5  C   UNL     1       1.850   4.145  21.377  0.00  0.00    +0.000 A 
ATOM      6  C   UNL     1       2.422   2.868  21.484  0.00  0.00    +0.000 A 
ATOM      7  C   UNL     1       3.411   2.451  20.571  0.00  0.00    +0.000 A 
ATOM      8  C   UNL     1       3.833   3.304  19.536  0.00  0.00    +0.000 A 
ATOM      9  C   UNL     1       3.249   4.576  19.449  0.00  0.00    +0.000 A 
ATOM     10  N   UNL     1       3.492   5.548  18.541  0.00  0.00    +0.000 N 
ENDROOT
BRANCH   3  11
ATOM     11  C   UNL     1       0.918   7.131  20.758  0.00  0.00    +0.000 C 
BRANCH  11  12
ATOM     12  C   UNL     1       1.512   8.319  21.536  0.00  0.00    +0.000 C 
BRANCH  12  13
ATOM     13  C   UNL     1       0.485   9.396  21.904  0.00  0.00    +0.000 C 
BRANCH  13  14
ATOM     14  N   UNL     1       0.552   9.672  23.338  0.00  0.00    +0.000 NA
ATOM     15  H   UNL     1      -0.380   9.481  23.773  0.00  0.00    +0.000 HD
ATOM     16  H   UNL     1       0.772  10.684  23.478  0.00  0.00    +0.000 HD
ENDBRANCH  13  14
ENDBRANCH  12  13
ENDBRANCH  11  12
ENDBRANCH   3  11
BRANCH  10  17
ATOM     17  C   UNL     1       4.392   5.489  17.380  0.00  0.00    +0.000 C 
BRANCH  17  18
ATOM     18  C   UNL     1       5.747   6.032  17.773  0.00  0.00    +0.000 A 
ATOM     19  C   UNL     1       6.521   5.423  18.777  0.00  0.00    +0.000 A 
ATOM     20  C   UNL     1       7.766   5.962  19.131  0.00  0.00    +0.000 A 
ATOM     21  C   UNL     1       8.248   7.104  18.482  0.00  0.00    +0.000 A 
ATOM     22  C   UNL     1       7.489   7.708  17.481  0.00  0.00    +0.000 A 
ATOM     23  C   UNL     1       6.246   7.178  17.128  0.00  0.00    +0.000 A 
ENDBRANCH  17  18
ENDBRANCH  10  17
TORSDOF 6
ENDMDL
MODEL 2
REMARK VINA RESULT:      -7.1      1.794      4.028
REMARK  Name = 
REMARK  7 active torsions:
REMARK  status: ('A' for Active; 'I' for Inactive)
REMARK    1  A    between atoms: C_1  and  C_2
REMARK    2  A    between atoms: C_3  and  C_4
REMARK    3  A    between atoms: C_4  and  C_5
REMARK    4  A    between atoms: C_5  and  C_6
REMARK    5  A    between atoms: C_6  and  N_7
REMARK    6  A    between atoms: N_14  and  C_15
REMARK    7  A    between atoms: C_15  and  C_16
REMARK                            x       y       z     vdW  Elec       q    Type
REMARK                         _______ _______ _______ _____ _____    ______ ____
ROOT
ATOM      1  C   UNL     1       4.183   3.083  18.838  0.00  0.00    +0.000 C 
ATOM      2  C   UNL     1       3.549   4.414  19.119  0.00  0.00    +0.000 A 
ATOM      3  C   UNL     1       2.665   4.725  20.165  0.00  0.00    +0.000 A 
ATOM      4  C   UNL     1       2.297   6.043  19.952  0.00  0.00    +0.000 A 
ATOM      5  C   UNL     1       1.431   6.878  20.666  0.00  0.00    +0.000 A 
ATOM      6  C   UNL     1       1.231   8.184  20.196  0.00  0.00    +0.000 A 
ATOM      7  C   UNL     1       1.892   8.633  19.035  0.00  0.00    +0.000 A 
ATOM      8  C   UNL     1       2.766   7.782  18.336  0.00  0.00    +0.000 A 
ATOM      9  C   UNL     1       2.950   6.480  18.824  0.00  0.00    +0.000 A 
ATOM     10  N   UNL     1       3.740   5.503  18.325  0.00  0.00    +0.000 N 
ENDROOT
BRANCH   3  11
ATOM     11  C   UNL     1       2.158   3.835  21.285  0.00  0.00    +0.000 C 
BRANCH  11  12
ATOM     12  C   UNL     1       1.149   2.755  20.857  0.00  0.00    +0.000 C 
BRANCH  12  13
ATOM     13  C   UNL     1       0.440   3.057  19.532  0.00  0.00    +0.000 C 
BRANCH  13  14
ATOM     14  N   UNL     1       0.747   2.011  18.558  0.00  0.00    +0.000 NA
ATOM     15  H   UNL     1       1.729   2.128  18.220  0.00  0.00    +0.000 HD
ATOM     16  H   UNL     1       0.109   2.115  17.737  0.00  0.00    +0.000 HD
ENDBRANCH  13  14
ENDBRANCH  12  13
ENDBRANCH  11  12
ENDBRANCH   3  11
BRANCH  10  17
ATOM     17  C   UNL     1       4.651   5.584  17.174  0.00  0.00    +0.000 C 
BRANCH  17  18
ATOM     18  C   UNL     1       5.936   6.258  17.604  0.00  0.00    +0.000 A 
ATOM     19  C   UNL     1       6.301   7.525  17.116  0.00  0.00    +0.000 A 
ATOM     20  C   UNL     1       7.508   8.113  17.519  0.00  0.00    +0.000 A 
ATOM     21  C   UNL     1       8.350   7.447  18.416  0.00  0.00    +0.000 A 
ATOM     22  C   UNL     1       7.990   6.194  18.910  0.00  0.00    +0.000 A 
ATOM     23  C   UNL     1       6.792   5.601  18.506  0.00  0.00    +0.000 A 
ENDBRANCH  17  18
ENDBRANCH  10  17
TORSDOF 6
ENDMDL
MODEL 3
REMARK VINA RESULT:      -7.1      0.346      1.112
REMARK  Name = 
REMARK  7 active torsions:
REMARK  status: ('A' for Active; 'I' for Inactive)
REMARK    1  A    between atoms: C_1  and  C_2
REMARK    2  A    between atoms: C_3  and  C_4
REMARK    3  A    between atoms: C_4  and  C_5
REMARK    4  A    between atoms: C_5  and  C_6
REMARK    5  A    between atoms: C_6  and  N_7
REMARK    6  A    between atoms: N_14  and  C_15
REMARK    7  A    between atoms: C_15  and  C_16
REMARK                            x       y       z     vdW  Elec       q    Type
REMARK                         _______ _______ _______ _____ _____    ______ ____
ROOT
ATOM      1  C   UNL     1       2.699   7.813  18.221  0.00  0.00    +0.000 C 
ATOM      2  C   UNL     1       2.687   6.491  18.932  0.00  0.00    +0.000 A 
ATOM      3  C   UNL     1       1.922   6.145  20.058  0.00  0.00    +0.000 A 
ATOM      4  C   UNL     1       2.319   4.858  20.387  0.00  0.00    +0.000 A 
ATOM      5  C   UNL     1       1.909   4.011  21.422  0.00  0.00    +0.000 A 
ATOM      6  C   UNL     1       2.511   2.748  21.522  0.00  0.00    +0.000 A 
ATOM      7  C   UNL     1       3.499   2.354  20.598  0.00  0.00    +0.000 A 
ATOM      8  C   UNL     1       3.891   3.216  19.559  0.00  0.00    +0.000 A 
ATOM      9  C   UNL     1       3.276   4.474  19.479  0.00  0.00    +0.000 A 
ATOM     10  N   UNL     1       3.487   5.451  18.569  0.00  0.00    +0.000 N 
ENDROOT
BRANCH   3  11
ATOM     11  C   UNL     1       0.902   6.975  20.814  0.00  0.00    +0.000 C 
BRANCH  11  12
ATOM     12  C   UNL     1       1.438   8.291  21.406  0.00  0.00    +0.000 C 
BRANCH  12  13
ATOM     13  C   UNL     1       0.356   9.351  21.644  0.00  0.00    +0.000 C 
BRANCH  13  14
ATOM     14  N   UNL     1      -0.546   8.906  22.704  0.00  0.00    +0.000 NA
ATOM     15  H   UNL     1      -0.410   9.504  23.551  0.00  0.00    +0.000 HD
ATOM     16  H   UNL     1      -0.306   7.922  22.962  0.00  0.00    +0.000 HD
ENDBRANCH  13  14
ENDBRANCH  12  13
ENDBRANCH  11  12
ENDBRANCH   3  11
BRANCH  10  17
ATOM     17  C   UNL     1       4.375   5.413  17.397  0.00  0.00    +0.000 C 
BRANCH  17  18
ATOM     18  C   UNL     1       5.709   6.022  17.765  0.00  0.00    +0.000 A 
ATOM     19  C   UNL     1       6.186   7.185  17.134  0.00  0.00    +0.000 A 
ATOM     20  C   UNL     1       7.436   7.714  17.484  0.00  0.00    +0.000 A 
ATOM     21  C   UNL     1       8.211   7.094  18.470  0.00  0.00    +0.000 A 
ATOM     22  C   UNL     1       7.740   5.945  19.106  0.00  0.00    +0.000 A 
ATOM     23  C   UNL     1       6.499   5.411  18.756  0.00  0.00    +0.000 A 
ENDBRANCH  17  18
ENDBRANCH  10  17
TORSDOF 6
ENDMDL
MODEL 4
REMARK VINA RESULT:      -7.0      2.699      7.174
REMARK  Name = 
REMARK  7 active torsions:
REMARK  status: ('A' for Active; 'I' for Inactive)
REMARK    1  A    between atoms: C_1  and  C_2
REMARK    2  A    between atoms: C_3  and  C_4
REMARK    3  A    between atoms: C_4  and  C_5
REMARK    4  A    between atoms: C_5  and  C_6
REMARK    5  A    between atoms: C_6  and  N_7
REMARK    6  A    between atoms: N_14  and  C_15
REMARK    7  A    between atoms: C_15  and  C_16
REMARK                            x       y       z     vdW  Elec       q    Type
REMARK                         _______ _______ _______ _____ _____    ______ ____
ROOT
ATOM      1  C   UNL     1       3.845   2.540  16.757  0.00  0.00    +0.000 C 
ATOM      2  C   UNL     1       4.790   3.656  17.095  0.00  0.00    +0.000 A 
ATOM      3  C   UNL     1       5.380   4.563  16.200  0.00  0.00    +0.000 A 
ATOM      4  C   UNL     1       6.229   5.339  16.973  0.00  0.00    +0.000 A 
ATOM      5  C   UNL     1       7.082   6.390  16.622  0.00  0.00    +0.000 A 
ATOM      6  C   UNL     1       7.851   6.986  17.632  0.00  0.00    +0.000 A 
ATOM      7  C   UNL     1       7.757   6.531  18.962  0.00  0.00    +0.000 A 
ATOM      8  C   UNL     1       6.887   5.479  19.298  0.00  0.00    +0.000 A 
ATOM      9  C   UNL     1       6.128   4.898  18.271  0.00  0.00    +0.000 A 
ATOM     10  N   UNL     1       5.231   3.891  18.362  0.00  0.00    +0.000 N 
ENDROOT
BRANCH   3  11
ATOM     11  C   UNL     1       5.196   4.683  14.699  0.00  0.00    +0.000 C 
BRANCH  11  12
ATOM     12  C   UNL     1       6.205   3.889  13.850  0.00  0.00    +0.000 C 
BRANCH  12  13
ATOM     13  C   UNL     1       5.677   3.496  12.464  0.00  0.00    +0.000 C 
BRANCH  13  14
ATOM     14  N   UNL     1       6.346   2.280  12.008  0.00  0.00    +0.000 NA
ATOM     15  H   UNL     1       6.690   2.418  11.030  0.00  0.00    +0.000 HD
ATOM     16  H   UNL     1       5.655   1.496  11.999  0.00  0.00    +0.000 HD
ENDBRANCH  13  14
ENDBRANCH  12  13
ENDBRANCH  11  12
ENDBRANCH   3  11
BRANCH  10  17
ATOM     17  C   UNL     1       4.783   3.192  19.575  0.00  0.00    +0.000 C 
BRANCH  17  18
ATOM     18  C   UNL     1       3.372   3.624  19.906  0.00  0.00    +0.000 A 
ATOM     19  C   UNL     1       3.038   4.980  20.070  0.00  0.00    +0.000 A 
ATOM     20  C   UNL     1       1.724   5.347  20.395  0.00  0.00    +0.000 A 
ATOM     21  C   UNL     1       0.738   4.367  20.550  0.00  0.00    +0.000 A 
ATOM     22  C   UNL     1       1.062   3.021  20.381  0.00  0.00    +0.000 A 
ATOM     23  C   UNL     1       2.369   2.651  20.063  0.00  0.00    +0.000 A 
ENDBRANCH  17  18
ENDBRANCH  10  17
TORSDOF 6
ENDMDL
MODEL 5
REMARK VINA RESULT:      -7.0      2.760      4.685
REMARK  Name = 
REMARK  7 active torsions:
REMARK  status: ('A' for Active; 'I' for Inactive)
REMARK    1  A    between atoms: C_1  and  C_2
REMARK    2  A    between atoms: C_3  and  C_4
REMARK    3  A    between atoms: C_4  and  C_5
REMARK    4  A    between atoms: C_5  and  C_6
REMARK    5  A    between atoms: C_6  and  N_7
REMARK    6  A    between atoms: N_14  and  C_15
REMARK    7  A    between atoms: C_15  and  C_16
REMARK                            x       y       z     vdW  Elec       q    Type
REMARK                         _______ _______ _______ _____ _____    ______ ____
ROOT
ATOM      1  C   UNL     1       3.872   2.003  17.931  0.00  0.00    +0.000 C 
ATOM      2  C   UNL     1       3.625   3.483  17.948  0.00  0.00    +0.000 A 
ATOM      3  C   UNL     1       2.420   4.135  18.253  0.00  0.00    +0.000 A 
ATOM      4  C   UNL     1       2.672   5.483  18.051  0.00  0.00    +0.000 A 
ATOM      5  C   UNL     1       1.841   6.599  18.187  0.00  0.00    +0.000 A 
ATOM      6  C   UNL     1       2.374   7.862  17.888  0.00  0.00    +0.000 A 
ATOM      7  C   UNL     1       3.712   7.990  17.467  0.00  0.00    +0.000 A 
ATOM      8  C   UNL     1       4.535   6.856  17.346  0.00  0.00    +0.000 A 
ATOM      9  C   UNL     1       3.980   5.604  17.648  0.00  0.00    +0.000 A 
ATOM     10  N   UNL     1       4.580   4.393  17.610  0.00  0.00    +0.000 N 
ENDROOT
BRANCH   3  11
ATOM     11  C   UNL     1       1.090   3.539  18.675  0.00  0.00    +0.000 C 
BRANCH  11  12
ATOM     12  C   UNL     1       0.811   3.566  20.189  0.00  0.00    +0.000 C 
BRANCH  12  13
ATOM     13  C   UNL     1       1.605   2.524  20.985  0.00  0.00    +0.000 C 
BRANCH  13  14
ATOM     14  N   UNL     1       2.208   3.155  22.157  0.00  0.00    +0.000 NA
ATOM     15  H   UNL     1       1.592   3.005  22.989  0.00  0.00    +0.000 HD
ATOM     16  H   UNL     1       2.279   4.184  21.989  0.00  0.00    +0.000 HD
ENDBRANCH  13  14
ENDBRANCH  12  13
ENDBRANCH  11  12
ENDBRANCH   3  11
BRANCH  10  17
ATOM     17  C   UNL     1       5.986   4.095  17.298  0.00  0.00    +0.000 C 
BRANCH  17  18
ATOM     18  C   UNL     1       6.200   4.218  15.806  0.00  0.00    +0.000 A 
ATOM     19  C   UNL     1       5.349   3.581  14.885  0.00  0.00    +0.000 A 
ATOM     20  C   UNL     1       5.587   3.699  13.509  0.00  0.00    +0.000 A 
ATOM     21  C   UNL     1       6.666   4.458  13.044  0.00  0.00    +0.000 A 
ATOM     22  C   UNL     1       7.509   5.098  13.952  0.00  0.00    +0.000 A 
ATOM     23  C   UNL     1       7.280   4.979  15.323  0.00  0.00    +0.000 A 
ENDBRANCH  17  18
ENDBRANCH  10  17
TORSDOF 6
ENDMDL
MODEL 6
REMARK VINA RESULT:      -6.9      1.834      3.912
REMARK  Name = 
REMARK  7 active torsions:
REMARK  status: ('A' for Active; 'I' for Inactive)
REMARK    1  A    between atoms: C_1  and  C_2
REMARK    2  A    between atoms: C_3  and  C_4
REMARK    3  A    between atoms: C_4  and  C_5
REMARK    4  A    between atoms: C_5  and  C_6
REMARK    5  A    between atoms: C_6  and  N_7
REMARK    6  A    between atoms: N_14  and  C_15
REMARK    7  A    between atoms: C_15  and  C_16
REMARK                            x       y       z     vdW  Elec       q    Type
REMARK                         _______ _______ _______ _____ _____    ______ ____
ROOT
ATOM      1  C   UNL     1       4.342   3.035  18.968  0.00  0.00    +0.000 C 
ATOM      2  C   UNL     1       3.679   4.364  19.180  0.00  0.00    +0.000 A 
ATOM      3  C   UNL     1       2.758   4.697  20.186  0.00  0.00    +0.000 A 
ATOM      4  C   UNL     1       2.376   6.001  19.914  0.00  0.00    +0.000 A 
ATOM      5  C   UNL     1       1.475   6.846  20.570  0.00  0.00    +0.000 A 
ATOM      6  C   UNL     1       1.269   8.131  20.046  0.00  0.00    +0.000 A 
ATOM      7  C   UNL     1       1.959   8.549  18.891  0.00  0.00    +0.000 A 
ATOM      8  C   UNL     1       2.868   7.688  18.251  0.00  0.00    +0.000 A 
ATOM      9  C   UNL     1       3.057   6.408  18.792  0.00  0.00    +0.000 A 
ATOM     10  N   UNL     1       3.877   5.427  18.353  0.00  0.00    +0.000 N 
ENDROOT
BRANCH   3  11
ATOM     11  C   UNL     1       2.230   3.840  21.322  0.00  0.00    +0.000 C 
BRANCH  11  12
ATOM     12  C   UNL     1       1.007   2.972  20.973  0.00  0.00    +0.000 C 
BRANCH  12  13
ATOM     13  C   UNL     1       1.229   2.039  19.777  0.00  0.00    +0.000 C 
BRANCH  13  14
ATOM     14  N   UNL     1       0.347   2.429  18.678  0.00  0.00    +0.000 NA
ATOM     15  H   UNL     1      -0.621   2.086  18.871  0.00  0.00    +0.000 HD
ATOM     16  H   UNL     1       0.681   1.974  17.798  0.00  0.00    +0.000 HD
ENDBRANCH  13  14
ENDBRANCH  12  13
ENDBRANCH  11  12
ENDBRANCH   3  11
BRANCH  10  17
ATOM     17  C   UNL     1       4.823   5.482  17.228  0.00  0.00    +0.000 C 
BRANCH  17  18
ATOM     18  C   UNL     1       6.090   6.176  17.678  0.00  0.00    +0.000 A 
ATOM     19  C   UNL     1       6.926   5.618  18.661  0.00  0.00    +0.000 A 
ATOM     20  C   UNL     1       8.083   6.296  19.069  0.00  0.00    +0.000 A 
ATOM     21  C   UNL     1       8.417   7.527  18.493  0.00  0.00    +0.000 A 
ATOM     22  C   UNL     1       7.596   8.082  17.512  0.00  0.00    +0.000 A 
ATOM     23  C   UNL     1       6.439   7.413  17.107  0.00  0.00    +0.000 A 
ENDBRANCH  17  18
ENDBRANCH  10  17
TORSDOF 6
ENDMDL
MODEL 7
REMARK VINA RESULT:      -6.8      2.585      4.661
REMARK  Name = 
REMARK  7 active torsions:
REMARK  status: ('A' for Active; 'I' for Inactive)
REMARK    1  A    between atoms: C_1  and  C_2
REMARK    2  A    between atoms: C_3  and  C_4
REMARK    3  A    between atoms: C_4  and  C_5
REMARK    4  A    between atoms: C_5  and  C_6
REMARK    5  A    between atoms: C_6  and  N_7
REMARK    6  A    between atoms: N_14  and  C_15
REMARK    7  A    between atoms: C_15  and  C_16
REMARK                            x       y       z     vdW  Elec       q    Type
REMARK                         _______ _______ _______ _____ _____    ______ ____
ROOT
ATOM      1  C   UNL     1       4.687   2.667  19.898  0.00  0.00    +0.000 C 
ATOM      2  C   UNL     1       4.215   4.024  19.464  0.00  0.00    +0.000 A 
ATOM      3  C   UNL     1       2.997   4.639  19.793  0.00  0.00    +0.000 A 
ATOM      4  C   UNL     1       2.990   5.834  19.092  0.00  0.00    +0.000 A 
ATOM      5  C   UNL     1       2.030   6.849  19.024  0.00  0.00    +0.000 A 
ATOM      6  C   UNL     1       2.291   7.954  18.199  0.00  0.00    +0.000 A 
ATOM      7  C   UNL     1       3.493   8.029  17.467  0.00  0.00    +0.000 A 
ATOM      8  C   UNL     1       4.449   7.003  17.557  0.00  0.00    +0.000 A 
ATOM      9  C   UNL     1       4.167   5.908  18.386  0.00  0.00    +0.000 A 
ATOM     10  N   UNL     1       4.935   4.822  18.628  0.00  0.00    +0.000 N 
ENDROOT
BRANCH   3  11
ATOM     11  C   UNL     1       1.878   4.131  20.684  0.00  0.00    +0.000 C 
BRANCH  11  12
ATOM     12  C   UNL     1       0.721   3.432  19.948  0.00  0.00    +0.000 C 
BRANCH  12  13
ATOM     13  C   UNL     1       1.103   2.887  18.567  0.00  0.00    +0.000 C 
BRANCH  13  14
ATOM     14  N   UNL     1       1.537   1.496  18.688  0.00  0.00    +0.000 NA
ATOM     15  H   UNL     1       1.169   0.945  17.879  0.00  0.00    +0.000 HD
ATOM     16  H   UNL     1       1.134   1.092  19.564  0.00  0.00    +0.000 HD
ENDBRANCH  13  14
ENDBRANCH  12  13
ENDBRANCH  11  12
ENDBRANCH   3  11
BRANCH  10  17
ATOM     17  C   UNL     1       6.289   4.549  18.126  0.00  0.00    +0.000 C 
BRANCH  17  18
ATOM     18  C   UNL     1       6.250   4.453  16.617  0.00  0.00    +0.000 A 
ATOM     19  C   UNL     1       5.269   3.695  15.953  0.00  0.00    +0.000 A 
ATOM     20  C   UNL     1       5.272   3.612  14.554  0.00  0.00    +0.000 A 
ATOM     21  C   UNL     1       6.244   4.289  13.810  0.00  0.00    +0.000 A 
ATOM     22  C   UNL     1       7.215   5.049  14.463  0.00  0.00    +0.000 A 
ATOM     23  C   UNL     1       7.220   5.130  15.856  0.00  0.00    +0.000 A 
ENDBRANCH  17  18
ENDBRANCH  10  17
TORSDOF 6
ENDMDL
MODEL 8
REMARK VINA RESULT:      -6.8      2.969      4.034
REMARK  Name = 
REMARK  7 active torsions:
REMARK  status: ('A' for Active; 'I' for Inactive)
REMARK    1  A    between atoms: C_1  and  C_2
REMARK    2  A    between atoms: C_3  and  C_4
REMARK    3  A    between atoms: C_4  and  C_5
REMARK    4  A    between atoms: C_5  and  C_6
REMARK    5  A    between atoms: C_6  and  N_7
REMARK    6  A    between atoms: N_14  and  C_15
REMARK    7  A    between atoms: C_15  and  C_16
REMARK                            x       y       z     vdW  Elec       q    Type
REMARK                         _______ _______ _______ _____ _____    ______ ____
ROOT
ATOM      1  C   UNL     1       6.364   7.211  17.325  0.00  0.00    +0.000 C 
ATOM      2  C   UNL     1       5.205   6.262  17.412  0.00  0.00    +0.000 A 
ATOM      3  C   UNL     1       3.885   6.571  17.777  0.00  0.00    +0.000 A 
ATOM      4  C   UNL     1       3.216   5.358  17.789  0.00  0.00    +0.000 A 
ATOM      5  C   UNL     1       1.885   5.051  18.091  0.00  0.00    +0.000 A 
ATOM      6  C   UNL     1       1.487   3.707  18.039  0.00  0.00    +0.000 A 
ATOM      7  C   UNL     1       2.411   2.702  17.689  0.00  0.00    +0.000 A 
ATOM      8  C   UNL     1       3.742   3.032  17.379  0.00  0.00    +0.000 A 
ATOM      9  C   UNL     1       4.118   4.382  17.439  0.00  0.00    +0.000 A 
ATOM     10  N   UNL     1       5.328   4.926  17.178  0.00  0.00    +0.000 N 
ENDROOT
BRANCH   3  11
ATOM     11  C   UNL     1       3.282   7.917  18.131  0.00  0.00    +0.000 C 
BRANCH  11  12
ATOM     12  C   UNL     1       1.964   8.254  17.410  0.00  0.00    +0.000 C 
BRANCH  12  13
ATOM     13  C   UNL     1       1.239   9.479  17.981  0.00  0.00    +0.000 C 
BRANCH  13  14
ATOM     14  N   UNL     1       1.986  10.692  17.652  0.00  0.00    +0.000 NA
ATOM     15  H   UNL     1       1.769  10.978  16.670  0.00  0.00    +0.000 HD
ATOM     16  H   UNL     1       3.009  10.485  17.709  0.00  0.00    +0.000 HD
ENDBRANCH  13  14
ENDBRANCH  12  13
ENDBRANCH  11  12
ENDBRANCH   3  11
BRANCH  10  17
ATOM     17  C   UNL     1       6.539   4.239  16.707  0.00  0.00    +0.000 C 
BRANCH  17  18
ATOM     18  C   UNL     1       6.593   4.303  15.198  0.00  0.00    +0.000 A 
ATOM     19  C   UNL     1       5.679   3.595  14.398  0.00  0.00    +0.000 A 
ATOM     20  C   UNL     1       5.767   3.660  13.000  0.00  0.00    +0.000 A 
ATOM     21  C   UNL     1       6.759   4.439  12.394  0.00  0.00    +0.000 A 
ATOM     22  C   UNL     1       7.664   5.151  13.182  0.00  0.00    +0.000 A 
ATOM     23  C   UNL     1       7.584   5.083  14.574  0.00  0.00    +0.000 A 
ENDBRANCH  17  18
ENDBRANCH  10  17
TORSDOF 6
ENDMDL
MODEL 9
REMARK VINA RESULT:      -6.8      2.765      4.600
REMARK  Name = 
REMARK  7 active torsions:
REMARK  status: ('A' for Active; 'I' for Inactive)
REMARK    1  A    between atoms: C_1  and  C_2
REMARK    2  A    between atoms: C_3  and  C_4
REMARK    3  A    between atoms: C_4  and  C_5
REMARK    4  A    between atoms: C_5  and  C_6
REMARK    5  A    between atoms: C_6  and  N_7
REMARK    6  A    between atoms: N_14  and  C_15
REMARK    7  A    between atoms: C_15  and  C_16
REMARK                            x       y       z     vdW  Elec       q    Type
REMARK                         _______ _______ _______ _____ _____    ______ ____
ROOT
ATOM      1  C   UNL     1       3.887   1.944  18.237  0.00  0.00    +0.000 C 
ATOM      2  C   UNL     1       3.624   3.420  18.184  0.00  0.00    +0.000 A 
ATOM      3  C   UNL     1       2.410   4.072  18.454  0.00  0.00    +0.000 A 
ATOM      4  C   UNL     1       2.649   5.412  18.191  0.00  0.00    +0.000 A 
ATOM      5  C   UNL     1       1.805   6.524  18.271  0.00  0.00    +0.000 A 
ATOM      6  C   UNL     1       2.326   7.778  17.917  0.00  0.00    +0.000 A 
ATOM      7  C   UNL     1       3.664   7.901  17.494  0.00  0.00    +0.000 A 
ATOM      8  C   UNL     1       4.499   6.772  17.429  0.00  0.00    +0.000 A 
ATOM      9  C   UNL     1       3.958   5.529  17.787  0.00  0.00    +0.000 A 
ATOM     10  N   UNL     1       4.570   4.324  17.808  0.00  0.00    +0.000 N 
ENDROOT
BRANCH   3  11
ATOM     11  C   UNL     1       1.085   3.482  18.898  0.00  0.00    +0.000 C 
BRANCH  11  12
ATOM     12  C   UNL     1       0.866   3.436  20.421  0.00  0.00    +0.000 C 
BRANCH  12  13
ATOM     13  C   UNL     1       2.109   3.811  21.239  0.00  0.00    +0.000 C 
BRANCH  13  14
ATOM     14  N   UNL     1       2.583   2.643  21.978  0.00  0.00    +0.000 NA
ATOM     15  H   UNL     1       1.800   2.252  22.550  0.00  0.00    +0.000 HD
ATOM     16  H   UNL     1       3.342   2.942  22.632  0.00  0.00    +0.000 HD
ENDBRANCH  13  14
ENDBRANCH  12  13
ENDBRANCH  11  12
ENDBRANCH   3  11
BRANCH  10  17
ATOM     17  C   UNL     1       5.980   4.027  17.515  0.00  0.00    +0.000 C 
BRANCH  17  18
ATOM     18  C   UNL     1       6.229   4.207  16.034  0.00  0.00    +0.000 A 
ATOM     19  C   UNL     1       7.265   5.028  15.556  0.00  0.00    +0.000 A 
ATOM     20  C   UNL     1       7.458   5.188  14.177  0.00  0.00    +0.000 A 
ATOM     21  C   UNL     1       6.626   4.525  13.269  0.00  0.00    +0.000 A 
ATOM     22  C   UNL     1       5.601   3.702  13.737  0.00  0.00    +0.000 A 
ATOM     23  C   UNL     1       5.402   3.544  15.109  0.00  0.00    +0.000 A 
ENDBRANCH  17  18
ENDBRANCH  10  17
TORSDOF 6
ENDMDL
