MODEL 1
REMARK VINA RESULT:      -6.7      0.000      0.000
REMARK  Name = 
REMARK  15 active torsions:
REMARK  status: ('A' for Active; 'I' for Inactive)
REMARK    1  A    between atoms: C_1  and  C_2
REMARK    2  A    between atoms: N_4  and  C_5
REMARK    3  A    between atoms: C_6  and  N_7
REMARK    4  A    between atoms: C_8  and  C_9
REMARK    5  A    between atoms: C_9  and  C_10
REMARK    6  A    between atoms: N_16  and  S_17
REMARK    7  A    between atoms: S_17  and  C_18
REMARK    8  A    between atoms: C_22  and  C_23
REMARK    9  A    between atoms: C_23  and  O_25
REMARK   10  A    between atoms: C_27  and  C_28
REMARK   11  A    between atoms: C_28  and  O_29
REMARK   12  A    between atoms: C_28  and  C_30
REMARK   13  A    between atoms: C_30  and  O_31
REMARK   14  A    between atoms: C_30  and  C_32
REMARK   15  A    between atoms: C_32  and  O_33
REMARK                            x       y       z     vdW  Elec       q    Type
REMARK                         _______ _______ _______ _____ _____    ______ ____
ROOT
ATOM      1  C   UNL     1      -1.357  10.791  20.115  0.00  0.00    +0.000 C 
ATOM      2  C   UNL     1      -0.717  10.806  18.712  0.00  0.00    +0.000 C 
ATOM      3  C   UNL     1      -1.868  10.679  17.759  0.00  0.00    +0.000 C 
ATOM      4  C   UNL     1      -3.004  11.360  17.976  0.00  0.00    +0.000 C 
ATOM      5  O   UNL     1      -3.277  12.049  19.150  0.00  0.00    +0.000 OA
ATOM      6  C   UNL     1      -2.185  12.116  20.118  0.00  0.00    +0.000 C 
ENDROOT
BRANCH   1  10
ATOM      7  C   UNL     1       0.768   9.417  22.959  0.00  0.00    +0.000 C 
ATOM      8  C   UNL     1      -0.308   9.370  21.902  0.00  0.00    +0.000 C 
ATOM      9  O   UNL     1      -0.951   8.361  21.643  0.00  0.00    +0.000 OA
ATOM     10  N   UNL     1      -0.496  10.571  21.268  0.00  0.00    +0.000 N 
ATOM     11  H   UNL     1       0.275  11.235  21.358  0.00  0.00    +0.000 HD
ENDBRANCH   1  10
BRANCH   2  12
ATOM     12  N   UNL     1       0.263   9.803  18.377  0.00  0.00    +0.000 N 
ATOM     13  C   UNL     1       1.618  10.068  18.161  0.00  0.00    +0.000 C 
ATOM     14  N   UNL     1       2.347  11.128  18.204  0.00  0.00    +0.000 NA
ATOM     15  H   UNL     1      -0.007   8.844  18.577  0.00  0.00    +0.000 HD
BRANCH  14  16
ATOM     16  S   UNL     1       2.134  12.685  18.549  0.00  0.00    +0.000 S 
ATOM     17  C   UNL     1       2.041  12.667  20.311  0.00  0.00    +0.000 C 
ATOM     18  O   UNL     1       3.357  13.389  18.207  0.00  0.00    +0.000 OA
ATOM     19  O   UNL     1       0.875  13.253  18.096  0.00  0.00    +0.000 OA
ENDBRANCH  14  16
BRANCH  13  20
ATOM     20  C   UNL     1       2.431   8.828  17.697  0.00  0.00    +0.000 C 
BRANCH  20  21
ATOM     21  C   UNL     1       2.387   7.581  18.560  0.00  0.00    +0.000 A 
ATOM     22  C   UNL     1       2.079   7.606  19.924  0.00  0.00    +0.000 A 
ATOM     23  C   UNL     1       1.859   6.414  20.627  0.00  0.00    +0.000 A 
ATOM     24  C   UNL     1       1.946   5.182  19.979  0.00  0.00    +0.000 A 
ATOM     25  C   UNL     1       2.293   5.135  18.634  0.00  0.00    +0.000 A 
ATOM     26  C   UNL     1       2.514   6.323  17.932  0.00  0.00    +0.000 A 
ENDBRANCH  20  21
ENDBRANCH  13  20
ENDBRANCH   2  12
BRANCH   4  27
ATOM     27  C   UNL     1      -3.989  11.446  16.852  0.00  0.00    +0.000 C 
ATOM     28  O   UNL     1      -5.201  11.468  16.974  0.00  0.00    +0.000 OA
BRANCH  27  29
ATOM     29  O   UNL     1      -3.349  11.519  15.663  0.00  0.00    +0.000 OA
ATOM     30  H   UNL     1      -3.970  11.378  14.921  0.00  0.00    +0.000 HD
ENDBRANCH  27  29
ENDBRANCH   4  27
BRANCH   6  31
ATOM     31  C   UNL     1      -2.757  12.570  21.479  0.00  0.00    +0.000 C 
BRANCH  31  32
ATOM     32  O   UNL     1      -1.625  12.913  22.317  0.00  0.00    +0.000 OA
ATOM     33  H   UNL     1      -0.946  12.220  22.203  0.00  0.00    +0.000 HD
ENDBRANCH  31  32
BRANCH  31  34
ATOM     34  C   UNL     1      -3.721  13.775  21.474  0.00  0.00    +0.000 C 
BRANCH  34  35
ATOM     35  O   UNL     1      -3.472  14.618  20.343  0.00  0.00    +0.000 OA
ATOM     36  H   UNL     1      -4.262  15.173  20.197  0.00  0.00    +0.000 HD
ENDBRANCH  34  35
BRANCH  34  37
ATOM     37  C   UNL     1      -5.214  13.457  21.564  0.00  0.00    +0.000 C 
BRANCH  37  38
ATOM     38  O   UNL     1      -5.461  12.238  22.256  0.00  0.00    +0.000 OA
ATOM     39  H   UNL     1      -5.447  11.530  21.582  0.00  0.00    +0.000 HD
ENDBRANCH  37  38
ENDBRANCH  34  37
ENDBRANCH  31  34
ENDBRANCH   6  31
TORSDOF 13
ENDMDL
MODEL 2
REMARK VINA RESULT:      -6.6      0.804      1.222
REMARK  Name = 
REMARK  15 active torsions:
REMARK  status: ('A' for Active; 'I' for Inactive)
REMARK    1  A    between atoms: C_1  and  C_2
REMARK    2  A    between atoms: N_4  and  C_5
REMARK    3  A    between atoms: C_6  and  N_7
REMARK    4  A    between atoms: C_8  and  C_9
REMARK    5  A    between atoms: C_9  and  C_10
REMARK    6  A    between atoms: N_16  and  S_17
REMARK    7  A    between atoms: S_17  and  C_18
REMARK    8  A    between atoms: C_22  and  C_23
REMARK    9  A    between atoms: C_23  and  O_25
REMARK   10  A    between atoms: C_27  and  C_28
REMARK   11  A    between atoms: C_28  and  O_29
REMARK   12  A    between atoms: C_28  and  C_30
REMARK   13  A    between atoms: C_30  and  O_31
REMARK   14  A    between atoms: C_30  and  C_32
REMARK   15  A    between atoms: C_32  and  O_33
REMARK                            x       y       z     vdW  Elec       q    Type
REMARK                         _______ _______ _______ _____ _____    ______ ____
ROOT
ATOM      1  C   UNL     1      -1.412  10.919  19.998  0.00  0.00    +0.000 C 
ATOM      2  C   UNL     1      -0.861  10.912  18.558  0.00  0.00    +0.000 C 
ATOM      3  C   UNL     1      -2.064  10.725  17.683  0.00  0.00    +0.000 C 
ATOM      4  C   UNL     1      -3.205  11.381  17.952  0.00  0.00    +0.000 C 
ATOM      5  O   UNL     1      -3.424  12.095  19.123  0.00  0.00    +0.000 OA
ATOM      6  C   UNL     1      -2.277  12.219  20.018  0.00  0.00    +0.000 C 
ENDROOT
BRANCH   1  10
ATOM      7  C   UNL     1       0.932   9.686  22.733  0.00  0.00    +0.000 C 
ATOM      8  C   UNL     1      -0.203   9.577  21.744  0.00  0.00    +0.000 C 
ATOM      9  O   UNL     1      -0.820   8.539  21.543  0.00  0.00    +0.000 OA
ATOM     10  N   UNL     1      -0.476  10.756  21.101  0.00  0.00    +0.000 N 
ATOM     11  H   UNL     1       0.273  11.450  21.132  0.00  0.00    +0.000 HD
ENDBRANCH   1  10
BRANCH   2  12
ATOM     12  N   UNL     1       0.125   9.927  18.190  0.00  0.00    +0.000 N 
ATOM     13  C   UNL     1       1.502  10.165  18.160  0.00  0.00    +0.000 C 
ATOM     14  N   UNL     1       2.247  11.179  18.433  0.00  0.00    +0.000 NA
ATOM     15  H   UNL     1      -0.188   8.961  18.220  0.00  0.00    +0.000 HD
BRANCH  14  16
ATOM     16  S   UNL     1       2.036  12.680  18.973  0.00  0.00    +0.000 S 
ATOM     17  C   UNL     1       3.508  13.483  18.424  0.00  0.00    +0.000 C 
ATOM     18  O   UNL     1       0.940  13.272  18.227  0.00  0.00    +0.000 OA
ATOM     19  O   UNL     1       2.028  12.822  20.419  0.00  0.00    +0.000 OA
ENDBRANCH  14  16
BRANCH  13  20
ATOM     20  C   UNL     1       2.332   8.971  17.613  0.00  0.00    +0.000 C 
BRANCH  20  21
ATOM     21  C   UNL     1       2.382   7.698  18.438  0.00  0.00    +0.000 A 
ATOM     22  C   UNL     1       2.083   7.660  19.803  0.00  0.00    +0.000 A 
ATOM     23  C   UNL     1       1.952   6.435  20.470  0.00  0.00    +0.000 A 
ATOM     24  C   UNL     1       2.122   5.233  19.785  0.00  0.00    +0.000 A 
ATOM     25  C   UNL     1       2.462   5.251  18.437  0.00  0.00    +0.000 A 
ATOM     26  C   UNL     1       2.594   6.473  17.770  0.00  0.00    +0.000 A 
ENDBRANCH  20  21
ENDBRANCH  13  20
ENDBRANCH   2  12
BRANCH   4  27
ATOM     27  C   UNL     1      -4.259  11.408  16.890  0.00  0.00    +0.000 C 
ATOM     28  O   UNL     1      -5.461  11.375  17.087  0.00  0.00    +0.000 OA
BRANCH  27  29
ATOM     29  O   UNL     1      -3.697  11.496  15.664  0.00  0.00    +0.000 OA
ATOM     30  H   UNL     1      -4.282  11.974  15.043  0.00  0.00    +0.000 HD
ENDBRANCH  27  29
ENDBRANCH   4  27
BRANCH   6  31
ATOM     31  C   UNL     1      -2.777  12.696  21.399  0.00  0.00    +0.000 C 
BRANCH  31  32
ATOM     32  O   UNL     1      -2.182  13.997  21.637  0.00  0.00    +0.000 OA
ATOM     33  H   UNL     1      -1.311  13.857  22.057  0.00  0.00    +0.000 HD
ENDBRANCH  31  32
BRANCH  31  34
ATOM     34  C   UNL     1      -4.302  12.835  21.590  0.00  0.00    +0.000 C 
BRANCH  34  35
ATOM     35  O   UNL     1      -4.704  12.303  22.858  0.00  0.00    +0.000 OA
ATOM     36  H   UNL     1      -4.041  12.568  23.524  0.00  0.00    +0.000 HD
ENDBRANCH  34  35
BRANCH  34  37
ATOM     37  C   UNL     1      -4.890  14.234  21.407  0.00  0.00    +0.000 C 
BRANCH  37  38
ATOM     38  O   UNL     1      -4.718  14.718  20.079  0.00  0.00    +0.000 OA
ATOM     39  H   UNL     1      -5.262  15.527  20.008  0.00  0.00    +0.000 HD
ENDBRANCH  37  38
ENDBRANCH  34  37
ENDBRANCH  31  34
ENDBRANCH   6  31
TORSDOF 13
ENDMDL
MODEL 3
REMARK VINA RESULT:      -6.6      2.648      7.346
REMARK  Name = 
REMARK  15 active torsions:
REMARK  status: ('A' for Active; 'I' for Inactive)
REMARK    1  A    between atoms: C_1  and  C_2
REMARK    2  A    between atoms: N_4  and  C_5
REMARK    3  A    between atoms: C_6  and  N_7
REMARK    4  A    between atoms: C_8  and  C_9
REMARK    5  A    between atoms: C_9  and  C_10
REMARK    6  A    between atoms: N_16  and  S_17
REMARK    7  A    between atoms: S_17  and  C_18
REMARK    8  A    between atoms: C_22  and  C_23
REMARK    9  A    between atoms: C_23  and  O_25
REMARK   10  A    between atoms: C_27  and  C_28
REMARK   11  A    between atoms: C_28  and  O_29
REMARK   12  A    between atoms: C_28  and  C_30
REMARK   13  A    between atoms: C_30  and  O_31
REMARK   14  A    between atoms: C_30  and  C_32
REMARK   15  A    between atoms: C_32  and  O_33
REMARK                            x       y       z     vdW  Elec       q    Type
REMARK                         _______ _______ _______ _____ _____    ______ ____
ROOT
ATOM      1  C   UNL     1      -0.666  10.155  18.953  0.00  0.00    +0.000 C 
ATOM      2  C   UNL     1      -0.965  11.278  19.967  0.00  0.00    +0.000 C 
ATOM      3  C   UNL     1      -0.679  10.674  21.310  0.00  0.00    +0.000 C 
ATOM      4  C   UNL     1       0.399   9.893  21.485  0.00  0.00    +0.000 C 
ATOM      5  O   UNL     1       1.193   9.431  20.443  0.00  0.00    +0.000 OA
ATOM      6  C   UNL     1       0.875   9.958  19.118  0.00  0.00    +0.000 C 
ENDROOT
BRANCH   1  10
ATOM      7  C   UNL     1      -2.670  10.401  15.726  0.00  0.00    +0.000 C 
ATOM      8  C   UNL     1      -2.407   9.978  17.150  0.00  0.00    +0.000 C 
ATOM      9  O   UNL     1      -3.232   9.394  17.840  0.00  0.00    +0.000 OA
ATOM     10  N   UNL     1      -1.150  10.306  17.588  0.00  0.00    +0.000 N 
ATOM     11  H   UNL     1      -0.675  11.028  17.045  0.00  0.00    +0.000 HD
ENDBRANCH   1  10
BRANCH   2  12
ATOM     12  N   UNL     1      -2.284  11.858  20.002  0.00  0.00    +0.000 N 
ATOM     13  C   UNL     1      -2.549  13.188  20.338  0.00  0.00    +0.000 C 
ATOM     14  N   UNL     1      -1.820  14.200  20.655  0.00  0.00    +0.000 NA
ATOM     15  H   UNL     1      -3.002  11.343  19.502  0.00  0.00    +0.000 HD
BRANCH  14  16
ATOM     16  S   UNL     1      -0.249  14.512  20.812  0.00  0.00    +0.000 S 
ATOM     17  C   UNL     1      -0.238  16.263  21.034  0.00  0.00    +0.000 C 
ATOM     18  O   UNL     1       0.199  13.933  22.065  0.00  0.00    +0.000 OA
ATOM     19  O   UNL     1       0.552  14.263  19.625  0.00  0.00    +0.000 OA
ENDBRANCH  14  16
BRANCH  13  20
ATOM     20  C   UNL     1      -4.065  13.524  20.416  0.00  0.00    +0.000 C 
BRANCH  20  21
ATOM     21  C   UNL     1      -5.050  12.504  19.875  0.00  0.00    +0.000 A 
ATOM     22  C   UNL     1      -6.042  11.909  20.661  0.00  0.00    +0.000 A 
ATOM     23  C   UNL     1      -7.046  11.129  20.072  0.00  0.00    +0.000 A 
ATOM     24  C   UNL     1      -7.071  10.930  18.692  0.00  0.00    +0.000 A 
ATOM     25  C   UNL     1      -6.069  11.478  17.899  0.00  0.00    +0.000 A 
ATOM     26  C   UNL     1      -5.066  12.256  18.486  0.00  0.00    +0.000 A 
ENDBRANCH  20  21
ENDBRANCH  13  20
ENDBRANCH   2  12
BRANCH   4  27
ATOM     27  C   UNL     1       0.810   9.578  22.889  0.00  0.00    +0.000 C 
ATOM     28  O   UNL     1       0.095   9.667  23.871  0.00  0.00    +0.000 OA
BRANCH  27  29
ATOM     29  O   UNL     1       2.092   9.153  22.926  0.00  0.00    +0.000 OA
ATOM     30  H   UNL     1       2.388   9.007  23.847  0.00  0.00    +0.000 HD
ENDBRANCH  27  29
ENDBRANCH   4  27
BRANCH   6  31
ATOM     31  C   UNL     1       1.577   9.084  18.056  0.00  0.00    +0.000 C 
BRANCH  31  32
ATOM     32  O   UNL     1       2.223   9.989  17.126  0.00  0.00    +0.000 OA
ATOM     33  H   UNL     1       3.181   9.982  17.317  0.00  0.00    +0.000 HD
ENDBRANCH  31  32
BRANCH  31  34
ATOM     34  C   UNL     1       2.641   8.083  18.555  0.00  0.00    +0.000 C 
BRANCH  34  35
ATOM     35  O   UNL     1       2.045   7.087  19.394  0.00  0.00    +0.000 OA
ATOM     36  H   UNL     1       2.747   6.693  19.946  0.00  0.00    +0.000 HD
ENDBRANCH  34  35
BRANCH  34  37
ATOM     37  C   UNL     1       3.502   7.411  17.486  0.00  0.00    +0.000 C 
BRANCH  37  38
ATOM     38  O   UNL     1       4.025   6.162  17.926  0.00  0.00    +0.000 OA
ATOM     39  H   UNL     1       4.121   5.606  17.127  0.00  0.00    +0.000 HD
ENDBRANCH  37  38
ENDBRANCH  34  37
ENDBRANCH  31  34
ENDBRANCH   6  31
TORSDOF 13
ENDMDL
MODEL 4
REMARK VINA RESULT:      -6.6      0.466      1.070
REMARK  Name = 
REMARK  15 active torsions:
REMARK  status: ('A' for Active; 'I' for Inactive)
REMARK    1  A    between atoms: C_1  and  C_2
REMARK    2  A    between atoms: N_4  and  C_5
REMARK    3  A    between atoms: C_6  and  N_7
REMARK    4  A    between atoms: C_8  and  C_9
REMARK    5  A    between atoms: C_9  and  C_10
REMARK    6  A    between atoms: N_16  and  S_17
REMARK    7  A    between atoms: S_17  and  C_18
REMARK    8  A    between atoms: C_22  and  C_23
REMARK    9  A    between atoms: C_23  and  O_25
REMARK   10  A    between atoms: C_27  and  C_28
REMARK   11  A    between atoms: C_28  and  O_29
REMARK   12  A    between atoms: C_28  and  C_30
REMARK   13  A    between atoms: C_30  and  O_31
REMARK   14  A    between atoms: C_30  and  C_32
REMARK   15  A    between atoms: C_32  and  O_33
REMARK                            x       y       z     vdW  Elec       q    Type
REMARK                         _______ _______ _______ _____ _____    ______ ____
ROOT
ATOM      1  C   UNL     1      -1.366  10.786  20.135  0.00  0.00    +0.000 C 
ATOM      2  C   UNL     1      -0.705  10.811  18.742  0.00  0.00    +0.000 C 
ATOM      3  C   UNL     1      -1.840  10.666  17.772  0.00  0.00    +0.000 C 
ATOM      4  C   UNL     1      -2.989  11.331  17.972  0.00  0.00    +0.000 C 
ATOM      5  O   UNL     1      -3.289  12.016  19.142  0.00  0.00    +0.000 OA
ATOM      6  C   UNL     1      -2.213  12.098  20.126  0.00  0.00    +0.000 C 
ENDROOT
BRANCH   1  10
ATOM      7  C   UNL     1       0.752   9.443  22.999  0.00  0.00    +0.000 C 
ATOM      8  C   UNL     1      -0.302   9.375  21.921  0.00  0.00    +0.000 C 
ATOM      9  O   UNL     1      -0.905   8.349  21.636  0.00  0.00    +0.000 OA
ATOM     10  N   UNL     1      -0.519  10.578  21.302  0.00  0.00    +0.000 N 
ATOM     11  H   UNL     1       0.227  11.266  21.415  0.00  0.00    +0.000 HD
ENDBRANCH   1  10
BRANCH   2  12
ATOM     12  N   UNL     1       0.294   9.822  18.423  0.00  0.00    +0.000 N 
ATOM     13  C   UNL     1       1.644  10.109  18.203  0.00  0.00    +0.000 C 
ATOM     14  N   UNL     1       2.352  11.183  18.232  0.00  0.00    +0.000 NA
ATOM     15  H   UNL     1       0.042   8.861  18.636  0.00  0.00    +0.000 HD
BRANCH  14  16
ATOM     16  S   UNL     1       2.110  12.741  18.554  0.00  0.00    +0.000 S 
ATOM     17  C   UNL     1       2.009  12.745  20.316  0.00  0.00    +0.000 C 
ATOM     18  O   UNL     1       3.321  13.462  18.208  0.00  0.00    +0.000 OA
ATOM     19  O   UNL     1       0.843  13.279  18.089  0.00  0.00    +0.000 OA
ENDBRANCH  14  16
BRANCH  13  20
ATOM     20  C   UNL     1       2.481   8.878  17.757  0.00  0.00    +0.000 C 
BRANCH  20  21
ATOM     21  C   UNL     1       2.238   7.556  18.460  0.00  0.00    +0.000 A 
ATOM     22  C   UNL     1       2.348   6.318  17.819  0.00  0.00    +0.000 A 
ATOM     23  C   UNL     1       2.308   5.127  18.557  0.00  0.00    +0.000 A 
ATOM     24  C   UNL     1       2.153   5.157  19.943  0.00  0.00    +0.000 A 
ATOM     25  C   UNL     1       1.998   6.376  20.592  0.00  0.00    +0.000 A 
ATOM     26  C   UNL     1       2.037   7.564  19.857  0.00  0.00    +0.000 A 
ENDBRANCH  20  21
ENDBRANCH  13  20
ENDBRANCH   2  12
BRANCH   4  27
ATOM     27  C   UNL     1      -3.957  11.403  16.833  0.00  0.00    +0.000 C 
ATOM     28  O   UNL     1      -3.865  10.787  15.786  0.00  0.00    +0.000 OA
BRANCH  27  29
ATOM     29  O   UNL     1      -4.978  12.239  17.128  0.00  0.00    +0.000 OA
ATOM     30  H   UNL     1      -5.109  12.899  16.419  0.00  0.00    +0.000 HD
ENDBRANCH  27  29
ENDBRANCH   4  27
BRANCH   6  31
ATOM     31  C   UNL     1      -2.812  12.544  21.478  0.00  0.00    +0.000 C 
BRANCH  31  32
ATOM     32  O   UNL     1      -1.757  13.227  22.201  0.00  0.00    +0.000 OA
ATOM     33  H   UNL     1      -0.986  12.629  22.244  0.00  0.00    +0.000 HD
ENDBRANCH  31  32
BRANCH  31  34
ATOM     34  C   UNL     1      -4.036  13.482  21.434  0.00  0.00    +0.000 C 
BRANCH  34  35
ATOM     35  O   UNL     1      -3.956  14.367  20.310  0.00  0.00    +0.000 OA
ATOM     36  H   UNL     1      -3.034  14.367  19.988  0.00  0.00    +0.000 HD
ENDBRANCH  34  35
BRANCH  34  37
ATOM     37  C   UNL     1      -5.411  12.815  21.470  0.00  0.00    +0.000 C 
BRANCH  37  38
ATOM     38  O   UNL     1      -5.802  12.323  20.193  0.00  0.00    +0.000 OA
ATOM     39  H   UNL     1      -6.110  11.406  20.332  0.00  0.00    +0.000 HD
ENDBRANCH  37  38
ENDBRANCH  34  37
ENDBRANCH  31  34
ENDBRANCH   6  31
TORSDOF 13
ENDMDL
MODEL 5
REMARK VINA RESULT:      -6.5      0.947      1.519
REMARK  Name = 
REMARK  15 active torsions:
REMARK  status: ('A' for Active; 'I' for Inactive)
REMARK    1  A    between atoms: C_1  and  C_2
REMARK    2  A    between atoms: N_4  and  C_5
REMARK    3  A    between atoms: C_6  and  N_7
REMARK    4  A    between atoms: C_8  and  C_9
REMARK    5  A    between atoms: C_9  and  C_10
REMARK    6  A    between atoms: N_16  and  S_17
REMARK    7  A    between atoms: S_17  and  C_18
REMARK    8  A    between atoms: C_22  and  C_23
REMARK    9  A    between atoms: C_23  and  O_25
REMARK   10  A    between atoms: C_27  and  C_28
REMARK   11  A    between atoms: C_28  and  O_29
REMARK   12  A    between atoms: C_28  and  C_30
REMARK   13  A    between atoms: C_30  and  O_31
REMARK   14  A    between atoms: C_30  and  C_32
REMARK   15  A    between atoms: C_32  and  O_33
REMARK                            x       y       z     vdW  Elec       q    Type
REMARK                         _______ _______ _______ _____ _____    ______ ____
ROOT
ATOM      1  C   UNL     1      -1.526  10.856  19.662  0.00  0.00    +0.000 C 
ATOM      2  C   UNL     1      -0.893  10.782  18.258  0.00  0.00    +0.000 C 
ATOM      3  C   UNL     1      -2.035  10.476  17.334  0.00  0.00    +0.000 C 
ATOM      4  C   UNL     1      -3.219  11.088  17.496  0.00  0.00    +0.000 C 
ATOM      5  O   UNL     1      -3.539  11.866  18.601  0.00  0.00    +0.000 OA
ATOM      6  C   UNL     1      -2.452  12.109  19.546  0.00  0.00    +0.000 C 
ENDROOT
BRANCH   1  10
ATOM      7  C   UNL     1       0.742   9.932  22.577  0.00  0.00    +0.000 C 
ATOM      8  C   UNL     1      -0.320   9.689  21.532  0.00  0.00    +0.000 C 
ATOM      9  O   UNL     1      -0.840   8.597  21.345  0.00  0.00    +0.000 OA
ATOM     10  N   UNL     1      -0.646  10.815  20.822  0.00  0.00    +0.000 N 
ATOM     11  H   UNL     1       0.042  11.569  20.863  0.00  0.00    +0.000 HD
ENDBRANCH   1  10
BRANCH   2  12
ATOM     12  N   UNL     1       0.158   9.828  18.011  0.00  0.00    +0.000 N 
ATOM     13  C   UNL     1       1.522  10.110  18.132  0.00  0.00    +0.000 C 
ATOM     14  N   UNL     1       2.199  11.149  18.475  0.00  0.00    +0.000 NA
ATOM     15  H   UNL     1      -0.126   8.853  18.016  0.00  0.00    +0.000 HD
BRANCH  14  16
ATOM     16  S   UNL     1       1.882  12.646  18.973  0.00  0.00    +0.000 S 
ATOM     17  C   UNL     1       3.336  13.517  18.482  0.00  0.00    +0.000 C 
ATOM     18  O   UNL     1       0.795  13.165  18.162  0.00  0.00    +0.000 OA
ATOM     19  O   UNL     1       1.793  12.813  20.414  0.00  0.00    +0.000 OA
ENDBRANCH  14  16
BRANCH  13  20
ATOM     20  C   UNL     1       2.445   8.940  17.692  0.00  0.00    +0.000 C 
BRANCH  20  21
ATOM     21  C   UNL     1       2.280   7.601  18.386  0.00  0.00    +0.000 A 
ATOM     22  C   UNL     1       2.499   6.376  17.747  0.00  0.00    +0.000 A 
ATOM     23  C   UNL     1       2.527   5.184  18.483  0.00  0.00    +0.000 A 
ATOM     24  C   UNL     1       2.332   5.197  19.863  0.00  0.00    +0.000 A 
ATOM     25  C   UNL     1       2.070   6.399  20.510  0.00  0.00    +0.000 A 
ATOM     26  C   UNL     1       2.041   7.590  19.777  0.00  0.00    +0.000 A 
ENDBRANCH  20  21
ENDBRANCH  13  20
ENDBRANCH   2  12
BRANCH   4  27
ATOM     27  C   UNL     1      -4.211  10.990  16.381  0.00  0.00    +0.000 C 
ATOM     28  O   UNL     1      -3.990  10.522  15.277  0.00  0.00    +0.000 OA
BRANCH  27  29
ATOM     29  O   UNL     1      -5.412  11.476  16.767  0.00  0.00    +0.000 OA
ATOM     30  H   UNL     1      -6.099  10.781  16.739  0.00  0.00    +0.000 HD
ENDBRANCH  27  29
ENDBRANCH   4  27
BRANCH   6  31
ATOM     31  C   UNL     1      -3.051  12.649  20.862  0.00  0.00    +0.000 C 
BRANCH  31  32
ATOM     32  O   UNL     1      -2.116  13.629  21.379  0.00  0.00    +0.000 OA
ATOM     33  H   UNL     1      -2.614  14.448  21.569  0.00  0.00    +0.000 HD
ENDBRANCH  31  32
BRANCH  31  34
ATOM     34  C   UNL     1      -4.439  13.318  20.785  0.00  0.00    +0.000 C 
BRANCH  34  35
ATOM     35  O   UNL     1      -5.480  12.339  20.887  0.00  0.00    +0.000 OA
ATOM     36  H   UNL     1      -6.331  12.807  20.989  0.00  0.00    +0.000 HD
ENDBRANCH  34  35
BRANCH  34  37
ATOM     37  C   UNL     1      -4.705  14.459  21.768  0.00  0.00    +0.000 C 
BRANCH  37  38
ATOM     38  O   UNL     1      -4.513  14.058  23.120  0.00  0.00    +0.000 OA
ATOM     39  H   UNL     1      -4.899  14.763  23.674  0.00  0.00    +0.000 HD
ENDBRANCH  37  38
ENDBRANCH  34  37
ENDBRANCH  31  34
ENDBRANCH   6  31
TORSDOF 13
ENDMDL
MODEL 6
REMARK VINA RESULT:      -6.4      2.578      7.345
REMARK  Name = 
REMARK  15 active torsions:
REMARK  status: ('A' for Active; 'I' for Inactive)
REMARK    1  A    between atoms: C_1  and  C_2
REMARK    2  A    between atoms: N_4  and  C_5
REMARK    3  A    between atoms: C_6  and  N_7
REMARK    4  A    between atoms: C_8  and  C_9
REMARK    5  A    between atoms: C_9  and  C_10
REMARK    6  A    between atoms: N_16  and  S_17
REMARK    7  A    between atoms: S_17  and  C_18
REMARK    8  A    between atoms: C_22  and  C_23
REMARK    9  A    between atoms: C_23  and  O_25
REMARK   10  A    between atoms: C_27  and  C_28
REMARK   11  A    between atoms: C_28  and  O_29
REMARK   12  A    between atoms: C_28  and  C_30
REMARK   13  A    between atoms: C_30  and  O_31
REMARK   14  A    between atoms: C_30  and  C_32
REMARK   15  A    between atoms: C_32  and  O_33
REMARK                            x       y       z     vdW  Elec       q    Type
REMARK                         _______ _______ _______ _____ _____    ______ ____
ROOT
ATOM      1  C   UNL     1      -0.838  10.286  18.970  0.00  0.00    +0.000 C 
ATOM      2  C   UNL     1      -1.147  11.377  20.016  0.00  0.00    +0.000 C 
ATOM      3  C   UNL     1      -0.929  10.714  21.344  0.00  0.00    +0.000 C 
ATOM      4  C   UNL     1       0.121   9.898  21.528  0.00  0.00    +0.000 C 
ATOM      5  O   UNL     1       0.942   9.455  20.499  0.00  0.00    +0.000 OA
ATOM      6  C   UNL     1       0.689  10.041  19.185  0.00  0.00    +0.000 C 
ENDROOT
BRANCH   1  10
ATOM      7  C   UNL     1      -2.687  10.593  15.657  0.00  0.00    +0.000 C 
ATOM      8  C   UNL     1      -2.451  10.077  17.055  0.00  0.00    +0.000 C 
ATOM      9  O   UNL     1      -3.237   9.345  17.642  0.00  0.00    +0.000 OA
ATOM     10  N   UNL     1      -1.265  10.502  17.595  0.00  0.00    +0.000 N 
ATOM     11  H   UNL     1      -0.851  11.319  17.143  0.00  0.00    +0.000 HD
ENDBRANCH   1  10
BRANCH   2  12
ATOM     12  N   UNL     1      -2.451  11.991  20.024  0.00  0.00    +0.000 N 
ATOM     13  C   UNL     1      -2.702  13.299  20.446  0.00  0.00    +0.000 C 
ATOM     14  N   UNL     1      -1.966  14.262  20.880  0.00  0.00    +0.000 NA
ATOM     15  H   UNL     1      -3.153  11.536  19.448  0.00  0.00    +0.000 HD
BRANCH  14  16
ATOM     16  S   UNL     1      -0.400  14.515  21.145  0.00  0.00    +0.000 S 
ATOM     17  C   UNL     1       0.292  14.275  19.539  0.00  0.00    +0.000 C 
ATOM     18  O   UNL     1      -0.222  15.920  21.465  0.00  0.00    +0.000 OA
ATOM     19  O   UNL     1       0.249  13.536  22.001  0.00  0.00    +0.000 OA
ENDBRANCH  14  16
BRANCH  13  20
ATOM     20  C   UNL     1      -4.211  13.672  20.468  0.00  0.00    +0.000 C 
BRANCH  20  21
ATOM     21  C   UNL     1      -5.191  12.719  19.808  0.00  0.00    +0.000 A 
ATOM     22  C   UNL     1      -5.169  12.426  18.441  0.00  0.00    +0.000 A 
ATOM     23  C   UNL     1      -5.963  11.395  17.920  0.00  0.00    +0.000 A 
ATOM     24  C   UNL     1      -6.791  10.647  18.756  0.00  0.00    +0.000 A 
ATOM     25  C   UNL     1      -6.858  10.953  20.111  0.00  0.00    +0.000 A 
ATOM     26  C   UNL     1      -6.067  11.981  20.631  0.00  0.00    +0.000 A 
ENDBRANCH  20  21
ENDBRANCH  13  20
ENDBRANCH   2  12
BRANCH   4  27
ATOM     27  C   UNL     1       0.469   9.517  22.933  0.00  0.00    +0.000 C 
ATOM     28  O   UNL     1       1.594   9.481  23.398  0.00  0.00    +0.000 OA
BRANCH  27  29
ATOM     29  O   UNL     1      -0.648   9.234  23.639  0.00  0.00    +0.000 OA
ATOM     30  H   UNL     1      -1.400   9.787  23.346  0.00  0.00    +0.000 HD
ENDBRANCH  27  29
ENDBRANCH   4  27
BRANCH   6  31
ATOM     31  C   UNL     1       1.409   9.189  18.117  0.00  0.00    +0.000 C 
BRANCH  31  32
ATOM     32  O   UNL     1       2.034  10.115  17.192  0.00  0.00    +0.000 OA
ATOM     33  H   UNL     1       1.376  10.348  16.509  0.00  0.00    +0.000 HD
ENDBRANCH  31  32
BRANCH  31  34
ATOM     34  C   UNL     1       2.495   8.209  18.608  0.00  0.00    +0.000 C 
BRANCH  34  35
ATOM     35  O   UNL     1       1.918   7.179  19.419  0.00  0.00    +0.000 OA
ATOM     36  H   UNL     1       2.614   6.525  19.622  0.00  0.00    +0.000 HD
ENDBRANCH  34  35
BRANCH  34  37
ATOM     37  C   UNL     1       3.388   7.584  17.535  0.00  0.00    +0.000 C 
BRANCH  37  38
ATOM     38  O   UNL     1       3.494   6.172  17.682  0.00  0.00    +0.000 OA
ATOM     39  H   UNL     1       3.584   6.001  18.640  0.00  0.00    +0.000 HD
ENDBRANCH  37  38
ENDBRANCH  34  37
ENDBRANCH  31  34
ENDBRANCH   6  31
TORSDOF 13
ENDMDL
MODEL 7
REMARK VINA RESULT:      -6.3      2.508      7.605
REMARK  Name = 
REMARK  15 active torsions:
REMARK  status: ('A' for Active; 'I' for Inactive)
REMARK    1  A    between atoms: C_1  and  C_2
REMARK    2  A    between atoms: N_4  and  C_5
REMARK    3  A    between atoms: C_6  and  N_7
REMARK    4  A    between atoms: C_8  and  C_9
REMARK    5  A    between atoms: C_9  and  C_10
REMARK    6  A    between atoms: N_16  and  S_17
REMARK    7  A    between atoms: S_17  and  C_18
REMARK    8  A    between atoms: C_22  and  C_23
REMARK    9  A    between atoms: C_23  and  O_25
REMARK   10  A    between atoms: C_27  and  C_28
REMARK   11  A    between atoms: C_28  and  O_29
REMARK   12  A    between atoms: C_28  and  C_30
REMARK   13  A    between atoms: C_30  and  O_31
REMARK   14  A    between atoms: C_30  and  C_32
REMARK   15  A    between atoms: C_32  and  O_33
REMARK                            x       y       z     vdW  Elec       q    Type
REMARK                         _______ _______ _______ _____ _____    ______ ____
ROOT
ATOM      1  C   UNL     1      -0.714  10.079  18.940  0.00  0.00    +0.000 C 
ATOM      2  C   UNL     1      -0.970  11.206  19.961  0.00  0.00    +0.000 C 
ATOM      3  C   UNL     1      -0.730  10.575  21.301  0.00  0.00    +0.000 C 
ATOM      4  C   UNL     1       0.306   9.741  21.481  0.00  0.00    +0.000 C 
ATOM      5  O   UNL     1       1.088   9.250  20.443  0.00  0.00    +0.000 OA
ATOM      6  C   UNL     1       0.812   9.804  19.120  0.00  0.00    +0.000 C 
ENDROOT
BRANCH   1  10
ATOM      7  C   UNL     1      -2.667  10.500  15.699  0.00  0.00    +0.000 C 
ATOM      8  C   UNL     1      -2.455  10.064  17.128  0.00  0.00    +0.000 C 
ATOM      9  O   UNL     1      -3.339   9.572  17.818  0.00  0.00    +0.000 OA
ATOM     10  N   UNL     1      -1.174  10.267  17.571  0.00  0.00    +0.000 N 
ATOM     11  H   UNL     1      -0.626  10.933  17.024  0.00  0.00    +0.000 HD
ENDBRANCH   1  10
BRANCH   2  12
ATOM     12  N   UNL     1      -2.259  11.850  19.987  0.00  0.00    +0.000 N 
ATOM     13  C   UNL     1      -2.469  13.174  20.383  0.00  0.00    +0.000 C 
ATOM     14  N   UNL     1      -1.701  14.129  20.775  0.00  0.00    +0.000 NA
ATOM     15  H   UNL     1      -2.985  11.398  19.439  0.00  0.00    +0.000 HD
BRANCH  14  16
ATOM     16  S   UNL     1      -0.123  14.352  20.994  0.00  0.00    +0.000 S 
ATOM     17  C   UNL     1      -0.029  16.090  21.285  0.00  0.00    +0.000 C 
ATOM     18  O   UNL     1       0.251  13.705  22.239  0.00  0.00    +0.000 OA
ATOM     19  O   UNL     1       0.705  14.106  19.826  0.00  0.00    +0.000 OA
ENDBRANCH  14  16
BRANCH  13  20
ATOM     20  C   UNL     1      -3.968  13.582  20.433  0.00  0.00    +0.000 C 
BRANCH  20  21
ATOM     21  C   UNL     1      -4.793  13.125  21.622  0.00  0.00    +0.000 A 
ATOM     22  C   UNL     1      -4.311  13.135  22.935  0.00  0.00    +0.000 A 
ATOM     23  C   UNL     1      -5.174  12.893  24.012  0.00  0.00    +0.000 A 
ATOM     24  C   UNL     1      -6.527  12.636  23.793  0.00  0.00    +0.000 A 
ATOM     25  C   UNL     1      -7.015  12.580  22.493  0.00  0.00    +0.000 A 
ATOM     26  C   UNL     1      -6.155  12.820  21.417  0.00  0.00    +0.000 A 
ENDBRANCH  20  21
ENDBRANCH  13  20
ENDBRANCH   2  12
BRANCH   4  27
ATOM     27  C   UNL     1       0.683   9.392  22.886  0.00  0.00    +0.000 C 
ATOM     28  O   UNL     1       1.821   9.258  23.300  0.00  0.00    +0.000 OA
BRANCH  27  29
ATOM     29  O   UNL     1      -0.419   9.263  23.657  0.00  0.00    +0.000 OA
ATOM     30  H   UNL     1      -0.587  10.078  24.170  0.00  0.00    +0.000 HD
ENDBRANCH  27  29
ENDBRANCH   4  27
BRANCH   6  31
ATOM     31  C   UNL     1       1.483   8.907  18.058  0.00  0.00    +0.000 C 
BRANCH  31  32
ATOM     32  O   UNL     1       2.080   9.791  17.076  0.00  0.00    +0.000 OA
ATOM     33  H   UNL     1       2.898   9.368  16.750  0.00  0.00    +0.000 HD
ENDBRANCH  31  32
BRANCH  31  34
ATOM     34  C   UNL     1       2.579   7.934  18.543  0.00  0.00    +0.000 C 
BRANCH  34  35
ATOM     35  O   UNL     1       2.020   6.924  19.391  0.00  0.00    +0.000 OA
ATOM     36  H   UNL     1       2.508   6.931  20.237  0.00  0.00    +0.000 HD
ENDBRANCH  34  35
BRANCH  34  37
ATOM     37  C   UNL     1       3.443   7.284  17.463  0.00  0.00    +0.000 C 
BRANCH  37  38
ATOM     38  O   UNL     1       4.344   6.324  18.005  0.00  0.00    +0.000 OA
ATOM     39  H   UNL     1       5.007   6.826  18.518  0.00  0.00    +0.000 HD
ENDBRANCH  37  38
ENDBRANCH  34  37
ENDBRANCH  31  34
ENDBRANCH   6  31
TORSDOF 13
ENDMDL
MODEL 8
REMARK VINA RESULT:      -6.3      2.604      7.315
REMARK  Name = 
REMARK  15 active torsions:
REMARK  status: ('A' for Active; 'I' for Inactive)
REMARK    1  A    between atoms: C_1  and  C_2
REMARK    2  A    between atoms: N_4  and  C_5
REMARK    3  A    between atoms: C_6  and  N_7
REMARK    4  A    between atoms: C_8  and  C_9
REMARK    5  A    between atoms: C_9  and  C_10
REMARK    6  A    between atoms: N_16  and  S_17
REMARK    7  A    between atoms: S_17  and  C_18
REMARK    8  A    between atoms: C_22  and  C_23
REMARK    9  A    between atoms: C_23  and  O_25
REMARK   10  A    between atoms: C_27  and  C_28
REMARK   11  A    between atoms: C_28  and  O_29
REMARK   12  A    between atoms: C_28  and  C_30
REMARK   13  A    between atoms: C_30  and  O_31
REMARK   14  A    between atoms: C_30  and  C_32
REMARK   15  A    between atoms: C_32  and  O_33
REMARK                            x       y       z     vdW  Elec       q    Type
REMARK                         _______ _______ _______ _____ _____    ______ ____
ROOT
ATOM      1  C   UNL     1      -0.747  10.288  18.973  0.00  0.00    +0.000 C 
ATOM      2  C   UNL     1      -1.053  11.357  20.041  0.00  0.00    +0.000 C 
ATOM      3  C   UNL     1      -0.721  10.705  21.350  0.00  0.00    +0.000 C 
ATOM      4  C   UNL     1       0.382   9.948  21.468  0.00  0.00    +0.000 C 
ATOM      5  O   UNL     1       1.164   9.554  20.390  0.00  0.00    +0.000 OA
ATOM      6  C   UNL     1       0.802  10.127  19.097  0.00  0.00    +0.000 C 
ENDROOT
BRANCH   1  10
ATOM      7  C   UNL     1      -2.815  10.545  15.787  0.00  0.00    +0.000 C 
ATOM      8  C   UNL     1      -2.485  10.051  17.175  0.00  0.00    +0.000 C 
ATOM      9  O   UNL     1      -3.230   9.330  17.825  0.00  0.00    +0.000 OA
ATOM     10  N   UNL     1      -1.266  10.483  17.627  0.00  0.00    +0.000 N 
ATOM     11  H   UNL     1      -0.882  11.292  17.135  0.00  0.00    +0.000 HD
ENDBRANCH   1  10
BRANCH   2  12
ATOM     12  N   UNL     1      -2.387  11.898  20.130  0.00  0.00    +0.000 N 
ATOM     13  C   UNL     1      -2.675  13.252  20.320  0.00  0.00    +0.000 C 
ATOM     14  N   UNL     1      -1.962  14.317  20.437  0.00  0.00    +0.000 NA
ATOM     15  H   UNL     1      -3.126  11.302  19.769  0.00  0.00    +0.000 HD
BRANCH  14  16
ATOM     16  S   UNL     1      -0.398  14.693  20.402  0.00  0.00    +0.000 S 
ATOM     17  C   UNL     1       0.139  14.197  22.008  0.00  0.00    +0.000 C 
ATOM     18  O   UNL     1       0.253  13.805  19.456  0.00  0.00    +0.000 OA
ATOM     19  O   UNL     1      -0.105  16.113  20.313  0.00  0.00    +0.000 OA
ENDBRANCH  14  16
BRANCH  13  20
ATOM     20  C   UNL     1      -4.190  13.550  20.500  0.00  0.00    +0.000 C 
BRANCH  20  21
ATOM     21  C   UNL     1      -5.184  12.649  19.791  0.00  0.00    +0.000 A 
ATOM     22  C   UNL     1      -5.146  12.404  18.414  0.00  0.00    +0.000 A 
ATOM     23  C   UNL     1      -5.959  11.415  17.844  0.00  0.00    +0.000 A 
ATOM     24  C   UNL     1      -6.822  10.661  18.639  0.00  0.00    +0.000 A 
ATOM     25  C   UNL     1      -6.905  10.920  20.002  0.00  0.00    +0.000 A 
ATOM     26  C   UNL     1      -6.095  11.907  20.572  0.00  0.00    +0.000 A 
ENDBRANCH  20  21
ENDBRANCH  13  20
ENDBRANCH   2  12
BRANCH   4  27
ATOM     27  C   UNL     1       0.832   9.585  22.848  0.00  0.00    +0.000 C 
ATOM     28  O   UNL     1       0.158   9.677  23.859  0.00  0.00    +0.000 OA
BRANCH  27  29
ATOM     29  O   UNL     1       2.098   9.112  22.827  0.00  0.00    +0.000 OA
ATOM     30  H   UNL     1       2.507   9.240  21.947  0.00  0.00    +0.000 HD
ENDBRANCH  27  29
ENDBRANCH   4  27
BRANCH   6  31
ATOM     31  C   UNL     1       1.503   9.320  17.983  0.00  0.00    +0.000 C 
BRANCH  31  32
ATOM     32  O   UNL     1       2.235  10.271  17.170  0.00  0.00    +0.000 OA
ATOM     33  H   UNL     1       2.149   9.996  16.236  0.00  0.00    +0.000 HD
ENDBRANCH  31  32
BRANCH  31  34
ATOM     34  C   UNL     1       2.492   8.220  18.423  0.00  0.00    +0.000 C 
BRANCH  34  35
ATOM     35  O   UNL     1       1.851   7.283  19.298  0.00  0.00    +0.000 OA
ATOM     36  H   UNL     1       1.281   6.702  18.758  0.00  0.00    +0.000 HD
ENDBRANCH  34  35
BRANCH  34  37
ATOM     37  C   UNL     1       3.222   7.470  17.309  0.00  0.00    +0.000 C 
BRANCH  37  38
ATOM     38  O   UNL     1       4.598   7.266  17.612  0.00  0.00    +0.000 OA
ATOM     39  H   UNL     1       5.102   7.851  17.013  0.00  0.00    +0.000 HD
ENDBRANCH  37  38
ENDBRANCH  34  37
ENDBRANCH  31  34
ENDBRANCH   6  31
TORSDOF 13
ENDMDL
MODEL 9
REMARK VINA RESULT:      -6.1      2.538      7.499
REMARK  Name = 
REMARK  15 active torsions:
REMARK  status: ('A' for Active; 'I' for Inactive)
REMARK    1  A    between atoms: C_1  and  C_2
REMARK    2  A    between atoms: N_4  and  C_5
REMARK    3  A    between atoms: C_6  and  N_7
REMARK    4  A    between atoms: C_8  and  C_9
REMARK    5  A    between atoms: C_9  and  C_10
REMARK    6  A    between atoms: N_16  and  S_17
REMARK    7  A    between atoms: S_17  and  C_18
REMARK    8  A    between atoms: C_22  and  C_23
REMARK    9  A    between atoms: C_23  and  O_25
REMARK   10  A    between atoms: C_27  and  C_28
REMARK   11  A    between atoms: C_28  and  O_29
REMARK   12  A    between atoms: C_28  and  C_30
REMARK   13  A    between atoms: C_30  and  O_31
REMARK   14  A    between atoms: C_30  and  C_32
REMARK   15  A    between atoms: C_32  and  O_33
REMARK                            x       y       z     vdW  Elec       q    Type
REMARK                         _______ _______ _______ _____ _____    ______ ____
ROOT
ATOM      1  C   UNL     1      -0.696  10.361  19.081  0.00  0.00    +0.000 C 
ATOM      2  C   UNL     1      -0.924  11.444  20.154  0.00  0.00    +0.000 C 
ATOM      3  C   UNL     1      -0.622  10.768  21.458  0.00  0.00    +0.000 C 
ATOM      4  C   UNL     1       0.431   9.942  21.564  0.00  0.00    +0.000 C 
ATOM      5  O   UNL     1       1.177   9.502  20.478  0.00  0.00    +0.000 OA
ATOM      6  C   UNL     1       0.840  10.101  19.189  0.00  0.00    +0.000 C 
ENDROOT
BRANCH   1  10
ATOM      7  C   UNL     1      -2.753  10.673  15.892  0.00  0.00    +0.000 C 
ATOM      8  C   UNL     1      -2.412  10.133  17.260  0.00  0.00    +0.000 C 
ATOM      9  O   UNL     1      -3.134   9.358  17.873  0.00  0.00    +0.000 OA
ATOM     10  N   UNL     1      -1.214  10.593  17.739  0.00  0.00    +0.000 N 
ATOM     11  H   UNL     1      -0.859  11.436  17.285  0.00  0.00    +0.000 HD
ENDBRANCH   1  10
BRANCH   2  12
ATOM     12  N   UNL     1      -2.219  12.069  20.256  0.00  0.00    +0.000 N 
ATOM     13  C   UNL     1      -2.421  13.444  20.398  0.00  0.00    +0.000 C 
ATOM     14  N   UNL     1      -1.642  14.468  20.452  0.00  0.00    +0.000 NA
ATOM     15  H   UNL     1      -3.003  11.505  19.940  0.00  0.00    +0.000 HD
BRANCH  14  16
ATOM     16  S   UNL     1      -0.060  14.745  20.359  0.00  0.00    +0.000 S 
ATOM     17  C   UNL     1       0.490  14.309  21.979  0.00  0.00    +0.000 C 
ATOM     18  O   UNL     1       0.513  13.767  19.452  0.00  0.00    +0.000 OA
ATOM     19  O   UNL     1       0.315  16.138  20.181  0.00  0.00    +0.000 OA
ENDBRANCH  14  16
BRANCH  13  20
ATOM     20  C   UNL     1      -3.909  13.841  20.606  0.00  0.00    +0.000 C 
BRANCH  20  21
ATOM     21  C   UNL     1      -4.556  13.510  21.938  0.00  0.00    +0.000 A 
ATOM     22  C   UNL     1      -5.932  13.317  22.093  0.00  0.00    +0.000 A 
ATOM     23  C   UNL     1      -6.452  12.821  23.296  0.00  0.00    +0.000 A 
ATOM     24  C   UNL     1      -5.606  12.515  24.361  0.00  0.00    +0.000 A 
ATOM     25  C   UNL     1      -4.240  12.742  24.242  0.00  0.00    +0.000 A 
ATOM     26  C   UNL     1      -3.720  13.237  23.042  0.00  0.00    +0.000 A 
ENDBRANCH  20  21
ENDBRANCH  13  20
ENDBRANCH   2  12
BRANCH   4  27
ATOM     27  C   UNL     1       0.870   9.546  22.939  0.00  0.00    +0.000 C 
ATOM     28  O   UNL     1       0.183   9.602  23.943  0.00  0.00    +0.000 OA
BRANCH  27  29
ATOM     29  O   UNL     1       2.142   9.092  22.920  0.00  0.00    +0.000 OA
ATOM     30  H   UNL     1       2.730   9.711  22.444  0.00  0.00    +0.000 HD
ENDBRANCH  27  29
ENDBRANCH   4  27
BRANCH   6  31
ATOM     31  C   UNL     1       1.479   9.254  18.067  0.00  0.00    +0.000 C 
BRANCH  31  32
ATOM     32  O   UNL     1       2.074  10.182  17.125  0.00  0.00    +0.000 OA
ATOM     33  H   UNL     1       1.500  10.971  17.078  0.00  0.00    +0.000 HD
ENDBRANCH  31  32
BRANCH  31  34
ATOM     34  C   UNL     1       2.567   8.240  18.479  0.00  0.00    +0.000 C 
BRANCH  34  35
ATOM     35  O   UNL     1       2.010   7.206  19.299  0.00  0.00    +0.000 OA
ATOM     36  H   UNL     1       2.707   6.889  19.905  0.00  0.00    +0.000 HD
ENDBRANCH  34  35
BRANCH  34  37
ATOM     37  C   UNL     1       3.386   7.618  17.348  0.00  0.00    +0.000 C 
BRANCH  37  38
ATOM     38  O   UNL     1       4.187   6.533  17.800  0.00  0.00    +0.000 OA
ATOM     39  H   UNL     1       3.600   5.958  18.329  0.00  0.00    +0.000 HD
ENDBRANCH  37  38
ENDBRANCH  34  37
ENDBRANCH  31  34
ENDBRANCH   6  31
TORSDOF 13
ENDMDL
