MODEL 1
REMARK VINA RESULT:      -7.7      0.000      0.000
REMARK  Name = 
REMARK  7 active torsions:
REMARK  status: ('A' for Active; 'I' for Inactive)
REMARK    1  A    between atoms: C_1  and  C_2
REMARK    2  A    between atoms: C_5  and  C_6
REMARK    3  A    between atoms: C_11  and  O_12
REMARK    4  A    between atoms: N_15  and  C_16
REMARK    5  A    between atoms: C_19  and  C_20
REMARK    6  A    between atoms: C_20  and  C_21
REMARK    7  A    between atoms: N_22  and  N_23
REMARK                            x       y       z     vdW  Elec       q    Type
REMARK                         _______ _______ _______ _____ _____    ______ ____
ROOT
ATOM      1  C   UNL     1      -0.451  10.849  20.516  0.00  0.00    +0.000 A 
ATOM      2  C   UNL     1       0.258  11.015  19.323  0.00  0.00    +0.000 A 
ATOM      3  C   UNL     1       1.149  10.031  18.880  0.00  0.00    +0.000 A 
ATOM      4  C   UNL     1       1.313   8.846  19.608  0.00  0.00    +0.000 A 
ATOM      5  C   UNL     1       0.572   8.660  20.782  0.00  0.00    +0.000 A 
ATOM      6  C   UNL     1      -0.288   9.666  21.247  0.00  0.00    +0.000 A 
ENDROOT
BRANCH   1  14
ATOM      7  C   UNL     1      -2.883  11.783  18.966  0.00  0.00    +0.000 C 
ATOM      8  C   UNL     1      -2.425  12.334  20.280  0.00  0.00    +0.000 C 
ATOM      9  N   UNL     1      -3.095  13.264  20.898  0.00  0.00    +0.000 NA
ATOM     10  C   UNL     1      -2.440  13.406  22.103  0.00  0.00    +0.000 C 
ATOM     11  C   UNL     1      -2.752  14.221  23.117  0.00  0.00    +0.000 C 
ATOM     12  C   UNL     1      -1.293  12.453  22.170  0.00  0.00    +0.000 C 
ATOM     13  O   UNL     1      -0.512  12.305  23.093  0.00  0.00    +0.000 OA
ATOM     14  N   UNL     1      -1.349  11.844  20.939  0.00  0.00    +0.000 N 
BRANCH  11  15
ATOM     15  C   UNL     1      -3.939  15.081  23.111  0.00  0.00    +0.000 A 
ATOM     16  C   UNL     1      -3.927  16.290  22.406  0.00  0.00    +0.000 A 
ATOM     17  C   UNL     1      -5.067  17.099  22.376  0.00  0.00    +0.000 A 
ATOM     18  C   UNL     1      -6.225  16.702  23.044  0.00  0.00    +0.000 A 
ATOM     19  C   UNL     1      -6.246  15.503  23.756  0.00  0.00    +0.000 A 
ATOM     20  C   UNL     1      -5.105  14.701  23.791  0.00  0.00    +0.000 A 
BRANCH  20  21
ATOM     21  O   UNL     1      -5.114  13.530  24.501  0.00  0.00    +0.000 OA
ATOM     22  H   UNL     1      -4.927  12.797  23.893  0.00  0.00    +0.000 HD
ENDBRANCH  20  21
ENDBRANCH  11  15
ENDBRANCH   1  14
BRANCH   4  23
ATOM     23  C   UNL     1       2.229   7.764  19.126  0.00  0.00    +0.000 C 
ATOM     24  C   UNL     1       2.922   7.947  17.785  0.00  0.00    +0.000 C 
ATOM     25  N   UNL     1       2.419   6.715  19.876  0.00  0.00    +0.000 NA
BRANCH  25  26
ATOM     26  N   UNL     1       3.242   5.747  19.296  0.00  0.00    +0.000 NA
ATOM     27  C   UNL     1       2.755   4.553  19.291  0.00  0.00    +0.000 C 
ATOM     28  N   UNL     1       3.469   3.532  18.746  0.00  0.00    +0.000 N 
ATOM     29  C   UNL     1       2.994   2.265  18.908  0.00  0.00    +0.000 C 
ATOM     30  O   UNL     1       3.546   1.270  18.457  0.00  0.00    +0.000 OA
ATOM     31  C   UNL     1       1.761   2.243  19.775  0.00  0.00    +0.000 C 
ATOM     32  S   UNL     1       1.243   3.972  19.913  0.00  0.00    +0.000 S 
ATOM     33  H   UNL     1       4.337   3.706  18.268  0.00  0.00    +0.000 HD
ENDBRANCH  25  26
ENDBRANCH   4  23
TORSDOF 5
ENDMDL
MODEL 2
REMARK VINA RESULT:      -7.7      3.301     11.312
REMARK  Name = 
REMARK  7 active torsions:
REMARK  status: ('A' for Active; 'I' for Inactive)
REMARK    1  A    between atoms: C_1  and  C_2
REMARK    2  A    between atoms: C_5  and  C_6
REMARK    3  A    between atoms: C_11  and  O_12
REMARK    4  A    between atoms: N_15  and  C_16
REMARK    5  A    between atoms: C_19  and  C_20
REMARK    6  A    between atoms: C_20  and  C_21
REMARK    7  A    between atoms: N_22  and  N_23
REMARK                            x       y       z     vdW  Elec       q    Type
REMARK                         _______ _______ _______ _____ _____    ______ ____
ROOT
ATOM      1  C   UNL     1       0.726   9.244  20.673  0.00  0.00    +0.000 A 
ATOM      2  C   UNL     1       0.047  10.272  20.012  0.00  0.00    +0.000 A 
ATOM      3  C   UNL     1      -0.770  11.158  20.723  0.00  0.00    +0.000 A 
ATOM      4  C   UNL     1      -0.888  11.052  22.113  0.00  0.00    +0.000 A 
ATOM      5  C   UNL     1      -0.174  10.048  22.782  0.00  0.00    +0.000 A 
ATOM      6  C   UNL     1       0.610   9.134  22.064  0.00  0.00    +0.000 A 
ENDROOT
BRANCH   1  14
ATOM      7  C   UNL     1       2.164   9.939  18.096  0.00  0.00    +0.000 C 
ATOM      8  C   UNL     1       2.185   8.602  18.770  0.00  0.00    +0.000 C 
ATOM      9  N   UNL     1       2.891   7.614  18.299  0.00  0.00    +0.000 NA
ATOM     10  C   UNL     1       2.754   6.623  19.247  0.00  0.00    +0.000 C 
ATOM     11  C   UNL     1       3.311   5.406  19.250  0.00  0.00    +0.000 C 
ATOM     12  C   UNL     1       1.892   7.108  20.366  0.00  0.00    +0.000 C 
ATOM     13  O   UNL     1       1.576   6.495  21.370  0.00  0.00    +0.000 OA
ATOM     14  N   UNL     1       1.550   8.370  19.943  0.00  0.00    +0.000 N 
BRANCH  11  15
ATOM     15  C   UNL     1       4.247   4.957  18.216  0.00  0.00    +0.000 A 
ATOM     16  C   UNL     1       3.765   4.474  16.993  0.00  0.00    +0.000 A 
ATOM     17  C   UNL     1       4.656   4.071  15.995  0.00  0.00    +0.000 A 
ATOM     18  C   UNL     1       6.032   4.153  16.209  0.00  0.00    +0.000 A 
ATOM     19  C   UNL     1       6.523   4.625  17.426  0.00  0.00    +0.000 A 
ATOM     20  C   UNL     1       5.632   5.020  18.424  0.00  0.00    +0.000 A 
BRANCH  20  21
ATOM     21  O   UNL     1       6.108   5.470  19.627  0.00  0.00    +0.000 OA
ATOM     22  H   UNL     1       6.351   4.704  20.171  0.00  0.00    +0.000 HD
ENDBRANCH  20  21
ENDBRANCH  11  15
ENDBRANCH   1  14
BRANCH   4  23
ATOM     23  C   UNL     1      -1.722  12.018  22.895  0.00  0.00    +0.000 C 
ATOM     24  C   UNL     1      -1.174  13.415  23.139  0.00  0.00    +0.000 C 
ATOM     25  N   UNL     1      -2.895  11.642  23.321  0.00  0.00    +0.000 NA
BRANCH  25  26
ATOM     26  N   UNL     1      -3.554  12.605  24.088  0.00  0.00    +0.000 NA
ATOM     27  C   UNL     1      -4.589  13.131  23.528  0.00  0.00    +0.000 C 
ATOM     28  N   UNL     1      -5.310  14.077  24.188  0.00  0.00    +0.000 N 
ATOM     29  C   UNL     1      -6.293  14.723  23.500  0.00  0.00    +0.000 C 
ATOM     30  O   UNL     1      -7.010  15.585  23.990  0.00  0.00    +0.000 OA
ATOM     31  C   UNL     1      -6.326  14.301  22.053  0.00  0.00    +0.000 C 
ATOM     32  S   UNL     1      -5.269  12.833  21.959  0.00  0.00    +0.000 S 
ATOM     33  H   UNL     1      -5.101  14.313  25.142  0.00  0.00    +0.000 HD
ENDBRANCH  25  26
ENDBRANCH   4  23
TORSDOF 5
ENDMDL
MODEL 3
REMARK VINA RESULT:      -7.6      3.250     11.281
REMARK  Name = 
REMARK  7 active torsions:
REMARK  status: ('A' for Active; 'I' for Inactive)
REMARK    1  A    between atoms: C_1  and  C_2
REMARK    2  A    between atoms: C_5  and  C_6
REMARK    3  A    between atoms: C_11  and  O_12
REMARK    4  A    between atoms: N_15  and  C_16
REMARK    5  A    between atoms: C_19  and  C_20
REMARK    6  A    between atoms: C_20  and  C_21
REMARK    7  A    between atoms: N_22  and  N_23
REMARK                            x       y       z     vdW  Elec       q    Type
REMARK                         _______ _______ _______ _____ _____    ______ ____
ROOT
ATOM      1  C   UNL     1       0.658   9.505  20.389  0.00  0.00    +0.000 A 
ATOM      2  C   UNL     1      -0.348  10.283  19.808  0.00  0.00    +0.000 A 
ATOM      3  C   UNL     1      -1.156  11.109  20.596  0.00  0.00    +0.000 A 
ATOM      4  C   UNL     1      -0.943  11.199  21.977  0.00  0.00    +0.000 A 
ATOM      5  C   UNL     1       0.091  10.452  22.556  0.00  0.00    +0.000 A 
ATOM      6  C   UNL     1       0.872   9.592  21.770  0.00  0.00    +0.000 A 
ENDROOT
BRANCH   1  14
ATOM      7  C   UNL     1       2.039  10.392  17.841  0.00  0.00    +0.000 C 
ATOM      8  C   UNL     1       2.075   9.009  18.414  0.00  0.00    +0.000 C 
ATOM      9  N   UNL     1       2.771   8.060  17.856  0.00  0.00    +0.000 NA
ATOM     10  C   UNL     1       2.655   7.001  18.731  0.00  0.00    +0.000 C 
ATOM     11  C   UNL     1       3.212   5.789  18.632  0.00  0.00    +0.000 C 
ATOM     12  C   UNL     1       1.817   7.401  19.901  0.00  0.00    +0.000 C 
ATOM     13  O   UNL     1       1.523   6.714  20.863  0.00  0.00    +0.000 OA
ATOM     14  N   UNL     1       1.466   8.690  19.580  0.00  0.00    +0.000 N 
BRANCH  11  15
ATOM     15  C   UNL     1       4.126   5.419  17.548  0.00  0.00    +0.000 A 
ATOM     16  C   UNL     1       4.929   6.393  16.942  0.00  0.00    +0.000 A 
ATOM     17  C   UNL     1       5.822   6.037  15.927  0.00  0.00    +0.000 A 
ATOM     18  C   UNL     1       5.922   4.708  15.515  0.00  0.00    +0.000 A 
ATOM     19  C   UNL     1       5.122   3.731  16.107  0.00  0.00    +0.000 A 
ATOM     20  C   UNL     1       4.226   4.089  17.115  0.00  0.00    +0.000 A 
BRANCH  20  21
ATOM     21  O   UNL     1       3.427   3.136  17.689  0.00  0.00    +0.000 OA
ATOM     22  H   UNL     1       3.944   2.323  17.800  0.00  0.00    +0.000 HD
ENDBRANCH  20  21
ENDBRANCH  11  15
ENDBRANCH   1  14
BRANCH   4  23
ATOM     23  C   UNL     1      -1.769  12.111  22.829  0.00  0.00    +0.000 C 
ATOM     24  C   UNL     1      -1.187  13.459  23.222  0.00  0.00    +0.000 C 
ATOM     25  N   UNL     1      -2.964  11.733  23.187  0.00  0.00    +0.000 NA
BRANCH  25  26
ATOM     26  N   UNL     1      -3.615  12.638  24.030  0.00  0.00    +0.000 NA
ATOM     27  C   UNL     1      -4.659  13.197  23.523  0.00  0.00    +0.000 C 
ATOM     28  N   UNL     1      -5.374  14.091  24.257  0.00  0.00    +0.000 N 
ATOM     29  C   UNL     1      -6.369  14.780  23.630  0.00  0.00    +0.000 C 
ATOM     30  O   UNL     1      -7.082  15.603  24.189  0.00  0.00    +0.000 OA
ATOM     31  C   UNL     1      -6.421  14.460  22.158  0.00  0.00    +0.000 C 
ATOM     32  S   UNL     1      -5.362  13.006  21.947  0.00  0.00    +0.000 S 
ATOM     33  H   UNL     1      -5.152  14.261  25.223  0.00  0.00    +0.000 HD
ENDBRANCH  25  26
ENDBRANCH   4  23
TORSDOF 5
ENDMDL
MODEL 4
REMARK VINA RESULT:      -7.6      3.237     11.329
REMARK  Name = 
REMARK  7 active torsions:
REMARK  status: ('A' for Active; 'I' for Inactive)
REMARK    1  A    between atoms: C_1  and  C_2
REMARK    2  A    between atoms: C_5  and  C_6
REMARK    3  A    between atoms: C_11  and  O_12
REMARK    4  A    between atoms: N_15  and  C_16
REMARK    5  A    between atoms: C_19  and  C_20
REMARK    6  A    between atoms: C_20  and  C_21
REMARK    7  A    between atoms: N_22  and  N_23
REMARK                            x       y       z     vdW  Elec       q    Type
REMARK                         _______ _______ _______ _____ _____    ______ ____
ROOT
ATOM      1  C   UNL     1       0.416  10.698  19.852  0.00  0.00    +0.000 A 
ATOM      2  C   UNL     1       1.096  11.835  20.297  0.00  0.00    +0.000 A 
ATOM      3  C   UNL     1       0.418  13.046  20.478  0.00  0.00    +0.000 A 
ATOM      4  C   UNL     1      -0.961  13.125  20.253  0.00  0.00    +0.000 A 
ATOM      5  C   UNL     1      -1.652  11.976  19.847  0.00  0.00    +0.000 A 
ATOM      6  C   UNL     1      -0.964  10.774  19.624  0.00  0.00    +0.000 A 
ENDROOT
BRANCH   1  14
ATOM      7  C   UNL     1       0.689   8.535  21.958  0.00  0.00    +0.000 C 
ATOM      8  C   UNL     1       1.306   8.503  20.594  0.00  0.00    +0.000 C 
ATOM      9  N   UNL     1       1.996   7.478  20.183  0.00  0.00    +0.000 NA
ATOM     10  C   UNL     1       2.277   7.770  18.865  0.00  0.00    +0.000 C 
ATOM     11  C   UNL     1       2.944   7.018  17.981  0.00  0.00    +0.000 C 
ATOM     12  C   UNL     1       1.675   9.086  18.498  0.00  0.00    +0.000 C 
ATOM     13  O   UNL     1       1.721   9.639  17.414  0.00  0.00    +0.000 OA
ATOM     14  N   UNL     1       1.111   9.489  19.685  0.00  0.00    +0.000 N 
BRANCH  11  15
ATOM     15  C   UNL     1       3.443   5.676  18.294  0.00  0.00    +0.000 A 
ATOM     16  C   UNL     1       4.728   5.510  18.825  0.00  0.00    +0.000 A 
ATOM     17  C   UNL     1       5.196   4.234  19.150  0.00  0.00    +0.000 A 
ATOM     18  C   UNL     1       4.383   3.118  18.953  0.00  0.00    +0.000 A 
ATOM     19  C   UNL     1       3.104   3.271  18.419  0.00  0.00    +0.000 A 
ATOM     20  C   UNL     1       2.641   4.545  18.087  0.00  0.00    +0.000 A 
BRANCH  20  21
ATOM     21  O   UNL     1       1.392   4.699  17.548  0.00  0.00    +0.000 OA
ATOM     22  H   UNL     1       0.931   5.405  18.029  0.00  0.00    +0.000 HD
ENDBRANCH  20  21
ENDBRANCH  11  15
ENDBRANCH   1  14
BRANCH   4  23
ATOM     23  C   UNL     1      -1.710  14.401  20.484  0.00  0.00    +0.000 C 
ATOM     24  C   UNL     1      -0.975  15.717  20.287  0.00  0.00    +0.000 C 
ATOM     25  N   UNL     1      -2.967  14.345  20.825  0.00  0.00    +0.000 NA
BRANCH  25  26
ATOM     26  N   UNL     1      -3.542  15.593  21.073  0.00  0.00    +0.000 NA
ATOM     27  C   UNL     1      -4.358  15.625  22.070  0.00  0.00    +0.000 C 
ATOM     28  N   UNL     1      -4.973  16.791  22.407  0.00  0.00    +0.000 N 
ATOM     29  C   UNL     1      -5.948  16.747  23.356  0.00  0.00    +0.000 C 
ATOM     30  O   UNL     1      -6.564  17.731  23.745  0.00  0.00    +0.000 OA
ATOM     31  C   UNL     1      -6.223  15.333  23.802  0.00  0.00    +0.000 C 
ATOM     32  S   UNL     1      -4.860  14.347  23.132  0.00  0.00    +0.000 S 
ATOM     33  H   UNL     1      -4.736  17.652  21.943  0.00  0.00    +0.000 HD
ENDBRANCH  25  26
ENDBRANCH   4  23
TORSDOF 5
ENDMDL
MODEL 5
REMARK VINA RESULT:      -7.5      3.169      3.758
REMARK  Name = 
REMARK  7 active torsions:
REMARK  status: ('A' for Active; 'I' for Inactive)
REMARK    1  A    between atoms: C_1  and  C_2
REMARK    2  A    between atoms: C_5  and  C_6
REMARK    3  A    between atoms: C_11  and  O_12
REMARK    4  A    between atoms: N_15  and  C_16
REMARK    5  A    between atoms: C_19  and  C_20
REMARK    6  A    between atoms: C_20  and  C_21
REMARK    7  A    between atoms: N_22  and  N_23
REMARK                            x       y       z     vdW  Elec       q    Type
REMARK                         _______ _______ _______ _____ _____    ______ ____
ROOT
ATOM      1  C   UNL     1       0.933  10.621  19.314  0.00  0.00    +0.000 A 
ATOM      2  C   UNL     1       0.830  10.043  20.582  0.00  0.00    +0.000 A 
ATOM      3  C   UNL     1       1.266   8.732  20.806  0.00  0.00    +0.000 A 
ATOM      4  C   UNL     1       1.849   7.994  19.770  0.00  0.00    +0.000 A 
ATOM      5  C   UNL     1       1.992   8.586  18.509  0.00  0.00    +0.000 A 
ATOM      6  C   UNL     1       1.515   9.885  18.275  0.00  0.00    +0.000 A 
ENDROOT
BRANCH   1  14
ATOM      7  C   UNL     1      -1.664  11.421  17.972  0.00  0.00    +0.000 C 
ATOM      8  C   UNL     1      -0.624  12.367  18.485  0.00  0.00    +0.000 C 
ATOM      9  N   UNL     1      -0.791  13.657  18.429  0.00  0.00    +0.000 NA
ATOM     10  C   UNL     1       0.299  14.166  19.102  0.00  0.00    +0.000 C 
ATOM     11  C   UNL     1       0.586  15.449  19.351  0.00  0.00    +0.000 C 
ATOM     12  C   UNL     1       1.158  13.047  19.593  0.00  0.00    +0.000 C 
ATOM     13  O   UNL     1       2.191  13.139  20.232  0.00  0.00    +0.000 OA
ATOM     14  N   UNL     1       0.499  11.942  19.111  0.00  0.00    +0.000 N 
BRANCH  11  15
ATOM     15  C   UNL     1      -0.303  16.551  18.974  0.00  0.00    +0.000 A 
ATOM     16  C   UNL     1      -0.023  17.325  17.841  0.00  0.00    +0.000 A 
ATOM     17  C   UNL     1      -0.884  18.358  17.463  0.00  0.00    +0.000 A 
ATOM     18  C   UNL     1      -2.033  18.621  18.210  0.00  0.00    +0.000 A 
ATOM     19  C   UNL     1      -2.319  17.862  19.344  0.00  0.00    +0.000 A 
ATOM     20  C   UNL     1      -1.453  16.835  19.724  0.00  0.00    +0.000 A 
BRANCH  20  21
ATOM     21  O   UNL     1      -1.721  16.096  20.846  0.00  0.00    +0.000 OA
ATOM     22  H   UNL     1      -0.994  16.216  21.477  0.00  0.00    +0.000 HD
ENDBRANCH  20  21
ENDBRANCH  11  15
ENDBRANCH   1  14
BRANCH   4  23
ATOM     23  C   UNL     1       2.361   6.607  20.003  0.00  0.00    +0.000 C 
ATOM     24  C   UNL     1       1.482   5.630  20.767  0.00  0.00    +0.000 C 
ATOM     25  N   UNL     1       3.528   6.274  19.527  0.00  0.00    +0.000 NA
BRANCH  25  26
ATOM     26  N   UNL     1       3.926   4.977  19.859  0.00  0.00    +0.000 NA
ATOM     27  C   UNL     1       3.675   4.086  18.962  0.00  0.00    +0.000 C 
ATOM     28  N   UNL     1       4.025   2.790  19.177  0.00  0.00    +0.000 N 
ATOM     29  C   UNL     1       3.595   1.857  18.282  0.00  0.00    +0.000 C 
ATOM     30  O   UNL     1       3.854   0.663  18.367  0.00  0.00    +0.000 OA
ATOM     31  C   UNL     1       2.704   2.467  17.231  0.00  0.00    +0.000 C 
ATOM     32  S   UNL     1       2.901   4.258  17.418  0.00  0.00    +0.000 S 
ATOM     33  H   UNL     1       4.555   2.526  19.990  0.00  0.00    +0.000 HD
ENDBRANCH  25  26
ENDBRANCH   4  23
TORSDOF 5
ENDMDL
MODEL 6
REMARK VINA RESULT:      -7.5      0.858      1.215
REMARK  Name = 
REMARK  7 active torsions:
REMARK  status: ('A' for Active; 'I' for Inactive)
REMARK    1  A    between atoms: C_1  and  C_2
REMARK    2  A    between atoms: C_5  and  C_6
REMARK    3  A    between atoms: C_11  and  O_12
REMARK    4  A    between atoms: N_15  and  C_16
REMARK    5  A    between atoms: C_19  and  C_20
REMARK    6  A    between atoms: C_20  and  C_21
REMARK    7  A    between atoms: N_22  and  N_23
REMARK                            x       y       z     vdW  Elec       q    Type
REMARK                         _______ _______ _______ _____ _____    ______ ____
ROOT
ATOM      1  C   UNL     1      -0.454  10.891  20.531  0.00  0.00    +0.000 A 
ATOM      2  C   UNL     1       0.226  11.054  19.321  0.00  0.00    +0.000 A 
ATOM      3  C   UNL     1       1.116  10.075  18.865  0.00  0.00    +0.000 A 
ATOM      4  C   UNL     1       1.309   8.899  19.597  0.00  0.00    +0.000 A 
ATOM      5  C   UNL     1       0.597   8.714  20.790  0.00  0.00    +0.000 A 
ATOM      6  C   UNL     1      -0.262   9.715  21.267  0.00  0.00    +0.000 A 
ENDROOT
BRANCH   1  14
ATOM      7  C   UNL     1      -2.884  11.847  18.992  0.00  0.00    +0.000 C 
ATOM      8  C   UNL     1      -2.427  12.381  20.315  0.00  0.00    +0.000 C 
ATOM      9  N   UNL     1      -3.097  13.302  20.945  0.00  0.00    +0.000 NA
ATOM     10  C   UNL     1      -2.443  13.426  22.151  0.00  0.00    +0.000 C 
ATOM     11  C   UNL     1      -2.755  14.228  23.177  0.00  0.00    +0.000 C 
ATOM     12  C   UNL     1      -1.296  12.472  22.206  0.00  0.00    +0.000 C 
ATOM     13  O   UNL     1      -0.516  12.312  23.128  0.00  0.00    +0.000 OA
ATOM     14  N   UNL     1      -1.351  11.880  20.967  0.00  0.00    +0.000 N 
BRANCH  11  15
ATOM     15  C   UNL     1      -3.941  15.088  23.182  0.00  0.00    +0.000 A 
ATOM     16  C   UNL     1      -5.154  14.610  23.692  0.00  0.00    +0.000 A 
ATOM     17  C   UNL     1      -6.280  15.438  23.724  0.00  0.00    +0.000 A 
ATOM     18  C   UNL     1      -6.199  16.748  23.253  0.00  0.00    +0.000 A 
ATOM     19  C   UNL     1      -4.998  17.233  22.737  0.00  0.00    +0.000 A 
ATOM     20  C   UNL     1      -3.878  16.403  22.699  0.00  0.00    +0.000 A 
BRANCH  20  21
ATOM     21  O   UNL     1      -2.699  16.868  22.179  0.00  0.00    +0.000 OA
ATOM     22  H   UNL     1      -2.094  17.066  22.911  0.00  0.00    +0.000 HD
ENDBRANCH  20  21
ENDBRANCH  11  15
ENDBRANCH   1  14
BRANCH   4  23
ATOM     23  C   UNL     1       2.224   7.822  19.103  0.00  0.00    +0.000 C 
ATOM     24  C   UNL     1       2.944   8.035  17.781  0.00  0.00    +0.000 C 
ATOM     25  N   UNL     1       2.390   6.751  19.826  0.00  0.00    +0.000 NA
BRANCH  25  26
ATOM     26  N   UNL     1       3.216   5.791  19.235  0.00  0.00    +0.000 NA
ATOM     27  C   UNL     1       2.736   4.594  19.227  0.00  0.00    +0.000 C 
ATOM     28  N   UNL     1       3.453   3.581  18.671  0.00  0.00    +0.000 N 
ATOM     29  C   UNL     1       2.988   2.310  18.829  0.00  0.00    +0.000 C 
ATOM     30  O   UNL     1       3.542   1.321  18.368  0.00  0.00    +0.000 OA
ATOM     31  C   UNL     1       1.761   2.274  19.703  0.00  0.00    +0.000 C 
ATOM     32  S   UNL     1       1.232   4.000  19.855  0.00  0.00    +0.000 S 
ATOM     33  H   UNL     1       4.316   3.763  18.188  0.00  0.00    +0.000 HD
ENDBRANCH  25  26
ENDBRANCH   4  23
TORSDOF 5
ENDMDL
MODEL 7
REMARK VINA RESULT:      -7.4      3.454     11.358
REMARK  Name = 
REMARK  7 active torsions:
REMARK  status: ('A' for Active; 'I' for Inactive)
REMARK    1  A    between atoms: C_1  and  C_2
REMARK    2  A    between atoms: C_5  and  C_6
REMARK    3  A    between atoms: C_11  and  O_12
REMARK    4  A    between atoms: N_15  and  C_16
REMARK    5  A    between atoms: C_19  and  C_20
REMARK    6  A    between atoms: C_20  and  C_21
REMARK    7  A    between atoms: N_22  and  N_23
REMARK                            x       y       z     vdW  Elec       q    Type
REMARK                         _______ _______ _______ _____ _____    ______ ____
ROOT
ATOM      1  C   UNL     1       0.453  10.669  19.809  0.00  0.00    +0.000 A 
ATOM      2  C   UNL     1       1.080  11.751  20.433  0.00  0.00    +0.000 A 
ATOM      3  C   UNL     1       0.404  12.965  20.606  0.00  0.00    +0.000 A 
ATOM      4  C   UNL     1      -0.925  13.099  20.190  0.00  0.00    +0.000 A 
ATOM      5  C   UNL     1      -1.569  12.002  19.602  0.00  0.00    +0.000 A 
ATOM      6  C   UNL     1      -0.877  10.801  19.391  0.00  0.00    +0.000 A 
ENDROOT
BRANCH   1  14
ATOM      7  C   UNL     1       0.655   8.492  21.908  0.00  0.00    +0.000 C 
ATOM      8  C   UNL     1       1.308   8.464  20.561  0.00  0.00    +0.000 C 
ATOM      9  N   UNL     1       2.002   7.437  20.163  0.00  0.00    +0.000 NA
ATOM     10  C   UNL     1       2.320   7.734  18.855  0.00  0.00    +0.000 C 
ATOM     11  C   UNL     1       3.005   6.983  17.985  0.00  0.00    +0.000 C 
ATOM     12  C   UNL     1       1.737   9.057  18.480  0.00  0.00    +0.000 C 
ATOM     13  O   UNL     1       1.817   9.616  17.401  0.00  0.00    +0.000 OA
ATOM     14  N   UNL     1       1.145   9.456  19.654  0.00  0.00    +0.000 N 
BRANCH  11  15
ATOM     15  C   UNL     1       3.486   5.636  18.303  0.00  0.00    +0.000 A 
ATOM     16  C   UNL     1       4.770   5.455  18.831  0.00  0.00    +0.000 A 
ATOM     17  C   UNL     1       5.221   4.173  19.162  0.00  0.00    +0.000 A 
ATOM     18  C   UNL     1       4.392   3.068  18.971  0.00  0.00    +0.000 A 
ATOM     19  C   UNL     1       3.114   3.236  18.439  0.00  0.00    +0.000 A 
ATOM     20  C   UNL     1       2.669   4.515  18.103  0.00  0.00    +0.000 A 
BRANCH  20  21
ATOM     21  O   UNL     1       1.420   4.684  17.565  0.00  0.00    +0.000 OA
ATOM     22  H   UNL     1       1.103   5.573  17.791  0.00  0.00    +0.000 HD
ENDBRANCH  20  21
ENDBRANCH  11  15
ENDBRANCH   1  14
BRANCH   4  23
ATOM     23  C   UNL     1      -1.677  14.375  20.407  0.00  0.00    +0.000 C 
ATOM     24  C   UNL     1      -0.984  15.688  20.081  0.00  0.00    +0.000 C 
ATOM     25  N   UNL     1      -2.904  14.321  20.844  0.00  0.00    +0.000 NA
BRANCH  25  26
ATOM     26  N   UNL     1      -3.482  15.573  21.066  0.00  0.00    +0.000 NA
ATOM     27  C   UNL     1      -4.755  15.624  20.873  0.00  0.00    +0.000 C 
ATOM     28  N   UNL     1      -5.424  16.793  21.065  0.00  0.00    +0.000 N 
ATOM     29  C   UNL     1      -6.733  16.847  20.692  0.00  0.00    +0.000 C 
ATOM     30  O   UNL     1      -7.436  17.841  20.823  0.00  0.00    +0.000 OA
ATOM     31  C   UNL     1      -7.174  15.567  20.030  0.00  0.00    +0.000 C 
ATOM     32  S   UNL     1      -5.849  14.378  20.361  0.00  0.00    +0.000 S 
ATOM     33  H   UNL     1      -4.955  17.601  21.439  0.00  0.00    +0.000 HD
ENDBRANCH  25  26
ENDBRANCH   4  23
TORSDOF 5
ENDMDL
MODEL 8
REMARK VINA RESULT:      -7.4      1.374      1.672
REMARK  Name = 
REMARK  7 active torsions:
REMARK  status: ('A' for Active; 'I' for Inactive)
REMARK    1  A    between atoms: C_1  and  C_2
REMARK    2  A    between atoms: C_5  and  C_6
REMARK    3  A    between atoms: C_11  and  O_12
REMARK    4  A    between atoms: N_15  and  C_16
REMARK    5  A    between atoms: C_19  and  C_20
REMARK    6  A    between atoms: C_20  and  C_21
REMARK    7  A    between atoms: N_22  and  N_23
REMARK                            x       y       z     vdW  Elec       q    Type
REMARK                         _______ _______ _______ _____ _____    ______ ____
ROOT
ATOM      1  C   UNL     1       0.010  10.617  19.853  0.00  0.00    +0.000 A 
ATOM      2  C   UNL     1       0.695  10.616  18.635  0.00  0.00    +0.000 A 
ATOM      3  C   UNL     1       1.592   9.588  18.322  0.00  0.00    +0.000 A 
ATOM      4  C   UNL     1       1.785   8.523  19.210  0.00  0.00    +0.000 A 
ATOM      5  C   UNL     1       1.067   8.501  20.413  0.00  0.00    +0.000 A 
ATOM      6  C   UNL     1       0.202   9.554  20.744  0.00  0.00    +0.000 A 
ENDROOT
BRANCH   1  14
ATOM      7  C   UNL     1      -2.651  11.058  18.470  0.00  0.00    +0.000 C 
ATOM      8  C   UNL     1      -2.073  11.930  19.541  0.00  0.00    +0.000 C 
ATOM      9  N   UNL     1      -2.723  12.958  20.005  0.00  0.00    +0.000 NA
ATOM     10  C   UNL     1      -1.936  13.413  21.040  0.00  0.00    +0.000 C 
ATOM     11  C   UNL     1      -2.175  14.440  21.864  0.00  0.00    +0.000 C 
ATOM     12  C   UNL     1      -0.728  12.546  21.176  0.00  0.00    +0.000 C 
ATOM     13  O   UNL     1       0.169  12.657  21.994  0.00  0.00    +0.000 OA
ATOM     14  N   UNL     1      -0.894  11.653  20.145  0.00  0.00    +0.000 N 
BRANCH  11  15
ATOM     15  C   UNL     1      -3.408  15.230  21.815  0.00  0.00    +0.000 A 
ATOM     16  C   UNL     1      -4.394  15.056  22.794  0.00  0.00    +0.000 A 
ATOM     17  C   UNL     1      -5.558  15.829  22.766  0.00  0.00    +0.000 A 
ATOM     18  C   UNL     1      -5.743  16.782  21.764  0.00  0.00    +0.000 A 
ATOM     19  C   UNL     1      -4.771  16.958  20.780  0.00  0.00    +0.000 A 
ATOM     20  C   UNL     1      -3.612  16.181  20.806  0.00  0.00    +0.000 A 
BRANCH  20  21
ATOM     21  O   UNL     1      -2.661  16.340  19.833  0.00  0.00    +0.000 OA
ATOM     22  H   UNL     1      -3.073  16.186  18.968  0.00  0.00    +0.000 HD
ENDBRANCH  20  21
ENDBRANCH  11  15
ENDBRANCH   1  14
BRANCH   4  23
ATOM     23  C   UNL     1       2.706   7.393  18.872  0.00  0.00    +0.000 C 
ATOM     24  C   UNL     1       3.484   7.458  17.568  0.00  0.00    +0.000 C 
ATOM     25  N   UNL     1       2.829   6.403  19.712  0.00  0.00    +0.000 NA
BRANCH  25  26
ATOM     26  N   UNL     1       3.666   5.380  19.262  0.00  0.00    +0.000 NA
ATOM     27  C   UNL     1       3.094   4.234  19.119  0.00  0.00    +0.000 C 
ATOM     28  N   UNL     1       3.813   3.166  18.681  0.00  0.00    +0.000 N 
ATOM     29  C   UNL     1       3.215   1.943  18.702  0.00  0.00    +0.000 C 
ATOM     30  O   UNL     1       3.760   0.913  18.325  0.00  0.00    +0.000 OA
ATOM     31  C   UNL     1       1.841   2.008  19.318  0.00  0.00    +0.000 C 
ATOM     32  S   UNL     1       1.448   3.773  19.421  0.00  0.00    +0.000 S 
ATOM     33  H   UNL     1       4.768   3.274  18.383  0.00  0.00    +0.000 HD
ENDBRANCH  25  26
ENDBRANCH   4  23
TORSDOF 5
ENDMDL
MODEL 9
REMARK VINA RESULT:      -7.4      2.310      2.872
REMARK  Name = 
REMARK  7 active torsions:
REMARK  status: ('A' for Active; 'I' for Inactive)
REMARK    1  A    between atoms: C_1  and  C_2
REMARK    2  A    between atoms: C_5  and  C_6
REMARK    3  A    between atoms: C_11  and  O_12
REMARK    4  A    between atoms: N_15  and  C_16
REMARK    5  A    between atoms: C_19  and  C_20
REMARK    6  A    between atoms: C_20  and  C_21
REMARK    7  A    between atoms: N_22  and  N_23
REMARK                            x       y       z     vdW  Elec       q    Type
REMARK                         _______ _______ _______ _____ _____    ______ ____
ROOT
ATOM      1  C   UNL     1       0.067   9.639  20.719  0.00  0.00    +0.000 A 
ATOM      2  C   UNL     1       0.122   8.504  21.532  0.00  0.00    +0.000 A 
ATOM      3  C   UNL     1       0.897   7.398  21.162  0.00  0.00    +0.000 A 
ATOM      4  C   UNL     1       1.661   7.431  19.990  0.00  0.00    +0.000 A 
ATOM      5  C   UNL     1       1.641   8.585  19.195  0.00  0.00    +0.000 A 
ATOM      6  C   UNL     1       0.829   9.675  19.545  0.00  0.00    +0.000 A 
ENDROOT
BRANCH   1  14
ATOM      7  C   UNL     1      -1.720  11.262  18.885  0.00  0.00    +0.000 C 
ATOM      8  C   UNL     1      -1.492  11.533  20.340  0.00  0.00    +0.000 C 
ATOM      9  N   UNL     1      -2.109  12.500  20.957  0.00  0.00    +0.000 NA
ATOM     10  C   UNL     1      -1.741  12.344  22.276  0.00  0.00    +0.000 C 
ATOM     11  C   UNL     1      -2.130  13.073  23.329  0.00  0.00    +0.000 C 
ATOM     12  C   UNL     1      -0.835  11.166  22.414  0.00  0.00    +0.000 C 
ATOM     13  O   UNL     1      -0.333  10.739  23.439  0.00  0.00    +0.000 OA
ATOM     14  N   UNL     1      -0.709  10.743  21.112  0.00  0.00    +0.000 N 
BRANCH  11  15
ATOM     15  C   UNL     1      -3.105  14.162  23.227  0.00  0.00    +0.000 A 
ATOM     16  C   UNL     1      -2.676  15.467  22.954  0.00  0.00    +0.000 A 
ATOM     17  C   UNL     1      -3.607  16.502  22.828  0.00  0.00    +0.000 A 
ATOM     18  C   UNL     1      -4.970  16.240  22.968  0.00  0.00    +0.000 A 
ATOM     19  C   UNL     1      -5.408  14.946  23.246  0.00  0.00    +0.000 A 
ATOM     20  C   UNL     1      -4.477  13.915  23.379  0.00  0.00    +0.000 A 
BRANCH  20  21
ATOM     21  O   UNL     1      -4.900  12.645  23.667  0.00  0.00    +0.000 OA
ATOM     22  H   UNL     1      -5.414  12.311  22.915  0.00  0.00    +0.000 HD
ENDBRANCH  20  21
ENDBRANCH  11  15
ENDBRANCH   1  14
BRANCH   4  23
ATOM     23  C   UNL     1       2.530   6.276  19.601  0.00  0.00    +0.000 C 
ATOM     24  C   UNL     1       2.650   5.105  20.563  0.00  0.00    +0.000 C 
ATOM     25  N   UNL     1       3.137   6.300  18.448  0.00  0.00    +0.000 NA
BRANCH  25  26
ATOM     26  N   UNL     1       3.967   5.199  18.223  0.00  0.00    +0.000 NA
ATOM     27  C   UNL     1       5.175   5.491  17.879  0.00  0.00    +0.000 C 
ATOM     28  N   UNL     1       6.071   4.497  17.640  0.00  0.00    +0.000 N 
ATOM     29  C   UNL     1       7.283   4.843  17.122  0.00  0.00    +0.000 C 
ATOM     30  O   UNL     1       8.170   4.037  16.873  0.00  0.00    +0.000 OA
ATOM     31  C   UNL     1       7.357   6.318  16.822  0.00  0.00    +0.000 C 
ATOM     32  S   UNL     1       5.912   7.044  17.638  0.00  0.00    +0.000 S 
ATOM     33  H   UNL     1       5.833   3.535  17.810  0.00  0.00    +0.000 HD
ENDBRANCH  25  26
ENDBRANCH   4  23
TORSDOF 5
ENDMDL
