MODEL 1
REMARK VINA RESULT:      -8.2      0.000      0.000
REMARK  Name = 
REMARK  4 active torsions:
REMARK  status: ('A' for Active; 'I' for Inactive)
REMARK    1  A    between atoms: C_1  and  C_2
REMARK    2  A    between atoms: C_6  and  C_7
REMARK    3  A    between atoms: C_7  and  C_8
REMARK    4  A    between atoms: C_15  and  C_16
REMARK                            x       y       z     vdW  Elec       q    Type
REMARK                         _______ _______ _______ _____ _____    ______ ____
ROOT
ATOM      1  C   UNL     1       2.592   2.275  17.791  0.00  0.00    +0.000 C 
ATOM      2  C   UNL     1       2.402   3.728  17.481  0.00  0.00    +0.000 C 
ATOM      3  O   UNL     1       1.311   4.291  17.456  0.00  0.00    +0.000 OA
ATOM      4  N   UNL     1       3.588   4.457  17.321  0.00  0.00    +0.000 N 
ATOM      5  N   UNL     1       4.744   3.841  16.927  0.00  0.00    +0.000 NA
ATOM      6  C   UNL     1       5.541   4.885  16.656  0.00  0.00    +0.000 A 
ATOM      7  N   UNL     1       5.016   6.099  17.005  0.00  0.00    +0.000 NA
ATOM      8  C   UNL     1       3.820   5.816  17.494  0.00  0.00    +0.000 A 
ENDROOT
BRANCH   8   9
ATOM      9  C   UNL     1       2.968   6.782  18.196  0.00  0.00    +0.000 A 
ATOM     10  C   UNL     1       2.600   7.965  17.545  0.00  0.00    +0.000 A 
ATOM     11  C   UNL     1       1.845   8.943  18.202  0.00  0.00    +0.000 A 
ATOM     12  C   UNL     1       1.449   8.747  19.522  0.00  0.00    +0.000 A 
ATOM     13  C   UNL     1       1.821   7.585  20.190  0.00  0.00    +0.000 A 
ATOM     14  C   UNL     1       2.589   6.618  19.537  0.00  0.00    +0.000 A 
ENDBRANCH   8   9
BRANCH   6  15
ATOM     15  C   UNL     1       6.948   4.753  16.182  0.00  0.00    +0.000 C 
BRANCH  15  16
ATOM     16  C   UNL     1       6.908   4.595  14.680  0.00  0.00    +0.000 A 
ATOM     17  C   UNL     1       7.756   5.350  13.854  0.00  0.00    +0.000 A 
ATOM     18  C   UNL     1       7.733   5.182  12.466  0.00  0.00    +0.000 A 
ATOM     19  C   UNL     1       6.862   4.260  11.888  0.00  0.00    +0.000 A 
ATOM     20  C   UNL     1       6.017   3.503  12.697  0.00  0.00    +0.000 A 
ATOM     21  C   UNL     1       6.039   3.668  14.084  0.00  0.00    +0.000 A 
ENDBRANCH  15  16
ENDBRANCH   6  15
TORSDOF 3
ENDMDL
MODEL 2
REMARK VINA RESULT:      -8.2      2.361      3.834
REMARK  Name = 
REMARK  4 active torsions:
REMARK  status: ('A' for Active; 'I' for Inactive)
REMARK    1  A    between atoms: C_1  and  C_2
REMARK    2  A    between atoms: C_6  and  C_7
REMARK    3  A    between atoms: C_7  and  C_8
REMARK    4  A    between atoms: C_15  and  C_16
REMARK                            x       y       z     vdW  Elec       q    Type
REMARK                         _______ _______ _______ _____ _____    ______ ____
ROOT
ATOM      1  C   UNL     1       7.801   6.342  18.387  0.00  0.00    +0.000 C 
ATOM      2  C   UNL     1       6.870   5.183  18.197  0.00  0.00    +0.000 C 
ATOM      3  O   UNL     1       6.390   4.526  19.117  0.00  0.00    +0.000 OA
ATOM      4  N   UNL     1       6.480   4.950  16.871  0.00  0.00    +0.000 N 
ATOM      5  N   UNL     1       7.271   5.343  15.827  0.00  0.00    +0.000 NA
ATOM      6  C   UNL     1       6.687   4.731  14.787  0.00  0.00    +0.000 A 
ATOM      7  N   UNL     1       5.501   4.118  15.086  0.00  0.00    +0.000 NA
ATOM      8  C   UNL     1       5.339   4.326  16.383  0.00  0.00    +0.000 A 
ENDROOT
BRANCH   8   9
ATOM      9  C   UNL     1       4.099   4.038  17.114  0.00  0.00    +0.000 A 
ATOM     10  C   UNL     1       3.290   5.101  17.529  0.00  0.00    +0.000 A 
ATOM     11  C   UNL     1       2.136   4.874  18.285  0.00  0.00    +0.000 A 
ATOM     12  C   UNL     1       1.778   3.575  18.637  0.00  0.00    +0.000 A 
ATOM     13  C   UNL     1       2.580   2.507  18.248  0.00  0.00    +0.000 A 
ATOM     14  C   UNL     1       3.741   2.739  17.507  0.00  0.00    +0.000 A 
ENDBRANCH   8   9
BRANCH   6  15
ATOM     15  C   UNL     1       7.172   4.841  13.381  0.00  0.00    +0.000 C 
BRANCH  15  16
ATOM     16  C   UNL     1       6.411   3.827  12.558  0.00  0.00    +0.000 A 
ATOM     17  C   UNL     1       5.038   3.982  12.314  0.00  0.00    +0.000 A 
ATOM     18  C   UNL     1       4.344   3.055  11.531  0.00  0.00    +0.000 A 
ATOM     19  C   UNL     1       5.014   1.962  10.984  0.00  0.00    +0.000 A 
ATOM     20  C   UNL     1       6.378   1.798  11.217  0.00  0.00    +0.000 A 
ATOM     21  C   UNL     1       7.074   2.723  11.998  0.00  0.00    +0.000 A 
ENDBRANCH  15  16
ENDBRANCH   6  15
TORSDOF 3
ENDMDL
MODEL 3
REMARK VINA RESULT:      -8.2      2.476      4.013
REMARK  Name = 
REMARK  4 active torsions:
REMARK  status: ('A' for Active; 'I' for Inactive)
REMARK    1  A    between atoms: C_1  and  C_2
REMARK    2  A    between atoms: C_6  and  C_7
REMARK    3  A    between atoms: C_7  and  C_8
REMARK    4  A    between atoms: C_15  and  C_16
REMARK                            x       y       z     vdW  Elec       q    Type
REMARK                         _______ _______ _______ _____ _____    ______ ____
ROOT
ATOM      1  C   UNL     1       7.839   6.213  18.352  0.00  0.00    +0.000 C 
ATOM      2  C   UNL     1       6.912   5.058  18.125  0.00  0.00    +0.000 C 
ATOM      3  O   UNL     1       6.464   4.348  19.021  0.00  0.00    +0.000 OA
ATOM      4  N   UNL     1       6.487   4.893  16.800  0.00  0.00    +0.000 N 
ATOM      5  N   UNL     1       7.246   5.348  15.757  0.00  0.00    +0.000 NA
ATOM      6  C   UNL     1       6.638   4.788  14.702  0.00  0.00    +0.000 A 
ATOM      7  N   UNL     1       5.466   4.148  15.001  0.00  0.00    +0.000 NA
ATOM      8  C   UNL     1       5.338   4.285  16.311  0.00  0.00    +0.000 A 
ENDROOT
BRANCH   8   9
ATOM      9  C   UNL     1       4.122   3.946  17.059  0.00  0.00    +0.000 A 
ATOM     10  C   UNL     1       3.827   2.601  17.306  0.00  0.00    +0.000 A 
ATOM     11  C   UNL     1       2.644   2.232  17.956  0.00  0.00    +0.000 A 
ATOM     12  C   UNL     1       1.741   3.208  18.367  0.00  0.00    +0.000 A 
ATOM     13  C   UNL     1       2.010   4.550  18.114  0.00  0.00    +0.000 A 
ATOM     14  C   UNL     1       3.184   4.914  17.450  0.00  0.00    +0.000 A 
ENDBRANCH   8   9
BRANCH   6  15
ATOM     15  C   UNL     1       7.082   4.978  13.292  0.00  0.00    +0.000 C 
BRANCH  15  16
ATOM     16  C   UNL     1       6.586   3.793  12.496  0.00  0.00    +0.000 A 
ATOM     17  C   UNL     1       5.218   3.626  12.230  0.00  0.00    +0.000 A 
ATOM     18  C   UNL     1       4.767   2.541  11.472  0.00  0.00    +0.000 A 
ATOM     19  C   UNL     1       5.677   1.612  10.972  0.00  0.00    +0.000 A 
ATOM     20  C   UNL     1       7.038   1.767  11.227  0.00  0.00    +0.000 A 
ATOM     21  C   UNL     1       7.491   2.850  11.984  0.00  0.00    +0.000 A 
ENDBRANCH  15  16
ENDBRANCH   6  15
TORSDOF 3
ENDMDL
MODEL 4
REMARK VINA RESULT:      -8.2      2.452      3.893
REMARK  Name = 
REMARK  4 active torsions:
REMARK  status: ('A' for Active; 'I' for Inactive)
REMARK    1  A    between atoms: C_1  and  C_2
REMARK    2  A    between atoms: C_6  and  C_7
REMARK    3  A    between atoms: C_7  and  C_8
REMARK    4  A    between atoms: C_15  and  C_16
REMARK                            x       y       z     vdW  Elec       q    Type
REMARK                         _______ _______ _______ _____ _____    ______ ____
ROOT
ATOM      1  C   UNL     1       7.707   6.518  18.289  0.00  0.00    +0.000 C 
ATOM      2  C   UNL     1       6.864   5.289  18.134  0.00  0.00    +0.000 C 
ATOM      3  O   UNL     1       6.423   4.633  19.074  0.00  0.00    +0.000 OA
ATOM      4  N   UNL     1       6.506   4.981  16.815  0.00  0.00    +0.000 N 
ATOM      5  N   UNL     1       7.278   5.391  15.763  0.00  0.00    +0.000 NA
ATOM      6  C   UNL     1       6.750   4.701  14.742  0.00  0.00    +0.000 A 
ATOM      7  N   UNL     1       5.608   4.015  15.055  0.00  0.00    +0.000 NA
ATOM      8  C   UNL     1       5.418   4.259  16.341  0.00  0.00    +0.000 A 
ENDROOT
BRANCH   8   9
ATOM      9  C   UNL     1       4.195   3.908  17.072  0.00  0.00    +0.000 A 
ATOM     10  C   UNL     1       3.310   4.925  17.447  0.00  0.00    +0.000 A 
ATOM     11  C   UNL     1       2.167   4.643  18.203  0.00  0.00    +0.000 A 
ATOM     12  C   UNL     1       1.897   3.334  18.594  0.00  0.00    +0.000 A 
ATOM     13  C   UNL     1       2.775   2.313  18.245  0.00  0.00    +0.000 A 
ATOM     14  C   UNL     1       3.924   2.601  17.505  0.00  0.00    +0.000 A 
ENDBRANCH   8   9
BRANCH   6  15
ATOM     15  C   UNL     1       7.240   4.794  13.337  0.00  0.00    +0.000 C 
BRANCH  15  16
ATOM     16  C   UNL     1       6.444   3.811  12.511  0.00  0.00    +0.000 A 
ATOM     17  C   UNL     1       7.046   2.657  11.986  0.00  0.00    +0.000 A 
ATOM     18  C   UNL     1       6.299   1.738  11.244  0.00  0.00    +0.000 A 
ATOM     19  C   UNL     1       4.942   1.962  11.018  0.00  0.00    +0.000 A 
ATOM     20  C   UNL     1       4.331   3.102  11.535  0.00  0.00    +0.000 A 
ATOM     21  C   UNL     1       5.076   4.022  12.277  0.00  0.00    +0.000 A 
ENDBRANCH  15  16
ENDBRANCH   6  15
TORSDOF 3
ENDMDL
MODEL 5
REMARK VINA RESULT:      -8.1      2.809      6.166
REMARK  Name = 
REMARK  4 active torsions:
REMARK  status: ('A' for Active; 'I' for Inactive)
REMARK    1  A    between atoms: C_1  and  C_2
REMARK    2  A    between atoms: C_6  and  C_7
REMARK    3  A    between atoms: C_7  and  C_8
REMARK    4  A    between atoms: C_15  and  C_16
REMARK                            x       y       z     vdW  Elec       q    Type
REMARK                         _______ _______ _______ _____ _____    ______ ____
ROOT
ATOM      1  C   UNL     1       6.253   4.081  13.734  0.00  0.00    +0.000 C 
ATOM      2  C   UNL     1       6.691   4.343  15.143  0.00  0.00    +0.000 C 
ATOM      3  O   UNL     1       7.856   4.543  15.476  0.00  0.00    +0.000 OA
ATOM      4  N   UNL     1       5.650   4.457  16.074  0.00  0.00    +0.000 N 
ATOM      5  N   UNL     1       4.445   3.848  15.858  0.00  0.00    +0.000 NA
ATOM      6  C   UNL     1       3.845   3.982  17.050  0.00  0.00    +0.000 A 
ATOM      7  N   UNL     1       4.527   4.768  17.939  0.00  0.00    +0.000 NA
ATOM      8  C   UNL     1       5.624   5.126  17.291  0.00  0.00    +0.000 A 
ENDROOT
BRANCH   8   9
ATOM      9  C   UNL     1       6.562   6.149  17.766  0.00  0.00    +0.000 A 
ATOM     10  C   UNL     1       6.607   7.387  17.115  0.00  0.00    +0.000 A 
ATOM     11  C   UNL     1       7.533   8.365  17.493  0.00  0.00    +0.000 A 
ATOM     12  C   UNL     1       8.428   8.114  18.529  0.00  0.00    +0.000 A 
ATOM     13  C   UNL     1       8.410   6.882  19.176  0.00  0.00    +0.000 A 
ATOM     14  C   UNL     1       7.495   5.902  18.785  0.00  0.00    +0.000 A 
ENDBRANCH   8   9
BRANCH   6  15
ATOM     15  C   UNL     1       2.474   3.479  17.349  0.00  0.00    +0.000 C 
BRANCH  15  16
ATOM     16  C   UNL     1       2.298   3.508  18.850  0.00  0.00    +0.000 A 
ATOM     17  C   UNL     1       2.716   2.430  19.645  0.00  0.00    +0.000 A 
ATOM     18  C   UNL     1       2.573   2.472  21.035  0.00  0.00    +0.000 A 
ATOM     19  C   UNL     1       2.010   3.591  21.646  0.00  0.00    +0.000 A 
ATOM     20  C   UNL     1       1.593   4.669  20.868  0.00  0.00    +0.000 A 
ATOM     21  C   UNL     1       1.735   4.629  19.479  0.00  0.00    +0.000 A 
ENDBRANCH  15  16
ENDBRANCH   6  15
TORSDOF 3
ENDMDL
MODEL 6
REMARK VINA RESULT:      -8.1      0.155      1.063
REMARK  Name = 
REMARK  4 active torsions:
REMARK  status: ('A' for Active; 'I' for Inactive)
REMARK    1  A    between atoms: C_1  and  C_2
REMARK    2  A    between atoms: C_6  and  C_7
REMARK    3  A    between atoms: C_7  and  C_8
REMARK    4  A    between atoms: C_15  and  C_16
REMARK                            x       y       z     vdW  Elec       q    Type
REMARK                         _______ _______ _______ _____ _____    ______ ____
ROOT
ATOM      1  C   UNL     1       2.704   2.401  17.791  0.00  0.00    +0.000 C 
ATOM      2  C   UNL     1       2.472   3.848  17.480  0.00  0.00    +0.000 C 
ATOM      3  O   UNL     1       1.364   4.378  17.450  0.00  0.00    +0.000 OA
ATOM      4  N   UNL     1       3.636   4.613  17.325  0.00  0.00    +0.000 N 
ATOM      5  N   UNL     1       4.811   4.032  16.936  0.00  0.00    +0.000 NA
ATOM      6  C   UNL     1       5.577   5.100  16.669  0.00  0.00    +0.000 A 
ATOM      7  N   UNL     1       5.015   6.298  17.015  0.00  0.00    +0.000 NA
ATOM      8  C   UNL     1       3.825   5.978  17.498  0.00  0.00    +0.000 A 
ENDROOT
BRANCH   8   9
ATOM      9  C   UNL     1       2.941   6.919  18.196  0.00  0.00    +0.000 A 
ATOM     10  C   UNL     1       2.523   8.079  17.535  0.00  0.00    +0.000 A 
ATOM     11  C   UNL     1       1.735   9.034  18.187  0.00  0.00    +0.000 A 
ATOM     12  C   UNL     1       1.356   8.837  19.512  0.00  0.00    +0.000 A 
ATOM     13  C   UNL     1       1.778   7.698  20.191  0.00  0.00    +0.000 A 
ATOM     14  C   UNL     1       2.578   6.754  19.542  0.00  0.00    +0.000 A 
ENDBRANCH   8   9
BRANCH   6  15
ATOM     15  C   UNL     1       6.990   5.010  16.201  0.00  0.00    +0.000 C 
BRANCH  15  16
ATOM     16  C   UNL     1       6.960   4.707  14.722  0.00  0.00    +0.000 A 
ATOM     17  C   UNL     1       6.123   3.702  14.209  0.00  0.00    +0.000 A 
ATOM     18  C   UNL     1       6.081   3.442  12.836  0.00  0.00    +0.000 A 
ATOM     19  C   UNL     1       6.874   4.181  11.960  0.00  0.00    +0.000 A 
ATOM     20  C   UNL     1       7.707   5.182  12.456  0.00  0.00    +0.000 A 
ATOM     21  C   UNL     1       7.751   5.444  13.827  0.00  0.00    +0.000 A 
ENDBRANCH  15  16
ENDBRANCH   6  15
TORSDOF 3
ENDMDL
MODEL 7
REMARK VINA RESULT:      -8.1      0.203      1.069
REMARK  Name = 
REMARK  4 active torsions:
REMARK  status: ('A' for Active; 'I' for Inactive)
REMARK    1  A    between atoms: C_1  and  C_2
REMARK    2  A    between atoms: C_6  and  C_7
REMARK    3  A    between atoms: C_7  and  C_8
REMARK    4  A    between atoms: C_15  and  C_16
REMARK                            x       y       z     vdW  Elec       q    Type
REMARK                         _______ _______ _______ _____ _____    ______ ____
ROOT
ATOM      1  C   UNL     1       2.271   2.399  17.950  0.00  0.00    +0.000 C 
ATOM      2  C   UNL     1       2.203   3.852  17.591  0.00  0.00    +0.000 C 
ATOM      3  O   UNL     1       1.161   4.498  17.527  0.00  0.00    +0.000 OA
ATOM      4  N   UNL     1       3.445   4.480  17.431  0.00  0.00    +0.000 N 
ATOM      5  N   UNL     1       4.555   3.762  17.078  0.00  0.00    +0.000 NA
ATOM      6  C   UNL     1       5.436   4.730  16.791  0.00  0.00    +0.000 A 
ATOM      7  N   UNL     1       5.004   5.993  17.091  0.00  0.00    +0.000 NA
ATOM      8  C   UNL     1       3.781   5.821  17.565  0.00  0.00    +0.000 A 
ENDROOT
BRANCH   8   9
ATOM      9  C   UNL     1       2.997   6.874  18.220  0.00  0.00    +0.000 A 
ATOM     10  C   UNL     1       2.624   6.713  19.560  0.00  0.00    +0.000 A 
ATOM     11  C   UNL     1       1.821   7.661  20.202  0.00  0.00    +0.000 A 
ATOM     12  C   UNL     1       1.379   8.784  19.508  0.00  0.00    +0.000 A 
ATOM     13  C   UNL     1       1.724   8.951  18.171  0.00  0.00    +0.000 A 
ATOM     14  C   UNL     1       2.513   7.995  17.528  0.00  0.00    +0.000 A 
ENDBRANCH   8   9
BRANCH   6  15
ATOM     15  C   UNL     1       6.836   4.473  16.348  0.00  0.00    +0.000 C 
BRANCH  15  16
ATOM     16  C   UNL     1       6.835   4.435  14.837  0.00  0.00    +0.000 A 
ATOM     17  C   UNL     1       7.728   5.225  14.096  0.00  0.00    +0.000 A 
ATOM     18  C   UNL     1       7.739   5.167  12.699  0.00  0.00    +0.000 A 
ATOM     19  C   UNL     1       6.860   4.321  12.028  0.00  0.00    +0.000 A 
ATOM     20  C   UNL     1       5.971   3.530  12.751  0.00  0.00    +0.000 A 
ATOM     21  C   UNL     1       5.957   3.585  14.147  0.00  0.00    +0.000 A 
ENDBRANCH  15  16
ENDBRANCH   6  15
TORSDOF 3
ENDMDL
MODEL 8
REMARK VINA RESULT:      -8.0      0.142      1.493
REMARK  Name = 
REMARK  4 active torsions:
REMARK  status: ('A' for Active; 'I' for Inactive)
REMARK    1  A    between atoms: C_1  and  C_2
REMARK    2  A    between atoms: C_6  and  C_7
REMARK    3  A    between atoms: C_7  and  C_8
REMARK    4  A    between atoms: C_15  and  C_16
REMARK                            x       y       z     vdW  Elec       q    Type
REMARK                         _______ _______ _______ _____ _____    ______ ____
ROOT
ATOM      1  C   UNL     1       2.430   2.395  17.951  0.00  0.00    +0.000 C 
ATOM      2  C   UNL     1       2.315   3.844  17.588  0.00  0.00    +0.000 C 
ATOM      3  O   UNL     1       1.253   4.458  17.532  0.00  0.00    +0.000 OA
ATOM      4  N   UNL     1       3.537   4.508  17.414  0.00  0.00    +0.000 N 
ATOM      5  N   UNL     1       4.664   3.823  17.054  0.00  0.00    +0.000 NA
ATOM      6  C   UNL     1       5.513   4.816  16.755  0.00  0.00    +0.000 A 
ATOM      7  N   UNL     1       5.046   6.067  17.055  0.00  0.00    +0.000 NA
ATOM      8  C   UNL     1       3.833   5.859  17.541  0.00  0.00    +0.000 A 
ENDROOT
BRANCH   8   9
ATOM      9  C   UNL     1       3.023   6.891  18.200  0.00  0.00    +0.000 A 
ATOM     10  C   UNL     1       2.665   6.722  19.542  0.00  0.00    +0.000 A 
ATOM     11  C   UNL     1       1.839   7.647  20.188  0.00  0.00    +0.000 A 
ATOM     12  C   UNL     1       1.360   8.756  19.496  0.00  0.00    +0.000 A 
ATOM     13  C   UNL     1       1.691   8.931  18.156  0.00  0.00    +0.000 A 
ATOM     14  C   UNL     1       2.503   7.996  17.509  0.00  0.00    +0.000 A 
ENDBRANCH   8   9
BRANCH   6  15
ATOM     15  C   UNL     1       6.916   4.599  16.300  0.00  0.00    +0.000 C 
BRANCH  15  16
ATOM     16  C   UNL     1       6.892   4.480  14.794  0.00  0.00    +0.000 A 
ATOM     17  C   UNL     1       6.003   3.600  14.155  0.00  0.00    +0.000 A 
ATOM     18  C   UNL     1       5.968   3.512  12.761  0.00  0.00    +0.000 A 
ATOM     19  C   UNL     1       6.819   4.300  11.988  0.00  0.00    +0.000 A 
ATOM     20  C   UNL     1       7.704   5.179  12.610  0.00  0.00    +0.000 A 
ATOM     21  C   UNL     1       7.741   5.269  14.003  0.00  0.00    +0.000 A 
ENDBRANCH  15  16
ENDBRANCH   6  15
TORSDOF 3
ENDMDL
MODEL 9
REMARK VINA RESULT:      -7.9      2.747      6.242
REMARK  Name = 
REMARK  4 active torsions:
REMARK  status: ('A' for Active; 'I' for Inactive)
REMARK    1  A    between atoms: C_1  and  C_2
REMARK    2  A    between atoms: C_6  and  C_7
REMARK    3  A    between atoms: C_7  and  C_8
REMARK    4  A    between atoms: C_15  and  C_16
REMARK                            x       y       z     vdW  Elec       q    Type
REMARK                         _______ _______ _______ _____ _____    ______ ____
ROOT
ATOM      1  C   UNL     1       5.915   4.048  13.549  0.00  0.00    +0.000 C 
ATOM      2  C   UNL     1       6.461   4.266  14.927  0.00  0.00    +0.000 C 
ATOM      3  O   UNL     1       7.649   4.455  15.176  0.00  0.00    +0.000 OA
ATOM      4  N   UNL     1       5.495   4.351  15.939  0.00  0.00    +0.000 N 
ATOM      5  N   UNL     1       4.275   3.750  15.797  0.00  0.00    +0.000 NA
ATOM      6  C   UNL     1       3.769   3.847  17.035  0.00  0.00    +0.000 A 
ATOM      7  N   UNL     1       4.519   4.604  17.893  0.00  0.00    +0.000 NA
ATOM      8  C   UNL     1       5.564   4.982  17.174  0.00  0.00    +0.000 A 
ENDROOT
BRANCH   8   9
ATOM      9  C   UNL     1       6.539   5.989  17.607  0.00  0.00    +0.000 A 
ATOM     10  C   UNL     1       7.432   5.675  18.638  0.00  0.00    +0.000 A 
ATOM     11  C   UNL     1       8.332   6.628  19.126  0.00  0.00    +0.000 A 
ATOM     12  C   UNL     1       8.349   7.911  18.586  0.00  0.00    +0.000 A 
ATOM     13  C   UNL     1       7.456   8.247  17.573  0.00  0.00    +0.000 A 
ATOM     14  C   UNL     1       6.547   7.297  17.099  0.00  0.00    +0.000 A 
ENDBRANCH   8   9
BRANCH   6  15
ATOM     15  C   UNL     1       2.424   3.335  17.424  0.00  0.00    +0.000 C 
BRANCH  15  16
ATOM     16  C   UNL     1       2.311   3.450  18.926  0.00  0.00    +0.000 A 
ATOM     17  C   UNL     1       2.737   2.406  19.762  0.00  0.00    +0.000 A 
ATOM     18  C   UNL     1       2.653   2.527  21.152  0.00  0.00    +0.000 A 
ATOM     19  C   UNL     1       2.142   3.691  21.723  0.00  0.00    +0.000 A 
ATOM     20  C   UNL     1       1.718   4.735  20.904  0.00  0.00    +0.000 A 
ATOM     21  C   UNL     1       1.801   4.617  19.515  0.00  0.00    +0.000 A 
ENDBRANCH  15  16
ENDBRANCH   6  15
TORSDOF 3
ENDMDL
