MODEL 1
REMARK VINA RESULT:      -8.3      0.000      0.000
REMARK  Name = 
REMARK  4 active torsions:
REMARK  status: ('A' for Active; 'I' for Inactive)
REMARK    1  A    between atoms: C_6  and  C_7
REMARK    2  A    between atoms: C_13  and  S_14
REMARK    3  A    between atoms: S_14  and  N_17
REMARK    4  A    between atoms: N_17  and  C_18
REMARK                            x       y       z     vdW  Elec       q    Type
REMARK                         _______ _______ _______ _____ _____    ______ ____
ROOT
ATOM      1  C   UNL     1       2.892   5.457  18.458  0.00  0.00    +0.000 A 
ATOM      2  C   UNL     1       1.825   4.618  18.861  0.00  0.00    +0.000 A 
ATOM      3  C   UNL     1       1.682   3.323  18.357  0.00  0.00    +0.000 A 
ATOM      4 CL   UNL     1       0.366   2.346  18.877  0.00  0.00    +0.000 Cl
ATOM      5  C   UNL     1       2.604   2.818  17.451  0.00  0.00    +0.000 A 
ATOM      6  C   UNL     1       3.670   3.618  17.037  0.00  0.00    +0.000 A 
ATOM      7  C   UNL     1       3.815   4.933  17.521  0.00  0.00    +0.000 A 
ENDROOT
BRANCH   1  13
ATOM      8  O   UNL     1       1.157   8.433  21.568  0.00  0.00    +0.000 OA
ATOM      9  C   UNL     1       1.639   8.028  20.526  0.00  0.00    +0.000 C 
ATOM     10  N   UNL     1       1.548   8.631  19.316  0.00  0.00    +0.000 N 
ATOM     11  C   UNL     1       2.325   7.991  18.402  0.00  0.00    +0.000 C 
ATOM     12  O   UNL     1       2.459   8.332  17.236  0.00  0.00    +0.000 OA
ATOM     13  C   UNL     1       3.033   6.822  19.096  0.00  0.00    +0.000 C 
ATOM     14  N   UNL     1       2.392   6.885  20.388  0.00  0.00    +0.000 N 
ATOM     15  H   UNL     1       1.044   9.485  19.150  0.00  0.00    +0.000 HD
ATOM     16  H   UNL     1       2.727   6.402  21.212  0.00  0.00    +0.000 HD
ENDBRANCH   1  13
BRANCH   7  17
ATOM     17  S   UNL     1       5.306   5.800  17.022  0.00  0.00    +0.000 S 
ATOM     18  O   UNL     1       4.974   6.818  16.050  0.00  0.00    +0.000 OA
ATOM     19  O   UNL     1       6.010   6.168  18.232  0.00  0.00    +0.000 OA
BRANCH  17  20
ATOM     20  N   UNL     1       6.276   4.637  16.284  0.00  0.00    +0.000 N 
ATOM     21  H   UNL     1       7.122   4.515  16.843  0.00  0.00    +0.000 HD
BRANCH  20  22
ATOM     22  C   UNL     1       6.499   4.622  14.884  0.00  0.00    +0.000 A 
ATOM     23  C   UNL     1       7.559   5.331  14.308  0.00  0.00    +0.000 A 
ATOM     24  C   UNL     1       7.862   5.148  12.955  0.00  0.00    +0.000 A 
ATOM     25  C   UNL     1       7.104   4.267  12.191  0.00  0.00    +0.000 A 
ATOM     26  F   UNL     1       7.426   4.058  10.907  0.00  0.00    +0.000 F 
ATOM     27  C   UNL     1       6.036   3.575  12.750  0.00  0.00    +0.000 A 
ATOM     28  C   UNL     1       5.731   3.755  14.101  0.00  0.00    +0.000 A 
ENDBRANCH  20  22
ENDBRANCH  17  20
ENDBRANCH   7  17
TORSDOF 4
ENDMDL
MODEL 2
REMARK VINA RESULT:      -8.3      3.764      4.887
REMARK  Name = 
REMARK  4 active torsions:
REMARK  status: ('A' for Active; 'I' for Inactive)
REMARK    1  A    between atoms: C_6  and  C_7
REMARK    2  A    between atoms: C_13  and  S_14
REMARK    3  A    between atoms: S_14  and  N_17
REMARK    4  A    between atoms: N_17  and  C_18
REMARK                            x       y       z     vdW  Elec       q    Type
REMARK                         _______ _______ _______ _____ _____    ______ ____
ROOT
ATOM      1  C   UNL     1       2.906   4.959  18.966  0.00  0.00    +0.000 A 
ATOM      2  C   UNL     1       2.241   6.015  19.635  0.00  0.00    +0.000 A 
ATOM      3  C   UNL     1       2.335   7.336  19.193  0.00  0.00    +0.000 A 
ATOM      4 CL   UNL     1       1.511   8.582  20.045  0.00  0.00    +0.000 Cl
ATOM      5  C   UNL     1       3.078   7.646  18.062  0.00  0.00    +0.000 A 
ATOM      6  C   UNL     1       3.741   6.627  17.375  0.00  0.00    +0.000 A 
ATOM      7  C   UNL     1       3.671   5.292  17.822  0.00  0.00    +0.000 A 
ENDROOT
BRANCH   1  13
ATOM      8  O   UNL     1       1.192   2.268  22.335  0.00  0.00    +0.000 OA
ATOM      9  C   UNL     1       1.965   2.679  21.489  0.00  0.00    +0.000 C 
ATOM     10  N   UNL     1       3.299   2.448  21.447  0.00  0.00    +0.000 N 
ATOM     11  C   UNL     1       3.832   2.926  20.290  0.00  0.00    +0.000 C 
ATOM     12  O   UNL     1       5.007   2.833  19.970  0.00  0.00    +0.000 OA
ATOM     13  C   UNL     1       2.705   3.540  19.452  0.00  0.00    +0.000 C 
ATOM     14  N   UNL     1       1.619   3.440  20.397  0.00  0.00    +0.000 N 
ATOM     15  H   UNL     1       3.800   1.917  22.138  0.00  0.00    +0.000 HD
ATOM     16  H   UNL     1       0.643   3.556  20.155  0.00  0.00    +0.000 HD
ENDBRANCH   1  13
BRANCH   7  17
ATOM     17  S   UNL     1       4.448   4.063  16.768  0.00  0.00    +0.000 S 
ATOM     18  O   UNL     1       3.750   2.803  16.894  0.00  0.00    +0.000 OA
ATOM     19  O   UNL     1       4.611   4.665  15.461  0.00  0.00    +0.000 OA
BRANCH  17  20
ATOM     20  N   UNL     1       6.011   3.882  17.368  0.00  0.00    +0.000 N 
ATOM     21  H   UNL     1       6.000   3.164  18.095  0.00  0.00    +0.000 HD
BRANCH  20  22
ATOM     22  C   UNL     1       6.838   4.995  17.665  0.00  0.00    +0.000 A 
ATOM     23  C   UNL     1       7.007   6.041  16.750  0.00  0.00    +0.000 A 
ATOM     24  C   UNL     1       7.675   7.205  17.143  0.00  0.00    +0.000 A 
ATOM     25  C   UNL     1       8.170   7.312  18.438  0.00  0.00    +0.000 A 
ATOM     26  F   UNL     1       8.768   8.447  18.826  0.00  0.00    +0.000 F 
ATOM     27  C   UNL     1       8.026   6.270  19.346  0.00  0.00    +0.000 A 
ATOM     28  C   UNL     1       7.358   5.106  18.957  0.00  0.00    +0.000 A 
ENDBRANCH  20  22
ENDBRANCH  17  20
ENDBRANCH   7  17
TORSDOF 4
ENDMDL
MODEL 3
REMARK VINA RESULT:      -8.2      4.221      6.769
REMARK  Name = 
REMARK  4 active torsions:
REMARK  status: ('A' for Active; 'I' for Inactive)
REMARK    1  A    between atoms: C_6  and  C_7
REMARK    2  A    between atoms: C_13  and  S_14
REMARK    3  A    between atoms: S_14  and  N_17
REMARK    4  A    between atoms: N_17  and  C_18
REMARK                            x       y       z     vdW  Elec       q    Type
REMARK                         _______ _______ _______ _____ _____    ______ ____
ROOT
ATOM      1  C   UNL     1       6.422   5.348  16.433  0.00  0.00    +0.000 A 
ATOM      2  C   UNL     1       7.159   5.634  15.259  0.00  0.00    +0.000 A 
ATOM      3  C   UNL     1       7.040   4.848  14.110  0.00  0.00    +0.000 A 
ATOM      4 CL   UNL     1       7.961   5.236  12.711  0.00  0.00    +0.000 Cl
ATOM      5  C   UNL     1       6.171   3.765  14.088  0.00  0.00    +0.000 A 
ATOM      6  C   UNL     1       5.426   3.460  15.229  0.00  0.00    +0.000 A 
ATOM      7  C   UNL     1       5.552   4.232  16.401  0.00  0.00    +0.000 A 
ENDROOT
BRANCH   1  13
ATOM      8  O   UNL     1       8.064   9.408  17.968  0.00  0.00    +0.000 OA
ATOM      9  C   UNL     1       7.788   8.222  17.958  0.00  0.00    +0.000 C 
ATOM     10  N   UNL     1       8.392   7.256  18.690  0.00  0.00    +0.000 N 
ATOM     11  C   UNL     1       7.740   6.070  18.551  0.00  0.00    +0.000 C 
ATOM     12  O   UNL     1       8.045   5.032  19.118  0.00  0.00    +0.000 OA
ATOM     13  C   UNL     1       6.541   6.280  17.619  0.00  0.00    +0.000 C 
ATOM     14  N   UNL     1       6.787   7.643  17.214  0.00  0.00    +0.000 N 
ATOM     15  H   UNL     1       9.162   7.422  19.315  0.00  0.00    +0.000 HD
ATOM     16  H   UNL     1       6.104   8.230  16.749  0.00  0.00    +0.000 HD
ENDBRANCH   1  13
BRANCH   7  17
ATOM     17  S   UNL     1       4.432   3.821  17.743  0.00  0.00    +0.000 S 
ATOM     18  O   UNL     1       3.958   2.464  17.582  0.00  0.00    +0.000 OA
ATOM     19  O   UNL     1       5.083   4.211  18.975  0.00  0.00    +0.000 OA
BRANCH  17  20
ATOM     20  N   UNL     1       3.130   4.876  17.579  0.00  0.00    +0.000 N 
ATOM     21  H   UNL     1       3.196   5.337  16.670  0.00  0.00    +0.000 HD
BRANCH  20  22
ATOM     22  C   UNL     1       2.716   5.731  18.633  0.00  0.00    +0.000 A 
ATOM     23  C   UNL     1       2.729   7.122  18.490  0.00  0.00    +0.000 A 
ATOM     24  C   UNL     1       2.145   7.926  19.473  0.00  0.00    +0.000 A 
ATOM     25  C   UNL     1       1.559   7.337  20.589  0.00  0.00    +0.000 A 
ATOM     26  F   UNL     1       0.959   8.107  21.506  0.00  0.00    +0.000 F 
ATOM     27  C   UNL     1       1.561   5.956  20.750  0.00  0.00    +0.000 A 
ATOM     28  C   UNL     1       2.144   5.150  19.769  0.00  0.00    +0.000 A 
ENDBRANCH  20  22
ENDBRANCH  17  20
ENDBRANCH   7  17
TORSDOF 4
ENDMDL
MODEL 4
REMARK VINA RESULT:      -7.9      4.331      6.951
REMARK  Name = 
REMARK  4 active torsions:
REMARK  status: ('A' for Active; 'I' for Inactive)
REMARK    1  A    between atoms: C_6  and  C_7
REMARK    2  A    between atoms: C_13  and  S_14
REMARK    3  A    between atoms: S_14  and  N_17
REMARK    4  A    between atoms: N_17  and  C_18
REMARK                            x       y       z     vdW  Elec       q    Type
REMARK                         _______ _______ _______ _____ _____    ______ ____
ROOT
ATOM      1  C   UNL     1       6.158   5.566  16.326  0.00  0.00    +0.000 A 
ATOM      2  C   UNL     1       7.124   5.606  15.292  0.00  0.00    +0.000 A 
ATOM      3  C   UNL     1       6.967   4.874  14.113  0.00  0.00    +0.000 A 
ATOM      4 CL   UNL     1       8.173   4.956  12.891  0.00  0.00    +0.000 Cl
ATOM      5  C   UNL     1       5.836   4.093  13.919  0.00  0.00    +0.000 A 
ATOM      6  C   UNL     1       4.861   4.035  14.917  0.00  0.00    +0.000 A 
ATOM      7  C   UNL     1       5.017   4.753  16.119  0.00  0.00    +0.000 A 
ENDROOT
BRANCH   1  13
ATOM      8  O   UNL     1       8.590   9.042  18.206  0.00  0.00    +0.000 OA
ATOM      9  C   UNL     1       8.010   7.974  18.119  0.00  0.00    +0.000 C 
ATOM     10  N   UNL     1       8.223   6.885  18.896  0.00  0.00    +0.000 N 
ATOM     11  C   UNL     1       7.304   5.919  18.629  0.00  0.00    +0.000 C 
ATOM     12  O   UNL     1       7.236   4.841  19.199  0.00  0.00    +0.000 OA
ATOM     13  C   UNL     1       6.351   6.439  17.547  0.00  0.00    +0.000 C 
ATOM     14  N   UNL     1       7.008   7.682  17.224  0.00  0.00    +0.000 N 
ATOM     15  H   UNL     1       8.911   6.842  19.628  0.00  0.00    +0.000 HD
ATOM     16  H   UNL     1       6.581   8.428  16.688  0.00  0.00    +0.000 HD
ENDBRANCH   1  13
BRANCH   7  17
ATOM     17  S   UNL     1       3.626   4.707  17.254  0.00  0.00    +0.000 S 
ATOM     18  O   UNL     1       3.234   6.056  17.598  0.00  0.00    +0.000 OA
ATOM     19  O   UNL     1       2.649   3.798  16.693  0.00  0.00    +0.000 OA
BRANCH  17  20
ATOM     20  N   UNL     1       4.200   3.937  18.637  0.00  0.00    +0.000 N 
ATOM     21  H   UNL     1       4.810   3.167  18.353  0.00  0.00    +0.000 HD
BRANCH  20  22
ATOM     22  C   UNL     1       3.356   3.632  19.735  0.00  0.00    +0.000 A 
ATOM     23  C   UNL     1       2.094   4.222  19.868  0.00  0.00    +0.000 A 
ATOM     24  C   UNL     1       1.215   3.764  20.855  0.00  0.00    +0.000 A 
ATOM     25  C   UNL     1       1.604   2.730  21.700  0.00  0.00    +0.000 A 
ATOM     26  F   UNL     1       0.743   2.262  22.614  0.00  0.00    +0.000 F 
ATOM     27  C   UNL     1       2.864   2.154  21.589  0.00  0.00    +0.000 A 
ATOM     28  C   UNL     1       3.744   2.608  20.603  0.00  0.00    +0.000 A 
ENDBRANCH  20  22
ENDBRANCH  17  20
ENDBRANCH   7  17
TORSDOF 4
ENDMDL
MODEL 5
REMARK VINA RESULT:      -7.9      4.044      6.573
REMARK  Name = 
REMARK  4 active torsions:
REMARK  status: ('A' for Active; 'I' for Inactive)
REMARK    1  A    between atoms: C_6  and  C_7
REMARK    2  A    between atoms: C_13  and  S_14
REMARK    3  A    between atoms: S_14  and  N_17
REMARK    4  A    between atoms: N_17  and  C_18
REMARK                            x       y       z     vdW  Elec       q    Type
REMARK                         _______ _______ _______ _____ _____    ______ ____
ROOT
ATOM      1  C   UNL     1       6.373   5.560  16.734  0.00  0.00    +0.000 A 
ATOM      2  C   UNL     1       7.079   5.711  15.516  0.00  0.00    +0.000 A 
ATOM      3  C   UNL     1       6.847   4.869  14.426  0.00  0.00    +0.000 A 
ATOM      4 CL   UNL     1       7.735   5.092  12.971  0.00  0.00    +0.000 Cl
ATOM      5  C   UNL     1       5.894   3.863  14.508  0.00  0.00    +0.000 A 
ATOM      6  C   UNL     1       5.176   3.691  15.693  0.00  0.00    +0.000 A 
ATOM      7  C   UNL     1       5.415   4.521  16.807  0.00  0.00    +0.000 A 
ENDROOT
BRANCH   1  13
ATOM      8  O   UNL     1       8.555   9.458  17.992  0.00  0.00    +0.000 OA
ATOM      9  C   UNL     1       8.119   8.323  18.064  0.00  0.00    +0.000 C 
ATOM     10  N   UNL     1       8.586   7.338  18.869  0.00  0.00    +0.000 N 
ATOM     11  C   UNL     1       7.777   6.246  18.809  0.00  0.00    +0.000 C 
ATOM     12  O   UNL     1       7.937   5.220  19.450  0.00  0.00    +0.000 OA
ATOM     13  C   UNL     1       6.619   6.550  17.852  0.00  0.00    +0.000 C 
ATOM     14  N   UNL     1       7.049   7.835  17.353  0.00  0.00    +0.000 N 
ATOM     15  H   UNL     1       9.370   7.442  19.489  0.00  0.00    +0.000 HD
ATOM     16  H   UNL     1       6.453   8.474  16.841  0.00  0.00    +0.000 HD
ENDBRANCH   1  13
BRANCH   7  17
ATOM     17  S   UNL     1       4.325   4.288  18.215  0.00  0.00    +0.000 S 
ATOM     18  O   UNL     1       2.981   4.021  17.750  0.00  0.00    +0.000 OA
ATOM     19  O   UNL     1       4.974   3.350  19.106  0.00  0.00    +0.000 OA
BRANCH  17  20
ATOM     20  N   UNL     1       4.335   5.757  19.038  0.00  0.00    +0.000 N 
ATOM     21  H   UNL     1       4.640   5.591  19.999  0.00  0.00    +0.000 HD
BRANCH  20  22
ATOM     22  C   UNL     1       3.276   6.693  18.920  0.00  0.00    +0.000 A 
ATOM     23  C   UNL     1       2.393   6.930  19.979  0.00  0.00    +0.000 A 
ATOM     24  C   UNL     1       1.480   7.985  19.898  0.00  0.00    +0.000 A 
ATOM     25  C   UNL     1       1.452   8.789  18.762  0.00  0.00    +0.000 A 
ATOM     26  F   UNL     1       0.608   9.828  18.707  0.00  0.00    +0.000 F 
ATOM     27  C   UNL     1       2.311   8.547  17.697  0.00  0.00    +0.000 A 
ATOM     28  C   UNL     1       3.225   7.493  17.776  0.00  0.00    +0.000 A 
ENDBRANCH  20  22
ENDBRANCH  17  20
ENDBRANCH   7  17
TORSDOF 4
ENDMDL
MODEL 6
REMARK VINA RESULT:      -7.8      2.682      3.609
REMARK  Name = 
REMARK  4 active torsions:
REMARK  status: ('A' for Active; 'I' for Inactive)
REMARK    1  A    between atoms: C_6  and  C_7
REMARK    2  A    between atoms: C_13  and  S_14
REMARK    3  A    between atoms: S_14  and  N_17
REMARK    4  A    between atoms: N_17  and  C_18
REMARK                            x       y       z     vdW  Elec       q    Type
REMARK                         _______ _______ _______ _____ _____    ______ ____
ROOT
ATOM      1  C   UNL     1       3.293   5.441  18.573  0.00  0.00    +0.000 A 
ATOM      2  C   UNL     1       2.315   6.455  18.433  0.00  0.00    +0.000 A 
ATOM      3  C   UNL     1       2.615   7.686  17.844  0.00  0.00    +0.000 A 
ATOM      4 CL   UNL     1       1.391   8.885  17.702  0.00  0.00    +0.000 Cl
ATOM      5  C   UNL     1       3.891   7.939  17.361  0.00  0.00    +0.000 A 
ATOM      6  C   UNL     1       4.878   6.958  17.478  0.00  0.00    +0.000 A 
ATOM      7  C   UNL     1       4.595   5.720  18.089  0.00  0.00    +0.000 A 
ENDROOT
BRANCH   1  13
ATOM      8  O   UNL     1       0.193   1.991  18.445  0.00  0.00    +0.000 OA
ATOM      9  C   UNL     1       0.956   2.820  18.908  0.00  0.00    +0.000 C 
ATOM     10  N   UNL     1       0.899   3.348  20.154  0.00  0.00    +0.000 N 
ATOM     11  C   UNL     1       1.987   4.129  20.393  0.00  0.00    +0.000 C 
ATOM     12  O   UNL     1       2.215   4.709  21.444  0.00  0.00    +0.000 OA
ATOM     13  C   UNL     1       2.887   4.104  19.152  0.00  0.00    +0.000 C 
ATOM     14  N   UNL     1       2.038   3.360  18.254  0.00  0.00    +0.000 N 
ATOM     15  H   UNL     1       0.194   3.118  20.832  0.00  0.00    +0.000 HD
ATOM     16  H   UNL     1       2.353   2.950  17.383  0.00  0.00    +0.000 HD
ENDBRANCH   1  13
BRANCH   7  17
ATOM     17  S   UNL     1       5.909   4.497  18.044  0.00  0.00    +0.000 S 
ATOM     18  O   UNL     1       7.185   5.161  17.900  0.00  0.00    +0.000 OA
ATOM     19  O   UNL     1       5.690   3.597  19.157  0.00  0.00    +0.000 OA
BRANCH  17  20
ATOM     20  N   UNL     1       5.616   3.574  16.666  0.00  0.00    +0.000 N 
ATOM     21  H   UNL     1       5.845   2.600  16.871  0.00  0.00    +0.000 HD
BRANCH  20  22
ATOM     22  C   UNL     1       6.015   4.003  15.374  0.00  0.00    +0.000 A 
ATOM     23  C   UNL     1       7.098   4.871  15.197  0.00  0.00    +0.000 A 
ATOM     24  C   UNL     1       7.579   5.127  13.910  0.00  0.00    +0.000 A 
ATOM     25  C   UNL     1       6.974   4.521  12.814  0.00  0.00    +0.000 A 
ATOM     26  F   UNL     1       7.466   4.731  11.586  0.00  0.00    +0.000 F 
ATOM     27  C   UNL     1       5.883   3.675  12.979  0.00  0.00    +0.000 A 
ATOM     28  C   UNL     1       5.401   3.417  14.264  0.00  0.00    +0.000 A 
ENDBRANCH  20  22
ENDBRANCH  17  20
ENDBRANCH   7  17
TORSDOF 4
ENDMDL
MODEL 7
REMARK VINA RESULT:      -7.7      0.754      1.324
REMARK  Name = 
REMARK  4 active torsions:
REMARK  status: ('A' for Active; 'I' for Inactive)
REMARK    1  A    between atoms: C_6  and  C_7
REMARK    2  A    between atoms: C_13  and  S_14
REMARK    3  A    between atoms: S_14  and  N_17
REMARK    4  A    between atoms: N_17  and  C_18
REMARK                            x       y       z     vdW  Elec       q    Type
REMARK                         _______ _______ _______ _____ _____    ______ ____
ROOT
ATOM      1  C   UNL     1       3.175   5.117  18.506  0.00  0.00    +0.000 A 
ATOM      2  C   UNL     1       2.018   4.371  18.833  0.00  0.00    +0.000 A 
ATOM      3  C   UNL     1       1.872   3.038  18.442  0.00  0.00    +0.000 A 
ATOM      4 CL   UNL     1       0.443   2.177  18.862  0.00  0.00    +0.000 Cl
ATOM      5  C   UNL     1       2.879   2.401  17.731  0.00  0.00    +0.000 A 
ATOM      6  C   UNL     1       4.036   3.107  17.397  0.00  0.00    +0.000 A 
ATOM      7  C   UNL     1       4.188   4.459  17.767  0.00  0.00    +0.000 A 
ENDROOT
BRANCH   1  13
ATOM      8  O   UNL     1       1.138   8.522  20.912  0.00  0.00    +0.000 OA
ATOM      9  C   UNL     1       1.771   7.974  20.027  0.00  0.00    +0.000 C 
ATOM     10  N   UNL     1       1.955   8.442  18.770  0.00  0.00    +0.000 N 
ATOM     11  C   UNL     1       2.835   7.658  18.090  0.00  0.00    +0.000 C 
ATOM     12  O   UNL     1       3.210   7.857  16.946  0.00  0.00    +0.000 OA
ATOM     13  C   UNL     1       3.305   6.534  19.021  0.00  0.00    +0.000 C 
ATOM     14  N   UNL     1       2.442   6.780  20.151  0.00  0.00    +0.000 N 
ATOM     15  H   UNL     1       1.561   9.300  18.426  0.00  0.00    +0.000 HD
ATOM     16  H   UNL     1       2.578   6.374  21.069  0.00  0.00    +0.000 HD
ENDBRANCH   1  13
BRANCH   7  17
ATOM     17  S   UNL     1       5.781   5.204  17.403  0.00  0.00    +0.000 S 
ATOM     18  O   UNL     1       6.014   6.314  18.301  0.00  0.00    +0.000 OA
ATOM     19  O   UNL     1       6.746   4.129  17.326  0.00  0.00    +0.000 OA
BRANCH  17  20
ATOM     20  N   UNL     1       5.651   5.795  15.831  0.00  0.00    +0.000 N 
ATOM     21  H   UNL     1       4.715   6.185  15.705  0.00  0.00    +0.000 HD
BRANCH  20  22
ATOM     22  C   UNL     1       6.131   5.067  14.712  0.00  0.00    +0.000 A 
ATOM     23  C   UNL     1       5.349   4.087  14.091  0.00  0.00    +0.000 A 
ATOM     24  C   UNL     1       5.774   3.522  12.886  0.00  0.00    +0.000 A 
ATOM     25  C   UNL     1       6.974   3.934  12.315  0.00  0.00    +0.000 A 
ATOM     26  F   UNL     1       7.357   3.424  11.136  0.00  0.00    +0.000 F 
ATOM     27  C   UNL     1       7.768   4.890  12.937  0.00  0.00    +0.000 A 
ATOM     28  C   UNL     1       7.345   5.458  14.142  0.00  0.00    +0.000 A 
ENDBRANCH  20  22
ENDBRANCH  17  20
ENDBRANCH   7  17
TORSDOF 4
ENDMDL
MODEL 8
REMARK VINA RESULT:      -7.6      1.130      1.407
REMARK  Name = 
REMARK  4 active torsions:
REMARK  status: ('A' for Active; 'I' for Inactive)
REMARK    1  A    between atoms: C_6  and  C_7
REMARK    2  A    between atoms: C_13  and  S_14
REMARK    3  A    between atoms: S_14  and  N_17
REMARK    4  A    between atoms: N_17  and  C_18
REMARK                            x       y       z     vdW  Elec       q    Type
REMARK                         _______ _______ _______ _____ _____    ______ ____
ROOT
ATOM      1  C   UNL     1       3.175   4.978  18.969  0.00  0.00    +0.000 A 
ATOM      2  C   UNL     1       1.947   4.282  19.076  0.00  0.00    +0.000 A 
ATOM      3  C   UNL     1       1.837   2.933  18.731  0.00  0.00    +0.000 A 
ATOM      4 CL   UNL     1       0.320   2.136  18.875  0.00  0.00    +0.000 Cl
ATOM      5  C   UNL     1       2.948   2.231  18.286  0.00  0.00    +0.000 A 
ATOM      6  C   UNL     1       4.176   2.886  18.174  0.00  0.00    +0.000 A 
ATOM      7  C   UNL     1       4.296   4.252  18.499  0.00  0.00    +0.000 A 
ENDROOT
BRANCH   1  13
ATOM      8  O   UNL     1       0.889   8.470  20.997  0.00  0.00    +0.000 OA
ATOM      9  C   UNL     1       1.611   7.888  20.207  0.00  0.00    +0.000 C 
ATOM     10  N   UNL     1       1.918   8.300  18.954  0.00  0.00    +0.000 N 
ATOM     11  C   UNL     1       2.865   7.494  18.403  0.00  0.00    +0.000 C 
ATOM     12  O   UNL     1       3.353   7.643  17.294  0.00  0.00    +0.000 OA
ATOM     13  C   UNL     1       3.245   6.418  19.427  0.00  0.00    +0.000 C 
ATOM     14  N   UNL     1       2.271   6.708  20.453  0.00  0.00    +0.000 N 
ATOM     15  H   UNL     1       1.557   9.138  18.532  0.00  0.00    +0.000 HD
ATOM     16  H   UNL     1       2.316   6.345  21.398  0.00  0.00    +0.000 HD
ENDBRANCH   1  13
BRANCH   7  17
ATOM     17  S   UNL     1       5.957   4.934  18.450  0.00  0.00    +0.000 S 
ATOM     18  O   UNL     1       6.191   5.729  19.635  0.00  0.00    +0.000 OA
ATOM     19  O   UNL     1       6.855   3.845  18.129  0.00  0.00    +0.000 OA
BRANCH  17  20
ATOM     20  N   UNL     1       5.988   5.943  17.102  0.00  0.00    +0.000 N 
ATOM     21  H   UNL     1       5.246   6.640  17.200  0.00  0.00    +0.000 HD
BRANCH  20  22
ATOM     22  C   UNL     1       6.138   5.437  15.786  0.00  0.00    +0.000 A 
ATOM     23  C   UNL     1       7.364   5.504  15.116  0.00  0.00    +0.000 A 
ATOM     24  C   UNL     1       7.528   4.835  13.900  0.00  0.00    +0.000 A 
ATOM     25  C   UNL     1       6.468   4.111  13.362  0.00  0.00    +0.000 A 
ATOM     26  F   UNL     1       6.642   3.432  12.220  0.00  0.00    +0.000 F 
ATOM     27  C   UNL     1       5.240   4.057  14.010  0.00  0.00    +0.000 A 
ATOM     28  C   UNL     1       5.074   4.725  15.226  0.00  0.00    +0.000 A 
ENDBRANCH  20  22
ENDBRANCH  17  20
ENDBRANCH   7  17
TORSDOF 4
ENDMDL
MODEL 9
REMARK VINA RESULT:      -7.5      4.224      7.029
REMARK  Name = 
REMARK  4 active torsions:
REMARK  status: ('A' for Active; 'I' for Inactive)
REMARK    1  A    between atoms: C_6  and  C_7
REMARK    2  A    between atoms: C_13  and  S_14
REMARK    3  A    between atoms: S_14  and  N_17
REMARK    4  A    between atoms: N_17  and  C_18
REMARK                            x       y       z     vdW  Elec       q    Type
REMARK                         _______ _______ _______ _____ _____    ______ ____
ROOT
ATOM      1  C   UNL     1       6.316   5.715  16.509  0.00  0.00    +0.000 A 
ATOM      2  C   UNL     1       7.206   5.742  15.408  0.00  0.00    +0.000 A 
ATOM      3  C   UNL     1       7.001   4.942  14.282  0.00  0.00    +0.000 A 
ATOM      4 CL   UNL     1       8.115   5.010  12.973  0.00  0.00    +0.000 Cl
ATOM      5  C   UNL     1       5.898   4.103  14.209  0.00  0.00    +0.000 A 
ATOM      6  C   UNL     1       4.999   4.056  15.275  0.00  0.00    +0.000 A 
ATOM      7  C   UNL     1       5.203   4.843  16.426  0.00  0.00    +0.000 A 
ENDROOT
BRANCH   1  13
ATOM      8  O   UNL     1       8.587   9.486  17.978  0.00  0.00    +0.000 OA
ATOM      9  C   UNL     1       8.107   8.366  17.996  0.00  0.00    +0.000 C 
ATOM     10  N   UNL     1       8.504   7.340  18.786  0.00  0.00    +0.000 N 
ATOM     11  C   UNL     1       7.659   6.282  18.658  0.00  0.00    +0.000 C 
ATOM     12  O   UNL     1       7.756   5.231  19.272  0.00  0.00    +0.000 OA
ATOM     13  C   UNL     1       6.553   6.660  17.667  0.00  0.00    +0.000 C 
ATOM     14  N   UNL     1       7.049   7.942  17.227  0.00  0.00    +0.000 N 
ATOM     15  H   UNL     1       9.267   7.395  19.438  0.00  0.00    +0.000 HD
ATOM     16  H   UNL     1       6.498   8.618  16.713  0.00  0.00    +0.000 HD
ENDBRANCH   1  13
BRANCH   7  17
ATOM     17  S   UNL     1       3.898   4.798  17.658  0.00  0.00    +0.000 S 
ATOM     18  O   UNL     1       2.875   3.862  17.248  0.00  0.00    +0.000 OA
ATOM     19  O   UNL     1       4.536   4.642  18.948  0.00  0.00    +0.000 OA
BRANCH  17  20
ATOM     20  N   UNL     1       3.242   6.349  17.674  0.00  0.00    +0.000 N 
ATOM     21  H   UNL     1       3.955   7.008  17.356  0.00  0.00    +0.000 HD
BRANCH  20  22
ATOM     22  C   UNL     1       2.456   6.823  18.756  0.00  0.00    +0.000 A 
ATOM     23  C   UNL     1       2.169   6.010  19.858  0.00  0.00    +0.000 A 
ATOM     24  C   UNL     1       1.553   6.562  20.985  0.00  0.00    +0.000 A 
ATOM     25  C   UNL     1       1.224   7.914  21.000  0.00  0.00    +0.000 A 
ATOM     26  F   UNL     1       0.676   8.450  22.099  0.00  0.00    +0.000 F 
ATOM     27  C   UNL     1       1.486   8.723  19.901  0.00  0.00    +0.000 A 
ATOM     28  C   UNL     1       2.103   8.175  18.773  0.00  0.00    +0.000 A 
ENDBRANCH  20  22
ENDBRANCH  17  20
ENDBRANCH   7  17
TORSDOF 4
ENDMDL
