MODEL 1
REMARK VINA RESULT:      -8.5      0.000      0.000
REMARK  Name = 
REMARK  7 active torsions:
REMARK  status: ('A' for Active; 'I' for Inactive)
REMARK    1  A    between atoms: C_2  and  C_3
REMARK    2  A    between atoms: C_2  and  C_23
REMARK    3  A    between atoms: C_3  and  S_4
REMARK    4  A    between atoms: S_4  and  C_5
REMARK    5  A    between atoms: C_8  and  C_9
REMARK    6  A    between atoms: C_9  and  N_10
REMARK    7  A    between atoms: N_15  and  C_16
REMARK                            x       y       z     vdW  Elec       q    Type
REMARK                         _______ _______ _______ _____ _____    ______ ____
ROOT
ATOM      1  C   UNL     1       2.372   6.083  18.417  0.00  0.00    +0.000 A 
ATOM      2  N   UNL     1       1.316   5.657  17.770  0.00  0.00    +0.000 NA
ATOM      3  N   UNL     1       1.606   4.414  17.311  0.00  0.00    +0.000 NA
ATOM      4  C   UNL     1       2.832   4.089  17.699  0.00  0.00    +0.000 A 
ATOM      5  N   UNL     1       3.469   5.265  18.144  0.00  0.00    +0.000 N 
ENDROOT
BRANCH   5   6
ATOM      6  C   UNL     1       4.864   5.636  18.136  0.00  0.00    +0.000 A 
ATOM      7  C   UNL     1       5.388   6.582  17.246  0.00  0.00    +0.000 A 
ATOM      8  C   UNL     1       6.697   7.069  17.390  0.00  0.00    +0.000 A 
ATOM      9  C   UNL     1       7.499   6.617  18.426  0.00  0.00    +0.000 A 
ATOM     10  F   UNL     1       8.719   7.141  18.603  0.00  0.00    +0.000 F 
ATOM     11  C   UNL     1       7.034   5.652  19.295  0.00  0.00    +0.000 A 
ATOM     12  C   UNL     1       5.728   5.166  19.151  0.00  0.00    +0.000 A 
ENDBRANCH   5   6
BRANCH   1  13
ATOM     13  S   UNL     1       2.303   7.344  19.609  0.00  0.00    +0.000 S 
BRANCH  13  14
ATOM     14  C   UNL     1       1.709   8.729  18.589  0.00  0.00    +0.000 C 
BRANCH  14  16
ATOM     15  O   UNL     1       1.110  10.082  20.519  0.00  0.00    +0.000 OA
ATOM     16  C   UNL     1       0.840   9.687  19.386  0.00  0.00    +0.000 C 
BRANCH  16  17
ATOM     17  C   UNL     1      -0.419  10.187  18.742  0.00  0.00    +0.000 A 
ATOM     18  C   UNL     1      -1.147  11.207  19.409  0.00  0.00    +0.000 A 
ATOM     19  C   UNL     1      -2.326  11.731  18.852  0.00  0.00    +0.000 A 
ATOM     20  C   UNL     1      -2.739  11.221  17.648  0.00  0.00    +0.000 A 
ATOM     21  C   UNL     1      -2.042  10.231  17.002  0.00  0.00    +0.000 A 
ATOM     22  C   UNL     1      -0.881   9.692  17.517  0.00  0.00    +0.000 A 
ATOM     23  O   UNL     1      -2.623   9.870  15.823  0.00  0.00    +0.000 OA
ATOM     24  C   UNL     1      -3.758  10.759  15.796  0.00  0.00    +0.000 C 
ATOM     25  O   UNL     1      -3.843  11.608  16.959  0.00  0.00    +0.000 OA
ENDBRANCH  16  17
ENDBRANCH  14  16
ENDBRANCH  13  14
ENDBRANCH   1  13
BRANCH   4  26
ATOM     26  C   UNL     1       3.261   2.655  17.849  0.00  0.00    +0.000 C 
BRANCH  26  27
ATOM     27  N   UNL     1       2.965   1.934  19.104  0.00  0.00    +0.000 NA
ATOM     28  C   UNL     1       1.553   1.796  19.447  0.00  0.00    +0.000 C 
ATOM     29  C   UNL     1       1.235   3.014  20.287  0.00  0.00    +0.000 C 
ATOM     30  C   UNL     1       2.518   3.248  21.070  0.00  0.00    +0.000 C 
ATOM     31  C   UNL     1       3.603   2.490  20.306  0.00  0.00    +0.000 C 
ENDBRANCH  26  27
ENDBRANCH   4  26
TORSDOF 7
ENDMDL
MODEL 2
REMARK VINA RESULT:      -8.3      4.526      8.120
REMARK  Name = 
REMARK  7 active torsions:
REMARK  status: ('A' for Active; 'I' for Inactive)
REMARK    1  A    between atoms: C_2  and  C_3
REMARK    2  A    between atoms: C_2  and  C_23
REMARK    3  A    between atoms: C_3  and  S_4
REMARK    4  A    between atoms: S_4  and  C_5
REMARK    5  A    between atoms: C_8  and  C_9
REMARK    6  A    between atoms: C_9  and  N_10
REMARK    7  A    between atoms: N_15  and  C_16
REMARK                            x       y       z     vdW  Elec       q    Type
REMARK                         _______ _______ _______ _____ _____    ______ ____
ROOT
ATOM      1  C   UNL     1       3.040   7.752  17.755  0.00  0.00    +0.000 A 
ATOM      2  N   UNL     1       2.552   8.926  17.439  0.00  0.00    +0.000 NA
ATOM      3  N   UNL     1       1.686   9.274  18.423  0.00  0.00    +0.000 NA
ATOM      4  C   UNL     1       1.669   8.313  19.338  0.00  0.00    +0.000 A 
ATOM      5  N   UNL     1       2.291   7.177  18.783  0.00  0.00    +0.000 N 
ENDROOT
BRANCH   5   6
ATOM      6  C   UNL     1       2.079   5.772  19.039  0.00  0.00    +0.000 A 
ATOM      7  C   UNL     1       1.879   5.262  20.327  0.00  0.00    +0.000 A 
ATOM      8  C   UNL     1       1.478   3.931  20.528  0.00  0.00    +0.000 A 
ATOM      9  C   UNL     1       1.271   3.094  19.443  0.00  0.00    +0.000 A 
ATOM     10  F   UNL     1       0.816   1.849  19.637  0.00  0.00    +0.000 F 
ATOM     11  C   UNL     1       1.502   3.547  18.161  0.00  0.00    +0.000 A 
ATOM     12  C   UNL     1       1.902   4.876  17.961  0.00  0.00    +0.000 A 
ENDBRANCH   5   6
BRANCH   1  13
ATOM     13  S   UNL     1       4.540   7.151  17.118  0.00  0.00    +0.000 S 
BRANCH  13  14
ATOM     14  C   UNL     1       5.181   6.261  18.570  0.00  0.00    +0.000 C 
BRANCH  14  16
ATOM     15  O   UNL     1       6.648   4.365  18.975  0.00  0.00    +0.000 OA
ATOM     16  C   UNL     1       6.052   5.082  18.172  0.00  0.00    +0.000 C 
BRANCH  16  17
ATOM     17  C   UNL     1       6.182   4.771  16.711  0.00  0.00    +0.000 A 
ATOM     18  C   UNL     1       5.265   3.847  16.143  0.00  0.00    +0.000 A 
ATOM     19  C   UNL     1       5.322   3.524  14.777  0.00  0.00    +0.000 A 
ATOM     20  C   UNL     1       6.291   4.134  14.022  0.00  0.00    +0.000 A 
ATOM     21  C   UNL     1       7.183   5.024  14.567  0.00  0.00    +0.000 A 
ATOM     22  C   UNL     1       7.158   5.365  15.904  0.00  0.00    +0.000 A 
ATOM     23  O   UNL     1       8.059   5.513  13.644  0.00  0.00    +0.000 OA
ATOM     24  C   UNL     1       7.604   4.839  12.453  0.00  0.00    +0.000 C 
ATOM     25  O   UNL     1       6.492   3.953  12.691  0.00  0.00    +0.000 OA
ENDBRANCH  16  17
ENDBRANCH  14  16
ENDBRANCH  13  14
ENDBRANCH   1  13
BRANCH   4  26
ATOM     26  C   UNL     1       1.277   8.586  20.764  0.00  0.00    +0.000 C 
BRANCH  26  27
ATOM     27  N   UNL     1      -0.118   8.957  21.079  0.00  0.00    +0.000 NA
ATOM     28  C   UNL     1      -0.536  10.293  20.664  0.00  0.00    +0.000 C 
ATOM     29  C   UNL     1      -0.226  11.184  21.848  0.00  0.00    +0.000 C 
ATOM     30  C   UNL     1      -0.504  10.289  23.047  0.00  0.00    +0.000 C 
ATOM     31  C   UNL     1      -0.481   8.861  22.501  0.00  0.00    +0.000 C 
ENDBRANCH  26  27
ENDBRANCH   4  26
TORSDOF 7
ENDMDL
MODEL 3
REMARK VINA RESULT:      -8.3      4.511      7.675
REMARK  Name = 
REMARK  7 active torsions:
REMARK  status: ('A' for Active; 'I' for Inactive)
REMARK    1  A    between atoms: C_2  and  C_3
REMARK    2  A    between atoms: C_2  and  C_23
REMARK    3  A    between atoms: C_3  and  S_4
REMARK    4  A    between atoms: S_4  and  C_5
REMARK    5  A    between atoms: C_8  and  C_9
REMARK    6  A    between atoms: C_9  and  N_10
REMARK    7  A    between atoms: N_15  and  C_16
REMARK                            x       y       z     vdW  Elec       q    Type
REMARK                         _______ _______ _______ _____ _____    ______ ____
ROOT
ATOM      1  C   UNL     1       4.310   6.160  18.866  0.00  0.00    +0.000 A 
ATOM      2  N   UNL     1       4.840   5.185  19.562  0.00  0.00    +0.000 NA
ATOM      3  N   UNL     1       3.826   4.569  20.218  0.00  0.00    +0.000 NA
ATOM      4  C   UNL     1       2.685   5.168  19.903  0.00  0.00    +0.000 A 
ATOM      5  N   UNL     1       2.998   6.393  19.281  0.00  0.00    +0.000 N 
ENDROOT
BRANCH   5   6
ATOM      6  C   UNL     1       2.271   7.640  19.245  0.00  0.00    +0.000 A 
ATOM      7  C   UNL     1       1.995   8.318  18.052  0.00  0.00    +0.000 A 
ATOM      8  C   UNL     1       1.120   9.417  18.026  0.00  0.00    +0.000 A 
ATOM      9  C   UNL     1       0.510   9.850  19.193  0.00  0.00    +0.000 A 
ATOM     10  F   UNL     1      -0.381  10.849  19.148  0.00  0.00    +0.000 F 
ATOM     11  C   UNL     1       0.793   9.236  20.395  0.00  0.00    +0.000 A 
ATOM     12  C   UNL     1       1.666   8.140  20.421  0.00  0.00    +0.000 A 
ENDBRANCH   5   6
BRANCH   1  13
ATOM     13  S   UNL     1       5.091   6.867  17.485  0.00  0.00    +0.000 S 
BRANCH  13  14
ATOM     14  C   UNL     1       6.837   6.588  17.915  0.00  0.00    +0.000 C 
BRANCH  14  16
ATOM     15  O   UNL     1       7.950   4.448  18.218  0.00  0.00    +0.000 OA
ATOM     16  C   UNL     1       7.311   5.208  17.492  0.00  0.00    +0.000 C 
BRANCH  16  17
ATOM     17  C   UNL     1       6.967   4.745  16.108  0.00  0.00    +0.000 A 
ATOM     18  C   UNL     1       5.895   3.827  15.961  0.00  0.00    +0.000 A 
ATOM     19  C   UNL     1       5.512   3.366  14.689  0.00  0.00    +0.000 A 
ATOM     20  C   UNL     1       6.210   3.837  13.608  0.00  0.00    +0.000 A 
ATOM     21  C   UNL     1       7.252   4.722  13.745  0.00  0.00    +0.000 A 
ATOM     22  C   UNL     1       7.656   5.196  14.976  0.00  0.00    +0.000 A 
ATOM     23  O   UNL     1       7.806   5.062  12.548  0.00  0.00    +0.000 OA
ATOM     24  C   UNL     1       6.983   4.301  11.641  0.00  0.00    +0.000 C 
ATOM     25  O   UNL     1       5.978   3.512  12.310  0.00  0.00    +0.000 OA
ENDBRANCH  16  17
ENDBRANCH  14  16
ENDBRANCH  13  14
ENDBRANCH   1  13
BRANCH   4  26
ATOM     26  C   UNL     1       1.365   4.453  19.992  0.00  0.00    +0.000 C 
BRANCH  26  27
ATOM     27  N   UNL     1       0.892   3.650  18.845  0.00  0.00    +0.000 NA
ATOM     28  C   UNL     1       1.120   2.211  18.932  0.00  0.00    +0.000 C 
ATOM     29  C   UNL     1       2.474   1.991  18.292  0.00  0.00    +0.000 C 
ATOM     30  C   UNL     1       2.510   3.025  17.175  0.00  0.00    +0.000 C 
ATOM     31  C   UNL     1       1.436   4.051  17.539  0.00  0.00    +0.000 C 
ENDBRANCH  26  27
ENDBRANCH   4  26
TORSDOF 7
ENDMDL
MODEL 4
REMARK VINA RESULT:      -8.1      0.834      1.434
REMARK  Name = 
REMARK  7 active torsions:
REMARK  status: ('A' for Active; 'I' for Inactive)
REMARK    1  A    between atoms: C_2  and  C_3
REMARK    2  A    between atoms: C_2  and  C_23
REMARK    3  A    between atoms: C_3  and  S_4
REMARK    4  A    between atoms: S_4  and  C_5
REMARK    5  A    between atoms: C_8  and  C_9
REMARK    6  A    between atoms: C_9  and  N_10
REMARK    7  A    between atoms: N_15  and  C_16
REMARK                            x       y       z     vdW  Elec       q    Type
REMARK                         _______ _______ _______ _____ _____    ______ ____
ROOT
ATOM      1  C   UNL     1       2.304   6.194  18.198  0.00  0.00    +0.000 A 
ATOM      2  N   UNL     1       1.267   5.693  17.574  0.00  0.00    +0.000 NA
ATOM      3  N   UNL     1       1.534   4.383  17.350  0.00  0.00    +0.000 NA
ATOM      4  C   UNL     1       2.726   4.096  17.855  0.00  0.00    +0.000 A 
ATOM      5  N   UNL     1       3.383   5.312  18.129  0.00  0.00    +0.000 N 
ENDROOT
BRANCH   5   6
ATOM      6  C   UNL     1       4.790   5.638  18.136  0.00  0.00    +0.000 A 
ATOM      7  C   UNL     1       5.360   6.538  17.227  0.00  0.00    +0.000 A 
ATOM      8  C   UNL     1       6.682   6.987  17.381  0.00  0.00    +0.000 A 
ATOM      9  C   UNL     1       7.449   6.543  18.446  0.00  0.00    +0.000 A 
ATOM     10  F   UNL     1       8.682   7.033  18.629  0.00  0.00    +0.000 F 
ATOM     11  C   UNL     1       6.938   5.622  19.336  0.00  0.00    +0.000 A 
ATOM     12  C   UNL     1       5.619   5.174  19.183  0.00  0.00    +0.000 A 
ENDBRANCH   5   6
BRANCH   1  13
ATOM     13  S   UNL     1       2.222   7.643  19.153  0.00  0.00    +0.000 S 
BRANCH  13  14
ATOM     14  C   UNL     1       1.497   8.794  17.945  0.00  0.00    +0.000 C 
BRANCH  14  16
ATOM     15  O   UNL     1       1.547  10.784  19.342  0.00  0.00    +0.000 OA
ATOM     16  C   UNL     1       0.908  10.023  18.616  0.00  0.00    +0.000 C 
BRANCH  16  17
ATOM     17  C   UNL     1      -0.538  10.329  18.367  0.00  0.00    +0.000 A 
ATOM     18  C   UNL     1      -1.183   9.666  17.290  0.00  0.00    +0.000 A 
ATOM     19  C   UNL     1      -2.542   9.895  17.013  0.00  0.00    +0.000 A 
ATOM     20  C   UNL     1      -3.212  10.778  17.821  0.00  0.00    +0.000 A 
ATOM     21  C   UNL     1      -2.592  11.426  18.860  0.00  0.00    +0.000 A 
ATOM     22  C   UNL     1      -1.261  11.226  19.162  0.00  0.00    +0.000 A 
ATOM     23  O   UNL     1      -3.438  12.256  19.534  0.00  0.00    +0.000 OA
ATOM     24  C   UNL     1      -4.665  12.043  18.807  0.00  0.00    +0.000 C 
ATOM     25  O   UNL     1      -4.523  11.117  17.711  0.00  0.00    +0.000 OA
ENDBRANCH  16  17
ENDBRANCH  14  16
ENDBRANCH  13  14
ENDBRANCH   1  13
BRANCH   4  26
ATOM     26  C   UNL     1       3.095   2.697  18.269  0.00  0.00    +0.000 C 
BRANCH  26  27
ATOM     27  N   UNL     1       2.596   2.163  19.553  0.00  0.00    +0.000 NA
ATOM     28  C   UNL     1       1.172   2.348  19.815  0.00  0.00    +0.000 C 
ATOM     29  C   UNL     1       1.077   3.673  20.540  0.00  0.00    +0.000 C 
ATOM     30  C   UNL     1       2.344   3.706  21.384  0.00  0.00    +0.000 C 
ATOM     31  C   UNL     1       3.280   2.678  20.748  0.00  0.00    +0.000 C 
ENDBRANCH  26  27
ENDBRANCH   4  26
TORSDOF 7
ENDMDL
MODEL 5
REMARK VINA RESULT:      -8.0      4.512      7.992
REMARK  Name = 
REMARK  7 active torsions:
REMARK  status: ('A' for Active; 'I' for Inactive)
REMARK    1  A    between atoms: C_2  and  C_3
REMARK    2  A    between atoms: C_2  and  C_23
REMARK    3  A    between atoms: C_3  and  S_4
REMARK    4  A    between atoms: S_4  and  C_5
REMARK    5  A    between atoms: C_8  and  C_9
REMARK    6  A    between atoms: C_9  and  N_10
REMARK    7  A    between atoms: N_15  and  C_16
REMARK                            x       y       z     vdW  Elec       q    Type
REMARK                         _______ _______ _______ _____ _____    ______ ____
ROOT
ATOM      1  C   UNL     1       2.966   7.675  18.005  0.00  0.00    +0.000 A 
ATOM      2  N   UNL     1       2.447   8.865  17.840  0.00  0.00    +0.000 NA
ATOM      3  N   UNL     1       1.592   9.072  18.872  0.00  0.00    +0.000 NA
ATOM      4  C   UNL     1       1.611   8.009  19.665  0.00  0.00    +0.000 A 
ATOM      5  N   UNL     1       2.249   6.963  18.968  0.00  0.00    +0.000 N 
ENDROOT
BRANCH   5   6
ATOM      6  C   UNL     1       2.072   5.533  19.056  0.00  0.00    +0.000 A 
ATOM      7  C   UNL     1       1.843   4.730  17.932  0.00  0.00    +0.000 A 
ATOM      8  C   UNL     1       1.874   3.329  18.021  0.00  0.00    +0.000 A 
ATOM      9  C   UNL     1       2.135   2.713  19.234  0.00  0.00    +0.000 A 
ATOM     10  F   UNL     1       2.238   1.379  19.296  0.00  0.00    +0.000 F 
ATOM     11  C   UNL     1       2.321   3.469  20.373  0.00  0.00    +0.000 A 
ATOM     12  C   UNL     1       2.290   4.867  20.284  0.00  0.00    +0.000 A 
ENDBRANCH   5   6
BRANCH   1  13
ATOM     13  S   UNL     1       4.468   7.190  17.279  0.00  0.00    +0.000 S 
BRANCH  13  14
ATOM     14  C   UNL     1       5.208   6.249  18.648  0.00  0.00    +0.000 C 
BRANCH  14  16
ATOM     15  O   UNL     1       5.756   3.902  18.973  0.00  0.00    +0.000 OA
ATOM     16  C   UNL     1       5.645   4.861  18.211  0.00  0.00    +0.000 C 
BRANCH  16  17
ATOM     17  C   UNL     1       5.951   4.651  16.758  0.00  0.00    +0.000 A 
ATOM     18  C   UNL     1       5.138   3.743  16.031  0.00  0.00    +0.000 A 
ATOM     19  C   UNL     1       5.360   3.513  14.663  0.00  0.00    +0.000 A 
ATOM     20  C   UNL     1       6.387   4.197  14.065  0.00  0.00    +0.000 A 
ATOM     21  C   UNL     1       7.180   5.073  14.764  0.00  0.00    +0.000 A 
ATOM     22  C   UNL     1       6.992   5.324  16.108  0.00  0.00    +0.000 A 
ATOM     23  O   UNL     1       8.138   5.645  13.981  0.00  0.00    +0.000 OA
ATOM     24  C   UNL     1       7.845   5.039  12.706  0.00  0.00    +0.000 C 
ATOM     25  O   UNL     1       6.744   4.109  12.757  0.00  0.00    +0.000 OA
ENDBRANCH  16  17
ENDBRANCH  14  16
ENDBRANCH  13  14
ENDBRANCH   1  13
BRANCH   4  26
ATOM     26  C   UNL     1       1.239   8.099  21.119  0.00  0.00    +0.000 C 
BRANCH  26  27
ATOM     27  N   UNL     1       1.337   9.398  21.817  0.00  0.00    +0.000 NA
ATOM     28  C   UNL     1       0.831   9.430  23.186  0.00  0.00    +0.000 C 
ATOM     29  C   UNL     1      -0.626   9.818  23.055  0.00  0.00    +0.000 C 
ATOM     30  C   UNL     1      -0.630  10.784  21.879  0.00  0.00    +0.000 C 
ATOM     31  C   UNL     1       0.678  10.522  21.134  0.00  0.00    +0.000 C 
ENDBRANCH  26  27
ENDBRANCH   4  26
TORSDOF 7
ENDMDL
MODEL 6
REMARK VINA RESULT:      -8.0      4.246      6.745
REMARK  Name = 
REMARK  7 active torsions:
REMARK  status: ('A' for Active; 'I' for Inactive)
REMARK    1  A    between atoms: C_2  and  C_3
REMARK    2  A    between atoms: C_2  and  C_23
REMARK    3  A    between atoms: C_3  and  S_4
REMARK    4  A    between atoms: S_4  and  C_5
REMARK    5  A    between atoms: C_8  and  C_9
REMARK    6  A    between atoms: C_9  and  N_10
REMARK    7  A    between atoms: N_15  and  C_16
REMARK                            x       y       z     vdW  Elec       q    Type
REMARK                         _______ _______ _______ _____ _____    ______ ____
ROOT
ATOM      1  C   UNL     1       6.446   5.958  16.693  0.00  0.00    +0.000 A 
ATOM      2  N   UNL     1       7.492   6.138  15.925  0.00  0.00    +0.000 NA
ATOM      3  N   UNL     1       7.521   5.106  15.047  0.00  0.00    +0.000 NA
ATOM      4  C   UNL     1       6.482   4.315  15.280  0.00  0.00    +0.000 A 
ATOM      5  N   UNL     1       5.946   4.665  16.535  0.00  0.00    +0.000 N 
ENDROOT
BRANCH   5   6
ATOM      6  C   UNL     1       5.246   3.865  17.512  0.00  0.00    +0.000 A 
ATOM      7  C   UNL     1       4.411   2.798  17.156  0.00  0.00    +0.000 A 
ATOM      8  C   UNL     1       3.904   1.917  18.125  0.00  0.00    +0.000 A 
ATOM      9  C   UNL     1       4.227   2.090  19.461  0.00  0.00    +0.000 A 
ATOM     10  F   UNL     1       3.802   1.203  20.370  0.00  0.00    +0.000 F 
ATOM     11  C   UNL     1       5.009   3.156  19.856  0.00  0.00    +0.000 A 
ATOM     12  C   UNL     1       5.514   4.036  18.889  0.00  0.00    +0.000 A 
ENDBRANCH   5   6
BRANCH   1  13
ATOM     13  S   UNL     1       5.694   7.248  17.582  0.00  0.00    +0.000 S 
BRANCH  13  14
ATOM     14  C   UNL     1       4.019   7.204  16.872  0.00  0.00    +0.000 C 
BRANCH  14  16
ATOM     15  O   UNL     1       2.513   8.464  18.306  0.00  0.00    +0.000 OA
ATOM     16  C   UNL     1       2.948   7.374  17.936  0.00  0.00    +0.000 C 
BRANCH  16  17
ATOM     17  C   UNL     1       2.384   6.135  18.564  0.00  0.00    +0.000 A 
ATOM     18  C   UNL     1       1.694   5.220  17.726  0.00  0.00    +0.000 A 
ATOM     19  C   UNL     1       1.155   4.032  18.248  0.00  0.00    +0.000 A 
ATOM     20  C   UNL     1       1.323   3.796  19.588  0.00  0.00    +0.000 A 
ATOM     21  C   UNL     1       1.984   4.680  20.405  0.00  0.00    +0.000 A 
ATOM     22  C   UNL     1       2.526   5.856  19.928  0.00  0.00    +0.000 A 
ATOM     23  O   UNL     1       2.038   4.254  21.698  0.00  0.00    +0.000 OA
ATOM     24  C   UNL     1       1.348   2.992  21.597  0.00  0.00    +0.000 C 
ATOM     25  O   UNL     1       0.880   2.704  20.264  0.00  0.00    +0.000 OA
ENDBRANCH  16  17
ENDBRANCH  14  16
ENDBRANCH  13  14
ENDBRANCH   1  13
BRANCH   4  26
ATOM     26  C   UNL     1       5.906   3.430  14.208  0.00  0.00    +0.000 C 
BRANCH  26  27
ATOM     27  N   UNL     1       5.980   3.854  12.795  0.00  0.00    +0.000 NA
ATOM     28  C   UNL     1       4.945   3.324  11.912  0.00  0.00    +0.000 C 
ATOM     29  C   UNL     1       5.522   2.036  11.364  0.00  0.00    +0.000 C 
ATOM     30  C   UNL     1       7.006   2.343  11.227  0.00  0.00    +0.000 C 
ATOM     31  C   UNL     1       7.253   3.557  12.122  0.00  0.00    +0.000 C 
ENDBRANCH  26  27
ENDBRANCH   4  26
TORSDOF 7
ENDMDL
MODEL 7
REMARK VINA RESULT:      -7.9      3.647      5.557
REMARK  Name = 
REMARK  7 active torsions:
REMARK  status: ('A' for Active; 'I' for Inactive)
REMARK    1  A    between atoms: C_2  and  C_3
REMARK    2  A    between atoms: C_2  and  C_23
REMARK    3  A    between atoms: C_3  and  S_4
REMARK    4  A    between atoms: S_4  and  C_5
REMARK    5  A    between atoms: C_8  and  C_9
REMARK    6  A    between atoms: C_9  and  N_10
REMARK    7  A    between atoms: N_15  and  C_16
REMARK                            x       y       z     vdW  Elec       q    Type
REMARK                         _______ _______ _______ _____ _____    ______ ____
ROOT
ATOM      1  C   UNL     1       5.068   6.178  16.757  0.00  0.00    +0.000 A 
ATOM      2  N   UNL     1       6.211   6.625  16.299  0.00  0.00    +0.000 NA
ATOM      3  N   UNL     1       6.759   5.629  15.560  0.00  0.00    +0.000 NA
ATOM      4  C   UNL     1       5.935   4.590  15.562  0.00  0.00    +0.000 A 
ATOM      5  N   UNL     1       4.983   4.796  16.580  0.00  0.00    +0.000 N 
ENDROOT
BRANCH   5   6
ATOM      6  C   UNL     1       4.255   3.847  17.390  0.00  0.00    +0.000 A 
ATOM      7  C   UNL     1       4.705   3.428  18.648  0.00  0.00    +0.000 A 
ATOM      8  C   UNL     1       3.886   2.664  19.495  0.00  0.00    +0.000 A 
ATOM      9  C   UNL     1       2.606   2.312  19.095  0.00  0.00    +0.000 A 
ATOM     10  F   UNL     1       1.803   1.649  19.938  0.00  0.00    +0.000 F 
ATOM     11  C   UNL     1       2.145   2.668  17.845  0.00  0.00    +0.000 A 
ATOM     12  C   UNL     1       2.963   3.430  17.000  0.00  0.00    +0.000 A 
ENDBRANCH   5   6
BRANCH   1  13
ATOM     13  S   UNL     1       3.786   7.226  17.280  0.00  0.00    +0.000 S 
BRANCH  13  14
ATOM     14  C   UNL     1       3.806   6.903  19.071  0.00  0.00    +0.000 C 
BRANCH  14  16
ATOM     15  O   UNL     1       1.856   5.640  19.788  0.00  0.00    +0.000 OA
ATOM     16  C   UNL     1       2.405   6.730  19.632  0.00  0.00    +0.000 C 
BRANCH  16  17
ATOM     17  C   UNL     1       1.654   7.965  20.027  0.00  0.00    +0.000 A 
ATOM     18  C   UNL     1       1.154   8.045  21.353  0.00  0.00    +0.000 A 
ATOM     19  C   UNL     1       0.456   9.183  21.792  0.00  0.00    +0.000 A 
ATOM     20  C   UNL     1       0.279  10.203  20.893  0.00  0.00    +0.000 A 
ATOM     21  C   UNL     1       0.755  10.130  19.608  0.00  0.00    +0.000 A 
ATOM     22  C   UNL     1       1.446   9.029  19.141  0.00  0.00    +0.000 A 
ATOM     23  O   UNL     1       0.473  11.249  18.883  0.00  0.00    +0.000 OA
ATOM     24  C   UNL     1      -0.222  12.041  19.867  0.00  0.00    +0.000 C 
ATOM     25  O   UNL     1      -0.360  11.376  21.140  0.00  0.00    +0.000 OA
ENDBRANCH  16  17
ENDBRANCH  14  16
ENDBRANCH  13  14
ENDBRANCH   1  13
BRANCH   4  26
ATOM     26  C   UNL     1       5.945   3.571  14.456  0.00  0.00    +0.000 C 
BRANCH  26  27
ATOM     27  N   UNL     1       5.876   4.020  13.050  0.00  0.00    +0.000 NA
ATOM     28  C   UNL     1       4.883   3.355  12.212  0.00  0.00    +0.000 C 
ATOM     29  C   UNL     1       5.610   2.174  11.606  0.00  0.00    +0.000 C 
ATOM     30  C   UNL     1       7.024   2.699  11.397  0.00  0.00    +0.000 C 
ATOM     31  C   UNL     1       7.140   3.923  12.304  0.00  0.00    +0.000 C 
ENDBRANCH  26  27
ENDBRANCH   4  26
TORSDOF 7
ENDMDL
MODEL 8
REMARK VINA RESULT:      -7.9      1.082      1.295
REMARK  Name = 
REMARK  7 active torsions:
REMARK  status: ('A' for Active; 'I' for Inactive)
REMARK    1  A    between atoms: C_2  and  C_3
REMARK    2  A    between atoms: C_2  and  C_23
REMARK    3  A    between atoms: C_3  and  S_4
REMARK    4  A    between atoms: S_4  and  C_5
REMARK    5  A    between atoms: C_8  and  C_9
REMARK    6  A    between atoms: C_9  and  N_10
REMARK    7  A    between atoms: N_15  and  C_16
REMARK                            x       y       z     vdW  Elec       q    Type
REMARK                         _______ _______ _______ _____ _____    ______ ____
ROOT
ATOM      1  C   UNL     1       2.451   5.997  18.109  0.00  0.00    +0.000 A 
ATOM      2  N   UNL     1       1.455   5.432  17.473  0.00  0.00    +0.000 NA
ATOM      3  N   UNL     1       1.775   4.124  17.316  0.00  0.00    +0.000 NA
ATOM      4  C   UNL     1       2.957   3.902  17.874  0.00  0.00    +0.000 A 
ATOM      5  N   UNL     1       3.562   5.152  18.117  0.00  0.00    +0.000 N 
ENDROOT
BRANCH   5   6
ATOM      6  C   UNL     1       4.955   5.529  18.158  0.00  0.00    +0.000 A 
ATOM      7  C   UNL     1       5.521   6.425  17.244  0.00  0.00    +0.000 A 
ATOM      8  C   UNL     1       6.821   6.925  17.426  0.00  0.00    +0.000 A 
ATOM      9  C   UNL     1       7.570   6.536  18.526  0.00  0.00    +0.000 A 
ATOM     10  F   UNL     1       8.778   7.075  18.734  0.00  0.00    +0.000 F 
ATOM     11  C   UNL     1       7.063   5.620  19.424  0.00  0.00    +0.000 A 
ATOM     12  C   UNL     1       5.766   5.121  19.242  0.00  0.00    +0.000 A 
ENDBRANCH   5   6
BRANCH   1  13
ATOM     13  S   UNL     1       2.284   7.482  18.996  0.00  0.00    +0.000 S 
BRANCH  13  14
ATOM     14  C   UNL     1       1.482   8.527  17.741  0.00  0.00    +0.000 C 
BRANCH  14  16
ATOM     15  O   UNL     1       2.490  10.710  18.101  0.00  0.00    +0.000 OA
ATOM     16  C   UNL     1       1.491   9.994  18.135  0.00  0.00    +0.000 C 
BRANCH  16  17
ATOM     17  C   UNL     1       0.197  10.603  18.584  0.00  0.00    +0.000 A 
ATOM     18  C   UNL     1       0.216  11.436  19.733  0.00  0.00    +0.000 A 
ATOM     19  C   UNL     1      -0.959  12.052  20.197  0.00  0.00    +0.000 A 
ATOM     20  C   UNL     1      -2.115  11.816  19.498  0.00  0.00    +0.000 A 
ATOM     21  C   UNL     1      -2.141  11.007  18.389  0.00  0.00    +0.000 A 
ATOM     22  C   UNL     1      -1.008  10.386  17.905  0.00  0.00    +0.000 A 
ATOM     23  O   UNL     1      -3.387  10.909  17.847  0.00  0.00    +0.000 OA
ATOM     24  C   UNL     1      -4.138  11.762  18.734  0.00  0.00    +0.000 C 
ATOM     25  O   UNL     1      -3.338  12.329  19.791  0.00  0.00    +0.000 OA
ENDBRANCH  16  17
ENDBRANCH  14  16
ENDBRANCH  13  14
ENDBRANCH   1  13
BRANCH   4  26
ATOM     26  C   UNL     1       3.358   2.537  18.363  0.00  0.00    +0.000 C 
BRANCH  26  27
ATOM     27  N   UNL     1       2.890   2.070  19.684  0.00  0.00    +0.000 NA
ATOM     28  C   UNL     1       1.444   2.025  19.873  0.00  0.00    +0.000 C 
ATOM     29  C   UNL     1       1.080   3.384  20.430  0.00  0.00    +0.000 C 
ATOM     30  C   UNL     1       2.273   3.739  21.306  0.00  0.00    +0.000 C 
ATOM     31  C   UNL     1       3.407   2.831  20.832  0.00  0.00    +0.000 C 
ENDBRANCH  26  27
ENDBRANCH   4  26
TORSDOF 7
ENDMDL
MODEL 9
REMARK VINA RESULT:      -7.9      1.807      2.808
REMARK  Name = 
REMARK  7 active torsions:
REMARK  status: ('A' for Active; 'I' for Inactive)
REMARK    1  A    between atoms: C_2  and  C_3
REMARK    2  A    between atoms: C_2  and  C_23
REMARK    3  A    between atoms: C_3  and  S_4
REMARK    4  A    between atoms: S_4  and  C_5
REMARK    5  A    between atoms: C_8  and  C_9
REMARK    6  A    between atoms: C_9  and  N_10
REMARK    7  A    between atoms: N_15  and  C_16
REMARK                            x       y       z     vdW  Elec       q    Type
REMARK                         _______ _______ _______ _____ _____    ______ ____
ROOT
ATOM      1  C   UNL     1       2.326   6.111  18.220  0.00  0.00    +0.000 A 
ATOM      2  N   UNL     1       1.295   5.613  17.583  0.00  0.00    +0.000 NA
ATOM      3  N   UNL     1       1.575   4.311  17.331  0.00  0.00    +0.000 NA
ATOM      4  C   UNL     1       2.769   4.024  17.831  0.00  0.00    +0.000 A 
ATOM      5  N   UNL     1       3.414   5.241  18.134  0.00  0.00    +0.000 N 
ENDROOT
BRANCH   5   6
ATOM      6  C   UNL     1       4.817   5.580  18.150  0.00  0.00    +0.000 A 
ATOM      7  C   UNL     1       5.386   6.483  17.243  0.00  0.00    +0.000 A 
ATOM      8  C   UNL     1       6.702   6.944  17.406  0.00  0.00    +0.000 A 
ATOM      9  C   UNL     1       7.466   6.511  18.478  0.00  0.00    +0.000 A 
ATOM     10  F   UNL     1       8.693   7.012  18.669  0.00  0.00    +0.000 F 
ATOM     11  C   UNL     1       6.956   5.587  19.367  0.00  0.00    +0.000 A 
ATOM     12  C   UNL     1       5.643   5.126  19.204  0.00  0.00    +0.000 A 
ENDBRANCH   5   6
BRANCH   1  13
ATOM     13  S   UNL     1       2.229   7.537  19.206  0.00  0.00    +0.000 S 
BRANCH  13  14
ATOM     14  C   UNL     1       2.023   8.811  17.924  0.00  0.00    +0.000 C 
BRANCH  14  16
ATOM     15  O   UNL     1      -0.262   9.362  17.300  0.00  0.00    +0.000 OA
ATOM     16  C   UNL     1       0.694   9.537  18.054  0.00  0.00    +0.000 C 
BRANCH  16  17
ATOM     17  C   UNL     1       0.541  10.517  19.179  0.00  0.00    +0.000 A 
ATOM     18  C   UNL     1       1.389  11.655  19.189  0.00  0.00    +0.000 A 
ATOM     19  C   UNL     1       1.286  12.621  20.205  0.00  0.00    +0.000 A 
ATOM     20  C   UNL     1       0.340  12.418  21.177  0.00  0.00    +0.000 A 
ATOM     21  C   UNL     1      -0.480  11.317  21.175  0.00  0.00    +0.000 A 
ATOM     22  C   UNL     1      -0.408  10.349  20.194  0.00  0.00    +0.000 A 
ATOM     23  O   UNL     1      -1.347  11.311  22.226  0.00  0.00    +0.000 OA
ATOM     24  C   UNL     1      -0.988  12.545  22.881  0.00  0.00    +0.000 C 
ATOM     25  O   UNL     1       0.091  13.244  22.227  0.00  0.00    +0.000 OA
ENDBRANCH  16  17
ENDBRANCH  14  16
ENDBRANCH  13  14
ENDBRANCH   1  13
BRANCH   4  26
ATOM     26  C   UNL     1       3.150   2.621  18.216  0.00  0.00    +0.000 C 
BRANCH  26  27
ATOM     27  N   UNL     1       2.673   2.061  19.497  0.00  0.00    +0.000 NA
ATOM     28  C   UNL     1       1.242   2.185  19.758  0.00  0.00    +0.000 C 
ATOM     29  C   UNL     1       1.090   3.502  20.487  0.00  0.00    +0.000 C 
ATOM     30  C   UNL     1       2.353   3.586  21.332  0.00  0.00    +0.000 C 
ATOM     31  C   UNL     1       3.333   2.602  20.695  0.00  0.00    +0.000 C 
ENDBRANCH  26  27
ENDBRANCH   4  26
TORSDOF 7
ENDMDL
