MODEL 1
REMARK VINA RESULT:      -8.0      0.000      0.000
REMARK  Name = 
REMARK  9 active torsions:
REMARK  status: ('A' for Active; 'I' for Inactive)
REMARK    1  A    between atoms: C_1  and  C_2
REMARK    2  A    between atoms: N_4  and  N_5
REMARK    3  A    between atoms: C_8  and  C_9
REMARK    4  A    between atoms: C_10  and  C_11
REMARK    5  A    between atoms: C_11  and  C_13
REMARK    6  A    between atoms: C_14  and  C_15
REMARK    7  A    between atoms: C_18  and  N_19
REMARK    8  A    between atoms: N_19  and  C_20
REMARK    9  A    between atoms: N_19  and  C_21
REMARK                            x       y       z     vdW  Elec       q    Type
REMARK                         _______ _______ _______ _____ _____    ______ ____
ROOT
ATOM      1  N   UNL     1       6.068   3.862  17.080  0.00  0.00    +0.000 N 
ATOM      2  C   UNL     1       4.933   3.838  17.817  0.00  0.00    +0.000 A 
ATOM      3  N   UNL     1       3.865   3.135  17.518  0.00  0.00    +0.000 NA
ATOM      4  C   UNL     1       2.875   3.301  18.482  0.00  0.00    +0.000 A 
ATOM      5  C   UNL     1       1.673   2.434  18.346  0.00  0.00    +0.000 C 
ATOM      6  C   UNL     1       3.168   4.242  19.464  0.00  0.00    +0.000 A 
ATOM      7  S   UNL     1       4.796   4.771  19.250  0.00  0.00    +0.000 S 
ATOM      8  H   UNL     1       6.797   4.540  17.320  0.00  0.00    +0.000 HD
ENDROOT
BRANCH   1  12
ATOM      9  C   UNL     1       6.518   4.074  13.406  0.00  0.00    +0.000 C 
ATOM     10  C   UNL     1       6.697   4.400  14.862  0.00  0.00    +0.000 C 
ATOM     11  O   UNL     1       7.342   5.372  15.254  0.00  0.00    +0.000 OA
ATOM     12  N   UNL     1       6.067   3.517  15.717  0.00  0.00    +0.000 N 
ATOM     13  H   UNL     1       5.314   2.900  15.421  0.00  0.00    +0.000 HD
ENDBRANCH   1  12
BRANCH   6  14
ATOM     14  C   UNL     1       2.404   4.787  20.580  0.00  0.00    +0.000 C 
ATOM     15  O   UNL     1       2.366   4.260  21.695  0.00  0.00    +0.000 OA
BRANCH  14  16
ATOM     16  C   UNL     1       1.670   6.074  20.372  0.00  0.00    +0.000 C 
ATOM     17  C   UNL     1       2.285   7.173  19.909  0.00  0.00    +0.000 C 
BRANCH  17  18
ATOM     18  C   UNL     1       1.553   8.434  19.760  0.00  0.00    +0.000 A 
ATOM     19  C   UNL     1       0.826   8.944  20.832  0.00  0.00    +0.000 A 
ATOM     20  C   UNL     1       0.076  10.122  20.687  0.00  0.00    +0.000 A 
ATOM     21  C   UNL     1       0.028  10.846  19.483  0.00  0.00    +0.000 A 
ATOM     22  C   UNL     1       0.781  10.312  18.424  0.00  0.00    +0.000 A 
ATOM     23  C   UNL     1       1.527   9.124  18.552  0.00  0.00    +0.000 A 
BRANCH  21  24
ATOM     24  N   UNL     1      -0.768  11.977  19.351  0.00  0.00    +0.000 N 
ATOM     25  C   UNL     1      -0.248  13.204  18.744  0.00  0.00    +0.000 C 
ATOM     26  C   UNL     1      -2.226  11.921  19.429  0.00  0.00    +0.000 C 
ENDBRANCH  21  24
ENDBRANCH  17  18
ENDBRANCH  14  16
ENDBRANCH   6  14
TORSDOF 5
ENDMDL
MODEL 2
REMARK VINA RESULT:      -7.8      0.345      1.029
REMARK  Name = 
REMARK  9 active torsions:
REMARK  status: ('A' for Active; 'I' for Inactive)
REMARK    1  A    between atoms: C_1  and  C_2
REMARK    2  A    between atoms: N_4  and  N_5
REMARK    3  A    between atoms: C_8  and  C_9
REMARK    4  A    between atoms: C_10  and  C_11
REMARK    5  A    between atoms: C_11  and  C_13
REMARK    6  A    between atoms: C_14  and  C_15
REMARK    7  A    between atoms: C_18  and  N_19
REMARK    8  A    between atoms: N_19  and  C_20
REMARK    9  A    between atoms: N_19  and  C_21
REMARK                            x       y       z     vdW  Elec       q    Type
REMARK                         _______ _______ _______ _____ _____    ______ ____
ROOT
ATOM      1  N   UNL     1       6.102   4.037  17.105  0.00  0.00    +0.000 N 
ATOM      2  C   UNL     1       4.990   3.944  17.870  0.00  0.00    +0.000 A 
ATOM      3  N   UNL     1       4.027   3.071  17.682  0.00  0.00    +0.000 NA
ATOM      4  C   UNL     1       3.034   3.211  18.647  0.00  0.00    +0.000 A 
ATOM      5  C   UNL     1       1.962   2.177  18.642  0.00  0.00    +0.000 C 
ATOM      6  C   UNL     1       3.204   4.290  19.508  0.00  0.00    +0.000 A 
ATOM      7  S   UNL     1       4.740   5.009  19.191  0.00  0.00    +0.000 S 
ATOM      8  H   UNL     1       6.733   4.831  17.247  0.00  0.00    +0.000 HD
ENDROOT
BRANCH   1  12
ATOM      9  C   UNL     1       6.171   3.913  13.400  0.00  0.00    +0.000 C 
ATOM     10  C   UNL     1       6.317   4.471  14.788  0.00  0.00    +0.000 C 
ATOM     11  O   UNL     1       6.570   5.655  15.008  0.00  0.00    +0.000 OA
ATOM     12  N   UNL     1       6.135   3.539  15.791  0.00  0.00    +0.000 N 
ATOM     13  H   UNL     1       5.654   2.654  15.644  0.00  0.00    +0.000 HD
ENDBRANCH   1  12
BRANCH   6  14
ATOM     14  C   UNL     1       2.384   4.850  20.575  0.00  0.00    +0.000 C 
ATOM     15  O   UNL     1       2.351   4.387  21.718  0.00  0.00    +0.000 OA
BRANCH  14  16
ATOM     16  C   UNL     1       1.580   6.077  20.278  0.00  0.00    +0.000 C 
ATOM     17  C   UNL     1       2.126   7.303  20.294  0.00  0.00    +0.000 C 
BRANCH  17  18
ATOM     18  C   UNL     1       1.305   8.492  20.047  0.00  0.00    +0.000 A 
ATOM     19  C   UNL     1       1.420   9.174  18.839  0.00  0.00    +0.000 A 
ATOM     20  C   UNL     1       0.680  10.345  18.610  0.00  0.00    +0.000 A 
ATOM     21  C   UNL     1      -0.209  10.878  19.560  0.00  0.00    +0.000 A 
ATOM     22  C   UNL     1      -0.309  10.160  20.765  0.00  0.00    +0.000 A 
ATOM     23  C   UNL     1       0.436   8.991  21.012  0.00  0.00    +0.000 A 
BRANCH  21  24
ATOM     24  N   UNL     1      -0.885  12.069  19.331  0.00  0.00    +0.000 N 
ATOM     25  C   UNL     1      -0.390  13.047  18.361  0.00  0.00    +0.000 C 
ATOM     26  C   UNL     1      -2.281  12.263  19.716  0.00  0.00    +0.000 C 
ENDBRANCH  21  24
ENDBRANCH  17  18
ENDBRANCH  14  16
ENDBRANCH   6  14
TORSDOF 5
ENDMDL
MODEL 3
REMARK VINA RESULT:      -7.7      0.985      1.134
REMARK  Name = 
REMARK  9 active torsions:
REMARK  status: ('A' for Active; 'I' for Inactive)
REMARK    1  A    between atoms: C_1  and  C_2
REMARK    2  A    between atoms: N_4  and  N_5
REMARK    3  A    between atoms: C_8  and  C_9
REMARK    4  A    between atoms: C_10  and  C_11
REMARK    5  A    between atoms: C_11  and  C_13
REMARK    6  A    between atoms: C_14  and  C_15
REMARK    7  A    between atoms: C_18  and  N_19
REMARK    8  A    between atoms: N_19  and  C_20
REMARK    9  A    between atoms: N_19  and  C_21
REMARK                            x       y       z     vdW  Elec       q    Type
REMARK                         _______ _______ _______ _____ _____    ______ ____
ROOT
ATOM      1  N   UNL     1       6.098   3.974  17.007  0.00  0.00    +0.000 N 
ATOM      2  C   UNL     1       4.950   4.020  17.722  0.00  0.00    +0.000 A 
ATOM      3  N   UNL     1       3.857   3.356  17.422  0.00  0.00    +0.000 NA
ATOM      4  C   UNL     1       2.859   3.592  18.361  0.00  0.00    +0.000 A 
ATOM      5  C   UNL     1       1.622   2.775  18.225  0.00  0.00    +0.000 C 
ATOM      6  C   UNL     1       3.175   4.546  19.323  0.00  0.00    +0.000 A 
ATOM      7  S   UNL     1       4.828   4.998  19.126  0.00  0.00    +0.000 S 
ATOM      8  H   UNL     1       6.852   4.625  17.243  0.00  0.00    +0.000 HD
ENDROOT
BRANCH   1  12
ATOM      9  C   UNL     1       6.582   4.081  13.333  0.00  0.00    +0.000 C 
ATOM     10  C   UNL     1       6.750   4.446  14.781  0.00  0.00    +0.000 C 
ATOM     11  O   UNL     1       7.398   5.424  15.151  0.00  0.00    +0.000 OA
ATOM     12  N   UNL     1       6.107   3.591  15.654  0.00  0.00    +0.000 N 
ATOM     13  H   UNL     1       5.353   2.971  15.368  0.00  0.00    +0.000 HD
ENDBRANCH   1  12
BRANCH   6  14
ATOM     14  C   UNL     1       2.415   5.155  20.408  0.00  0.00    +0.000 C 
ATOM     15  O   UNL     1       2.045   4.532  21.407  0.00  0.00    +0.000 OA
BRANCH  14  16
ATOM     16  C   UNL     1       2.112   6.618  20.325  0.00  0.00    +0.000 C 
ATOM     17  C   UNL     1       1.195   7.197  21.116  0.00  0.00    +0.000 C 
BRANCH  17  18
ATOM     18  C   UNL     1       0.883   8.623  20.980  0.00  0.00    +0.000 A 
ATOM     19  C   UNL     1       0.343   9.319  22.058  0.00  0.00    +0.000 A 
ATOM     20  C   UNL     1      -0.011  10.671  21.925  0.00  0.00    +0.000 A 
ATOM     21  C   UNL     1       0.168  11.388  20.729  0.00  0.00    +0.000 A 
ATOM     22  C   UNL     1       0.725  10.660  19.664  0.00  0.00    +0.000 A 
ATOM     23  C   UNL     1       1.073   9.300  19.780  0.00  0.00    +0.000 A 
BRANCH  21  24
ATOM     24  N   UNL     1      -0.244  12.709  20.609  0.00  0.00    +0.000 N 
ATOM     25  C   UNL     1      -1.055  13.150  19.473  0.00  0.00    +0.000 C 
ATOM     26  C   UNL     1      -0.248  13.634  21.740  0.00  0.00    +0.000 C 
ENDBRANCH  21  24
ENDBRANCH  17  18
ENDBRANCH  14  16
ENDBRANCH   6  14
TORSDOF 5
ENDMDL
MODEL 4
REMARK VINA RESULT:      -7.6      6.058      7.683
REMARK  Name = 
REMARK  9 active torsions:
REMARK  status: ('A' for Active; 'I' for Inactive)
REMARK    1  A    between atoms: C_1  and  C_2
REMARK    2  A    between atoms: N_4  and  N_5
REMARK    3  A    between atoms: C_8  and  C_9
REMARK    4  A    between atoms: C_10  and  C_11
REMARK    5  A    between atoms: C_11  and  C_13
REMARK    6  A    between atoms: C_14  and  C_15
REMARK    7  A    between atoms: C_18  and  N_19
REMARK    8  A    between atoms: N_19  and  C_20
REMARK    9  A    between atoms: N_19  and  C_21
REMARK                            x       y       z     vdW  Elec       q    Type
REMARK                         _______ _______ _______ _____ _____    ______ ____
ROOT
ATOM      1  N   UNL     1       3.151   4.799  18.979  0.00  0.00    +0.000 N 
ATOM      2  C   UNL     1       4.417   5.236  18.779  0.00  0.00    +0.000 A 
ATOM      3  N   UNL     1       5.402   5.079  19.633  0.00  0.00    +0.000 NA
ATOM      4  C   UNL     1       6.584   5.614  19.130  0.00  0.00    +0.000 A 
ATOM      5  C   UNL     1       7.813   5.361  19.932  0.00  0.00    +0.000 C 
ATOM      6  C   UNL     1       6.453   6.289  17.921  0.00  0.00    +0.000 A 
ATOM      7  S   UNL     1       4.842   6.069  17.342  0.00  0.00    +0.000 S 
ATOM      8  H   UNL     1       2.423   5.081  18.317  0.00  0.00    +0.000 HD
ENDROOT
BRANCH   1  12
ATOM      9  C   UNL     1       1.748   3.027  21.918  0.00  0.00    +0.000 C 
ATOM     10  C   UNL     1       2.439   3.226  20.598  0.00  0.00    +0.000 C 
ATOM     11  O   UNL     1       2.777   2.290  19.875  0.00  0.00    +0.000 OA
ATOM     12  N   UNL     1       2.654   4.550  20.270  0.00  0.00    +0.000 N 
ATOM     13  H   UNL     1       2.140   5.318  20.697  0.00  0.00    +0.000 HD
ENDBRANCH   1  12
BRANCH   6  14
ATOM     14  C   UNL     1       7.383   7.060  17.105  0.00  0.00    +0.000 C 
ATOM     15  O   UNL     1       7.888   6.629  16.065  0.00  0.00    +0.000 OA
BRANCH  14  16
ATOM     16  C   UNL     1       7.702   8.459  17.528  0.00  0.00    +0.000 C 
ATOM     17  C   UNL     1       8.680   8.728  18.408  0.00  0.00    +0.000 C 
BRANCH  17  18
ATOM     18  C   UNL     1       8.939  10.103  18.841  0.00  0.00    +0.000 A 
ATOM     19  C   UNL     1       8.761  11.157  17.949  0.00  0.00    +0.000 A 
ATOM     20  C   UNL     1       9.059  12.473  18.334  0.00  0.00    +0.000 A 
ATOM     21  C   UNL     1       9.530  12.800  19.618  0.00  0.00    +0.000 A 
ATOM     22  C   UNL     1       9.688  11.716  20.498  0.00  0.00    +0.000 A 
ATOM     23  C   UNL     1       9.406  10.389  20.121  0.00  0.00    +0.000 A 
BRANCH  21  24
ATOM     24  N   UNL     1       9.871  14.103  19.954  0.00  0.00    +0.000 N 
ATOM     25  C   UNL     1      11.246  14.587  19.820  0.00  0.00    +0.000 C 
ATOM     26  C   UNL     1       8.875  15.166  20.079  0.00  0.00    +0.000 C 
ENDBRANCH  21  24
ENDBRANCH  17  18
ENDBRANCH  14  16
ENDBRANCH   6  14
TORSDOF 5
ENDMDL
MODEL 5
REMARK VINA RESULT:      -7.6      6.238      7.191
REMARK  Name = 
REMARK  9 active torsions:
REMARK  status: ('A' for Active; 'I' for Inactive)
REMARK    1  A    between atoms: C_1  and  C_2
REMARK    2  A    between atoms: N_4  and  N_5
REMARK    3  A    between atoms: C_8  and  C_9
REMARK    4  A    between atoms: C_10  and  C_11
REMARK    5  A    between atoms: C_11  and  C_13
REMARK    6  A    between atoms: C_14  and  C_15
REMARK    7  A    between atoms: C_18  and  N_19
REMARK    8  A    between atoms: N_19  and  C_20
REMARK    9  A    between atoms: N_19  and  C_21
REMARK                            x       y       z     vdW  Elec       q    Type
REMARK                         _______ _______ _______ _____ _____    ______ ____
ROOT
ATOM      1  N   UNL     1       5.954   3.881  14.108  0.00  0.00    +0.000 N 
ATOM      2  C   UNL     1       6.008   4.726  15.164  0.00  0.00    +0.000 A 
ATOM      3  N   UNL     1       4.978   5.384  15.646  0.00  0.00    +0.000 NA
ATOM      4  C   UNL     1       5.349   6.150  16.746  0.00  0.00    +0.000 A 
ATOM      5  C   UNL     1       4.243   6.820  17.484  0.00  0.00    +0.000 C 
ATOM      6  C   UNL     1       6.713   6.155  17.021  0.00  0.00    +0.000 A 
ATOM      7  S   UNL     1       7.489   5.022  15.977  0.00  0.00    +0.000 S 
ATOM      8  H   UNL     1       6.830   3.518  13.723  0.00  0.00    +0.000 HD
ENDROOT
BRANCH   1  12
ATOM      9  C   UNL     1       4.064   3.475  10.944  0.00  0.00    +0.000 C 
ATOM     10  C   UNL     1       5.100   3.218  12.002  0.00  0.00    +0.000 C 
ATOM     11  O   UNL     1       6.023   2.419  11.851  0.00  0.00    +0.000 OA
ATOM     12  N   UNL     1       4.927   3.964  13.151  0.00  0.00    +0.000 N 
ATOM     13  H   UNL     1       4.364   4.811  13.183  0.00  0.00    +0.000 HD
ENDBRANCH   1  12
BRANCH   6  14
ATOM     14  C   UNL     1       7.529   6.874  17.993  0.00  0.00    +0.000 C 
ATOM     15  O   UNL     1       7.972   6.354  19.021  0.00  0.00    +0.000 OA
BRANCH  14  16
ATOM     16  C   UNL     1       7.886   8.298  17.701  0.00  0.00    +0.000 C 
ATOM     17  C   UNL     1       8.697   9.004  18.505  0.00  0.00    +0.000 C 
BRANCH  17  18
ATOM     18  C   UNL     1       8.991  10.411  18.221  0.00  0.00    +0.000 A 
ATOM     19  C   UNL     1      10.251  10.927  18.510  0.00  0.00    +0.000 A 
ATOM     20  C   UNL     1      10.530  12.286  18.296  0.00  0.00    +0.000 A 
ATOM     21  C   UNL     1       9.579  13.182  17.775  0.00  0.00    +0.000 A 
ATOM     22  C   UNL     1       8.321  12.628  17.484  0.00  0.00    +0.000 A 
ATOM     23  C   UNL     1       8.024  11.269  17.707  0.00  0.00    +0.000 A 
BRANCH  21  24
ATOM     24  N   UNL     1       9.863  14.533  17.626  0.00  0.00    +0.000 N 
ATOM     25  C   UNL     1       8.946  15.560  18.121  0.00  0.00    +0.000 C 
ATOM     26  C   UNL     1      11.211  15.023  17.342  0.00  0.00    +0.000 C 
ENDBRANCH  21  24
ENDBRANCH  17  18
ENDBRANCH  14  16
ENDBRANCH   6  14
TORSDOF 5
ENDMDL
MODEL 6
REMARK VINA RESULT:      -7.6      0.935      1.059
REMARK  Name = 
REMARK  9 active torsions:
REMARK  status: ('A' for Active; 'I' for Inactive)
REMARK    1  A    between atoms: C_1  and  C_2
REMARK    2  A    between atoms: N_4  and  N_5
REMARK    3  A    between atoms: C_8  and  C_9
REMARK    4  A    between atoms: C_10  and  C_11
REMARK    5  A    between atoms: C_11  and  C_13
REMARK    6  A    between atoms: C_14  and  C_15
REMARK    7  A    between atoms: C_18  and  N_19
REMARK    8  A    between atoms: N_19  and  C_20
REMARK    9  A    between atoms: N_19  and  C_21
REMARK                            x       y       z     vdW  Elec       q    Type
REMARK                         _______ _______ _______ _____ _____    ______ ____
ROOT
ATOM      1  N   UNL     1       6.270   3.968  16.535  0.00  0.00    +0.000 N 
ATOM      2  C   UNL     1       5.176   3.951  17.332  0.00  0.00    +0.000 A 
ATOM      3  N   UNL     1       4.123   3.190  17.136  0.00  0.00    +0.000 NA
ATOM      4  C   UNL     1       3.178   3.384  18.138  0.00  0.00    +0.000 A 
ATOM      5  C   UNL     1       2.005   2.466  18.122  0.00  0.00    +0.000 C 
ATOM      6  C   UNL     1       3.481   4.398  19.041  0.00  0.00    +0.000 A 
ATOM      7  S   UNL     1       5.074   4.972  18.707  0.00  0.00    +0.000 S 
ATOM      8  H   UNL     1       6.982   4.686  16.693  0.00  0.00    +0.000 HD
ENDROOT
BRANCH   1  12
ATOM      9  C   UNL     1       6.575   3.933  12.841  0.00  0.00    +0.000 C 
ATOM     10  C   UNL     1       6.812   4.354  14.264  0.00  0.00    +0.000 C 
ATOM     11  O   UNL     1       7.474   5.346  14.565  0.00  0.00    +0.000 OA
ATOM     12  N   UNL     1       6.214   3.533  15.200  0.00  0.00    +0.000 N 
ATOM     13  H   UNL     1       5.448   2.901  14.975  0.00  0.00    +0.000 HD
ENDBRANCH   1  12
BRANCH   6  14
ATOM     14  C   UNL     1       2.753   4.987  20.158  0.00  0.00    +0.000 C 
ATOM     15  O   UNL     1       2.391   4.341  21.145  0.00  0.00    +0.000 OA
BRANCH  14  16
ATOM     16  C   UNL     1       2.475   6.457  20.124  0.00  0.00    +0.000 C 
ATOM     17  C   UNL     1       1.945   7.053  19.044  0.00  0.00    +0.000 C 
BRANCH  17  18
ATOM     18  C   UNL     1       1.728   8.502  19.020  0.00  0.00    +0.000 A 
ATOM     19  C   UNL     1       1.098   9.126  20.093  0.00  0.00    +0.000 A 
ATOM     20  C   UNL     1       0.834  10.504  20.059  0.00  0.00    +0.000 A 
ATOM     21  C   UNL     1       1.195  11.319  18.971  0.00  0.00    +0.000 A 
ATOM     22  C   UNL     1       1.838  10.660  17.909  0.00  0.00    +0.000 A 
ATOM     23  C   UNL     1       2.097   9.276  17.924  0.00  0.00    +0.000 A 
BRANCH  21  24
ATOM     24  N   UNL     1       0.871  12.669  18.938  0.00  0.00    +0.000 N 
ATOM     25  C   UNL     1       1.885  13.699  19.167  0.00  0.00    +0.000 C 
ATOM     26  C   UNL     1      -0.353  13.165  18.311  0.00  0.00    +0.000 C 
ENDBRANCH  21  24
ENDBRANCH  17  18
ENDBRANCH  14  16
ENDBRANCH   6  14
TORSDOF 5
ENDMDL
MODEL 7
REMARK VINA RESULT:      -7.5      2.198      3.105
REMARK  Name = 
REMARK  9 active torsions:
REMARK  status: ('A' for Active; 'I' for Inactive)
REMARK    1  A    between atoms: C_1  and  C_2
REMARK    2  A    between atoms: N_4  and  N_5
REMARK    3  A    between atoms: C_8  and  C_9
REMARK    4  A    between atoms: C_10  and  C_11
REMARK    5  A    between atoms: C_11  and  C_13
REMARK    6  A    between atoms: C_14  and  C_15
REMARK    7  A    between atoms: C_18  and  N_19
REMARK    8  A    between atoms: N_19  and  C_20
REMARK    9  A    between atoms: N_19  and  C_21
REMARK                            x       y       z     vdW  Elec       q    Type
REMARK                         _______ _______ _______ _____ _____    ______ ____
ROOT
ATOM      1  N   UNL     1       5.501   3.959  13.734  0.00  0.00    +0.000 N 
ATOM      2  C   UNL     1       5.645   4.113  15.071  0.00  0.00    +0.000 A 
ATOM      3  N   UNL     1       6.800   4.189  15.691  0.00  0.00    +0.000 NA
ATOM      4  C   UNL     1       6.618   4.371  17.058  0.00  0.00    +0.000 A 
ATOM      5  C   UNL     1       7.848   4.633  17.857  0.00  0.00    +0.000 C 
ATOM      6  C   UNL     1       5.295   4.313  17.485  0.00  0.00    +0.000 A 
ATOM      7  S   UNL     1       4.275   4.214  16.097  0.00  0.00    +0.000 S 
ATOM      8  H   UNL     1       4.566   3.778  13.358  0.00  0.00    +0.000 HD
ENDROOT
BRANCH   1  12
ATOM      9  C   UNL     1       7.250   1.975  11.136  0.00  0.00    +0.000 C 
ATOM     10  C   UNL     1       6.126   2.674  11.847  0.00  0.00    +0.000 C 
ATOM     11  O   UNL     1       4.952   2.585  11.487  0.00  0.00    +0.000 OA
ATOM     12  N   UNL     1       6.526   3.416  12.941  0.00  0.00    +0.000 N 
ATOM     13  H   UNL     1       7.416   3.271  13.412  0.00  0.00    +0.000 HD
ENDBRANCH   1  12
BRANCH   6  14
ATOM     14  C   UNL     1       4.671   4.356  18.802  0.00  0.00    +0.000 C 
ATOM     15  O   UNL     1       4.970   3.585  19.718  0.00  0.00    +0.000 OA
BRANCH  14  16
ATOM     16  C   UNL     1       3.653   5.421  19.068  0.00  0.00    +0.000 C 
ATOM     17  C   UNL     1       3.643   6.576  18.385  0.00  0.00    +0.000 C 
BRANCH  17  18
ATOM     18  C   UNL     1       2.665   7.621  18.698  0.00  0.00    +0.000 A 
ATOM     19  C   UNL     1       2.078   7.666  19.960  0.00  0.00    +0.000 A 
ATOM     20  C   UNL     1       1.099   8.628  20.256  0.00  0.00    +0.000 A 
ATOM     21  C   UNL     1       0.674   9.589  19.322  0.00  0.00    +0.000 A 
ATOM     22  C   UNL     1       1.292   9.524  18.062  0.00  0.00    +0.000 A 
ATOM     23  C   UNL     1       2.266   8.556  17.748  0.00  0.00    +0.000 A 
BRANCH  21  24
ATOM     24  N   UNL     1      -0.337  10.492  19.623  0.00  0.00    +0.000 N 
ATOM     25  C   UNL     1      -1.440  10.734  18.692  0.00  0.00    +0.000 C 
ATOM     26  C   UNL     1      -0.594  10.954  20.985  0.00  0.00    +0.000 C 
ENDBRANCH  21  24
ENDBRANCH  17  18
ENDBRANCH  14  16
ENDBRANCH   6  14
TORSDOF 5
ENDMDL
MODEL 8
REMARK VINA RESULT:      -7.4      1.147      1.642
REMARK  Name = 
REMARK  9 active torsions:
REMARK  status: ('A' for Active; 'I' for Inactive)
REMARK    1  A    between atoms: C_1  and  C_2
REMARK    2  A    between atoms: N_4  and  N_5
REMARK    3  A    between atoms: C_8  and  C_9
REMARK    4  A    between atoms: C_10  and  C_11
REMARK    5  A    between atoms: C_11  and  C_13
REMARK    6  A    between atoms: C_14  and  C_15
REMARK    7  A    between atoms: C_18  and  N_19
REMARK    8  A    between atoms: N_19  and  C_20
REMARK    9  A    between atoms: N_19  and  C_21
REMARK                            x       y       z     vdW  Elec       q    Type
REMARK                         _______ _______ _______ _____ _____    ______ ____
ROOT
ATOM      1  N   UNL     1       6.202   3.873  17.099  0.00  0.00    +0.000 N 
ATOM      2  C   UNL     1       5.006   4.132  17.676  0.00  0.00    +0.000 A 
ATOM      3  N   UNL     1       3.842   3.926  17.104  0.00  0.00    +0.000 NA
ATOM      4  C   UNL     1       2.800   4.267  17.960  0.00  0.00    +0.000 A 
ATOM      5  C   UNL     1       1.427   3.931  17.492  0.00  0.00    +0.000 C 
ATOM      6  C   UNL     1       3.196   4.852  19.159  0.00  0.00    +0.000 A 
ATOM      7  S   UNL     1       4.918   4.786  19.259  0.00  0.00    +0.000 S 
ATOM      8  H   UNL     1       7.055   4.188  17.570  0.00  0.00    +0.000 HD
ENDROOT
BRANCH   1  12
ATOM      9  C   UNL     1       6.930   4.814  13.587  0.00  0.00    +0.000 C 
ATOM     10  C   UNL     1       6.960   4.868  15.089  0.00  0.00    +0.000 C 
ATOM     11  O   UNL     1       7.481   5.791  15.713  0.00  0.00    +0.000 OA
ATOM     12  N   UNL     1       6.344   3.795  15.702  0.00  0.00    +0.000 N 
ATOM     13  H   UNL     1       5.675   3.193  15.226  0.00  0.00    +0.000 HD
ENDBRANCH   1  12
BRANCH   6  14
ATOM     14  C   UNL     1       2.459   5.432  20.275  0.00  0.00    +0.000 C 
ATOM     15  O   UNL     1       2.235   4.826  21.326  0.00  0.00    +0.000 OA
BRANCH  14  16
ATOM     16  C   UNL     1       1.995   6.850  20.154  0.00  0.00    +0.000 C 
ATOM     17  C   UNL     1       1.369   7.478  21.162  0.00  0.00    +0.000 C 
BRANCH  17  18
ATOM     18  C   UNL     1       0.882   8.851  21.001  0.00  0.00    +0.000 A 
ATOM     19  C   UNL     1       1.011   9.492  19.772  0.00  0.00    +0.000 A 
ATOM     20  C   UNL     1       0.600  10.825  19.618  0.00  0.00    +0.000 A 
ATOM     21  C   UNL     1       0.032  11.569  20.668  0.00  0.00    +0.000 A 
ATOM     22  C   UNL     1      -0.094  10.890  21.892  0.00  0.00    +0.000 A 
ATOM     23  C   UNL     1       0.327   9.557  22.063  0.00  0.00    +0.000 A 
BRANCH  21  24
ATOM     24  N   UNL     1      -0.313  12.904  20.504  0.00  0.00    +0.000 N 
ATOM     25  C   UNL     1      -1.480  13.294  19.710  0.00  0.00    +0.000 C 
ATOM     26  C   UNL     1       0.186  13.956  21.387  0.00  0.00    +0.000 C 
ENDBRANCH  21  24
ENDBRANCH  17  18
ENDBRANCH  14  16
ENDBRANCH   6  14
TORSDOF 5
ENDMDL
MODEL 9
REMARK VINA RESULT:      -7.3      6.046      7.621
REMARK  Name = 
REMARK  9 active torsions:
REMARK  status: ('A' for Active; 'I' for Inactive)
REMARK    1  A    between atoms: C_1  and  C_2
REMARK    2  A    between atoms: N_4  and  N_5
REMARK    3  A    between atoms: C_8  and  C_9
REMARK    4  A    between atoms: C_10  and  C_11
REMARK    5  A    between atoms: C_11  and  C_13
REMARK    6  A    between atoms: C_14  and  C_15
REMARK    7  A    between atoms: C_18  and  N_19
REMARK    8  A    between atoms: N_19  and  C_20
REMARK    9  A    between atoms: N_19  and  C_21
REMARK                            x       y       z     vdW  Elec       q    Type
REMARK                         _______ _______ _______ _____ _____    ______ ____
ROOT
ATOM      1  N   UNL     1       4.854   3.142  19.636  0.00  0.00    +0.000 N 
ATOM      2  C   UNL     1       5.206   4.259  18.958  0.00  0.00    +0.000 A 
ATOM      3  N   UNL     1       4.356   5.093  18.404  0.00  0.00    +0.000 NA
ATOM      4  C   UNL     1       5.024   6.156  17.804  0.00  0.00    +0.000 A 
ATOM      5  C   UNL     1       4.170   7.256  17.277  0.00  0.00    +0.000 C 
ATOM      6  C   UNL     1       6.411   6.053  17.809  0.00  0.00    +0.000 A 
ATOM      7  S   UNL     1       6.856   4.680  18.754  0.00  0.00    +0.000 S 
ATOM      8  H   UNL     1       5.587   2.485  19.918  0.00  0.00    +0.000 HD
ENDROOT
BRANCH   1  12
ATOM      9  C   UNL     1       1.324   2.116  20.120  0.00  0.00    +0.000 C 
ATOM     10  C   UNL     1       2.580   2.930  20.259  0.00  0.00    +0.000 C 
ATOM     11  O   UNL     1       2.681   3.872  21.044  0.00  0.00    +0.000 OA
ATOM     12  N   UNL     1       3.609   2.520  19.434  0.00  0.00    +0.000 N 
ATOM     13  H   UNL     1       3.643   1.597  19.007  0.00  0.00    +0.000 HD
ENDBRANCH   1  12
BRANCH   6  14
ATOM     14  C   UNL     1       7.472   6.866  17.226  0.00  0.00    +0.000 C 
ATOM     15  O   UNL     1       7.917   6.684  16.090  0.00  0.00    +0.000 OA
BRANCH  14  16
ATOM     16  C   UNL     1       8.011   8.007  18.030  0.00  0.00    +0.000 C 
ATOM     17  C   UNL     1       8.096   9.249  17.529  0.00  0.00    +0.000 C 
BRANCH  17  18
ATOM     18  C   UNL     1       8.673  10.338  18.321  0.00  0.00    +0.000 A 
ATOM     19  C   UNL     1       8.636  11.643  17.837  0.00  0.00    +0.000 A 
ATOM     20  C   UNL     1       9.233  12.688  18.560  0.00  0.00    +0.000 A 
ATOM     21  C   UNL     1       9.876  12.485  19.794  0.00  0.00    +0.000 A 
ATOM     22  C   UNL     1       9.887  11.159  20.260  0.00  0.00    +0.000 A 
ATOM     23  C   UNL     1       9.303  10.100  19.539  0.00  0.00    +0.000 A 
BRANCH  21  24
ATOM     24  N   UNL     1      10.508  13.526  20.460  0.00  0.00    +0.000 N 
ATOM     25  C   UNL     1      11.660  14.214  19.875  0.00  0.00    +0.000 C 
ATOM     26  C   UNL     1       9.872  14.255  21.556  0.00  0.00    +0.000 C 
ENDBRANCH  21  24
ENDBRANCH  17  18
ENDBRANCH  14  16
ENDBRANCH   6  14
TORSDOF 5
ENDMDL
