MODEL 1
REMARK VINA RESULT:      -8.6      0.000      0.000
REMARK  Name = 
REMARK  7 active torsions:
REMARK  status: ('A' for Active; 'I' for Inactive)
REMARK    1  A    between atoms: C_1  and  C_2
REMARK    2  A    between atoms: C_3  and  N_4
REMARK    3  A    between atoms: C_5  and  C_7
REMARK    4  A    between atoms: C_7  and  C_8
REMARK    5  A    between atoms: C_8  and  N_9
REMARK    6  A    between atoms: C_10  and  C_12
REMARK    7  A    between atoms: C_20  and  C_21
REMARK                            x       y       z     vdW  Elec       q    Type
REMARK                         _______ _______ _______ _____ _____    ______ ____
ROOT
ATOM      1  C   UNL     1       0.398   7.645  21.213  0.00  0.00    +0.000 C 
ATOM      2  C   UNL     1       1.226   8.238  20.103  0.00  0.00    +0.000 A 
ATOM      3  C   UNL     1       2.241   7.446  19.513  0.00  0.00    +0.000 A 
ATOM      4  C   UNL     1       2.740   7.767  18.247  0.00  0.00    +0.000 A 
ATOM      5  C   UNL     1       2.350   8.947  17.623  0.00  0.00    +0.000 A 
ATOM      6  C   UNL     1       1.481   9.819  18.278  0.00  0.00    +0.000 A 
ATOM      7  C   UNL     1       0.921   9.493  19.532  0.00  0.00    +0.000 A 
ENDROOT
BRANCH   7   8
ATOM      8  C   UNL     1      -0.097  10.467  20.046  0.00  0.00    +0.000 C 
ATOM      9  O   UNL     1       0.132  10.947  21.161  0.00  0.00    +0.000 OA
ATOM     10  N   UNL     1      -1.258  10.809  19.337  0.00  0.00    +0.000 N 
ATOM     11  C   UNL     1      -1.636  10.311  18.003  0.00  0.00    +0.000 C 
ATOM     12  C   UNL     1      -3.139  10.060  17.824  0.00  0.00    +0.000 C 
ATOM     13  C   UNL     1      -3.904  11.185  18.423  0.00  0.00    +0.000 A 
ATOM     14  S   UNL     1      -5.532  11.490  18.045  0.00  0.00    +0.000 S 
ATOM     15  C   UNL     1      -5.583  12.816  19.126  0.00  0.00    +0.000 A 
ATOM     16  C   UNL     1      -4.372  13.017  19.755  0.00  0.00    +0.000 A 
ATOM     17  C   UNL     1      -3.380  12.065  19.348  0.00  0.00    +0.000 A 
ATOM     18  C   UNL     1      -1.960  12.011  19.824  0.00  0.00    +0.000 C 
ENDBRANCH   7   8
BRANCH   3  19
ATOM     19  N   UNL     1       2.774   6.292  20.143  0.00  0.00    +0.000 N 
ATOM     20  C   UNL     1       2.332   5.015  19.804  0.00  0.00    +0.000 C 
ATOM     21  O   UNL     1       1.497   4.764  18.941  0.00  0.00    +0.000 OA
ATOM     22  H   UNL     1       3.053   6.399  21.111  0.00  0.00    +0.000 HD
BRANCH  20  23
ATOM     23  C   UNL     1       2.988   3.926  20.635  0.00  0.00    +0.000 C 
BRANCH  23  24
ATOM     24  C   UNL     1       4.006   3.146  19.800  0.00  0.00    +0.000 C 
BRANCH  24  25
ATOM     25  N   UNL     1       4.374   3.791  18.552  0.00  0.00    +0.000 N 
ATOM     26  C   UNL     1       5.503   4.579  18.446  0.00  0.00    +0.000 C 
ATOM     27  O   UNL     1       6.168   4.921  19.418  0.00  0.00    +0.000 OA
ATOM     28  H   UNL     1       3.958   3.438  17.699  0.00  0.00    +0.000 HD
BRANCH  26  29
ATOM     29  C   UNL     1       5.831   5.000  17.018  0.00  0.00    +0.000 C 
ATOM     30  C   UNL     1       7.167   4.453  16.524  0.00  0.00    +0.000 C 
ATOM     31  C   UNL     1       7.084   4.598  15.012  0.00  0.00    +0.000 C 
ATOM     32  C   UNL     1       5.606   4.432  14.667  0.00  0.00    +0.000 C 
ATOM     33  C   UNL     1       4.849   4.434  15.994  0.00  0.00    +0.000 C 
ENDBRANCH  26  29
ENDBRANCH  24  25
ENDBRANCH  23  24
ENDBRANCH  20  23
ENDBRANCH   3  19
TORSDOF 6
ENDMDL
MODEL 2
REMARK VINA RESULT:      -8.5      1.056      1.236
REMARK  Name = 
REMARK  7 active torsions:
REMARK  status: ('A' for Active; 'I' for Inactive)
REMARK    1  A    between atoms: C_1  and  C_2
REMARK    2  A    between atoms: C_3  and  N_4
REMARK    3  A    between atoms: C_5  and  C_7
REMARK    4  A    between atoms: C_7  and  C_8
REMARK    5  A    between atoms: C_8  and  N_9
REMARK    6  A    between atoms: C_10  and  C_12
REMARK    7  A    between atoms: C_20  and  C_21
REMARK                            x       y       z     vdW  Elec       q    Type
REMARK                         _______ _______ _______ _____ _____    ______ ____
ROOT
ATOM      1  C   UNL     1       0.002   8.004  21.351  0.00  0.00    +0.000 C 
ATOM      2  C   UNL     1       0.876   8.559  20.257  0.00  0.00    +0.000 A 
ATOM      3  C   UNL     1       1.924   7.753  19.748  0.00  0.00    +0.000 A 
ATOM      4  C   UNL     1       2.480   8.027  18.495  0.00  0.00    +0.000 A 
ATOM      5  C   UNL     1       2.111   9.177  17.805  0.00  0.00    +0.000 A 
ATOM      6  C   UNL     1       1.205  10.066  18.382  0.00  0.00    +0.000 A 
ATOM      7  C   UNL     1       0.589   9.786  19.620  0.00  0.00    +0.000 A 
ENDROOT
BRANCH   7   8
ATOM      8  C   UNL     1      -0.460  10.771  20.045  0.00  0.00    +0.000 C 
ATOM      9  O   UNL     1      -0.243  11.366  21.105  0.00  0.00    +0.000 OA
ATOM     10  N   UNL     1      -1.635  11.001  19.316  0.00  0.00    +0.000 N 
ATOM     11  C   UNL     1      -2.003  10.362  18.040  0.00  0.00    +0.000 C 
ATOM     12  C   UNL     1      -3.497  10.043  17.899  0.00  0.00    +0.000 C 
ATOM     13  C   UNL     1      -4.298  11.195  18.392  0.00  0.00    +0.000 A 
ATOM     14  S   UNL     1      -5.937  11.405  17.998  0.00  0.00    +0.000 S 
ATOM     15  C   UNL     1      -6.029  12.829  18.945  0.00  0.00    +0.000 A 
ATOM     16  C   UNL     1      -4.823  13.132  19.542  0.00  0.00    +0.000 A 
ATOM     17  C   UNL     1      -3.801  12.179  19.221  0.00  0.00    +0.000 A 
ATOM     18  C   UNL     1      -2.377  12.221  19.688  0.00  0.00    +0.000 C 
ENDBRANCH   7   8
BRANCH   3  19
ATOM     19  N   UNL     1       2.436   6.632  20.450  0.00  0.00    +0.000 N 
ATOM     20  C   UNL     1       2.093   5.332  20.084  0.00  0.00    +0.000 C 
ATOM     21  O   UNL     1       1.371   5.034  19.137  0.00  0.00    +0.000 OA
ATOM     22  H   UNL     1       2.600   6.761  21.442  0.00  0.00    +0.000 HD
BRANCH  20  23
ATOM     23  C   UNL     1       2.702   4.284  20.997  0.00  0.00    +0.000 C 
BRANCH  23  24
ATOM     24  C   UNL     1       3.588   3.322  20.204  0.00  0.00    +0.000 C 
BRANCH  24  25
ATOM     25  N   UNL     1       4.106   3.872  18.964  0.00  0.00    +0.000 N 
ATOM     26  C   UNL     1       4.015   3.184  17.770  0.00  0.00    +0.000 C 
ATOM     27  O   UNL     1       3.651   2.014  17.703  0.00  0.00    +0.000 OA
ATOM     28  H   UNL     1       4.279   4.869  18.927  0.00  0.00    +0.000 HD
BRANCH  26  29
ATOM     29  C   UNL     1       4.426   4.004  16.552  0.00  0.00    +0.000 C 
ATOM     30  C   UNL     1       4.521   5.499  16.841  0.00  0.00    +0.000 C 
ATOM     31  C   UNL     1       5.347   6.043  15.685  0.00  0.00    +0.000 C 
ATOM     32  C   UNL     1       6.295   4.913  15.294  0.00  0.00    +0.000 C 
ATOM     33  C   UNL     1       5.837   3.676  16.067  0.00  0.00    +0.000 C 
ENDBRANCH  26  29
ENDBRANCH  24  25
ENDBRANCH  23  24
ENDBRANCH  20  23
ENDBRANCH   3  19
TORSDOF 6
ENDMDL
MODEL 3
REMARK VINA RESULT:      -8.0      2.651      3.337
REMARK  Name = 
REMARK  7 active torsions:
REMARK  status: ('A' for Active; 'I' for Inactive)
REMARK    1  A    between atoms: C_1  and  C_2
REMARK    2  A    between atoms: C_3  and  N_4
REMARK    3  A    between atoms: C_5  and  C_7
REMARK    4  A    between atoms: C_7  and  C_8
REMARK    5  A    between atoms: C_8  and  N_9
REMARK    6  A    between atoms: C_10  and  C_12
REMARK    7  A    between atoms: C_20  and  C_21
REMARK                            x       y       z     vdW  Elec       q    Type
REMARK                         _______ _______ _______ _____ _____    ______ ____
ROOT
ATOM      1  C   UNL     1       0.292   8.351  21.450  0.00  0.00    +0.000 C 
ATOM      2  C   UNL     1       1.110   8.681  20.229  0.00  0.00    +0.000 A 
ATOM      3  C   UNL     1       1.998   7.703  19.719  0.00  0.00    +0.000 A 
ATOM      4  C   UNL     1       2.452   7.781  18.399  0.00  0.00    +0.000 A 
ATOM      5  C   UNL     1       2.152   8.897  17.625  0.00  0.00    +0.000 A 
ATOM      6  C   UNL     1       1.421   9.946  18.180  0.00  0.00    +0.000 A 
ATOM      7  C   UNL     1       0.906   9.868  19.492  0.00  0.00    +0.000 A 
ENDROOT
BRANCH   7   8
ATOM      8  C   UNL     1       0.030  11.015  19.899  0.00  0.00    +0.000 C 
ATOM      9  O   UNL     1      -1.185  10.840  19.761  0.00  0.00    +0.000 OA
ATOM     10  N   UNL     1       0.534  12.230  20.384  0.00  0.00    +0.000 N 
ATOM     11  C   UNL     1       1.955  12.555  20.599  0.00  0.00    +0.000 C 
ATOM     12  C   UNL     1       2.332  14.003  20.260  0.00  0.00    +0.000 C 
ATOM     13  C   UNL     1       1.289  14.922  20.788  0.00  0.00    +0.000 A 
ATOM     14  S   UNL     1       1.560  16.586  21.003  0.00  0.00    +0.000 S 
ATOM     15  C   UNL     1      -0.044  16.821  21.555  0.00  0.00    +0.000 A 
ATOM     16  C   UNL     1      -0.762  15.644  21.576  0.00  0.00    +0.000 A 
ATOM     17  C   UNL     1       0.013  14.524  21.129  0.00  0.00    +0.000 A 
ATOM     18  C   UNL     1      -0.456  13.103  21.044  0.00  0.00    +0.000 C 
ENDBRANCH   7   8
BRANCH   3  19
ATOM     19  N   UNL     1       2.443   6.598  20.490  0.00  0.00    +0.000 N 
ATOM     20  C   UNL     1       2.050   5.297  20.182  0.00  0.00    +0.000 C 
ATOM     21  O   UNL     1       1.335   4.983  19.234  0.00  0.00    +0.000 OA
ATOM     22  H   UNL     1       2.591   6.771  21.477  0.00  0.00    +0.000 HD
BRANCH  20  23
ATOM     23  C   UNL     1       2.589   4.272  21.162  0.00  0.00    +0.000 C 
BRANCH  23  24
ATOM     24  C   UNL     1       3.401   3.199  20.434  0.00  0.00    +0.000 C 
BRANCH  24  25
ATOM     25  N   UNL     1       3.819   3.574  19.094  0.00  0.00    +0.000 N 
ATOM     26  C   UNL     1       5.070   4.103  18.845  0.00  0.00    +0.000 C 
ATOM     27  O   UNL     1       5.837   4.444  19.739  0.00  0.00    +0.000 OA
ATOM     28  H   UNL     1       3.300   3.189  18.314  0.00  0.00    +0.000 HD
BRANCH  26  29
ATOM     29  C   UNL     1       5.397   4.242  17.363  0.00  0.00    +0.000 C 
ATOM     30  C   UNL     1       4.712   5.438  16.708  0.00  0.00    +0.000 C 
ATOM     31  C   UNL     1       5.496   5.649  15.421  0.00  0.00    +0.000 C 
ATOM     32  C   UNL     1       6.922   5.204  15.734  0.00  0.00    +0.000 C 
ATOM     33  C   UNL     1       6.875   4.533  17.106  0.00  0.00    +0.000 C 
ENDBRANCH  26  29
ENDBRANCH  24  25
ENDBRANCH  23  24
ENDBRANCH  20  23
ENDBRANCH   3  19
TORSDOF 6
ENDMDL
MODEL 4
REMARK VINA RESULT:      -8.0      2.768      3.336
REMARK  Name = 
REMARK  7 active torsions:
REMARK  status: ('A' for Active; 'I' for Inactive)
REMARK    1  A    between atoms: C_1  and  C_2
REMARK    2  A    between atoms: C_3  and  N_4
REMARK    3  A    between atoms: C_5  and  C_7
REMARK    4  A    between atoms: C_7  and  C_8
REMARK    5  A    between atoms: C_8  and  N_9
REMARK    6  A    between atoms: C_10  and  C_12
REMARK    7  A    between atoms: C_20  and  C_21
REMARK                            x       y       z     vdW  Elec       q    Type
REMARK                         _______ _______ _______ _____ _____    ______ ____
ROOT
ATOM      1  C   UNL     1       0.489   8.168  21.446  0.00  0.00    +0.000 C 
ATOM      2  C   UNL     1       1.290   8.389  20.190  0.00  0.00    +0.000 A 
ATOM      3  C   UNL     1       2.109   7.338  19.709  0.00  0.00    +0.000 A 
ATOM      4  C   UNL     1       2.530   7.324  18.376  0.00  0.00    +0.000 A 
ATOM      5  C   UNL     1       2.272   8.415  17.553  0.00  0.00    +0.000 A 
ATOM      6  C   UNL     1       1.615   9.530  18.071  0.00  0.00    +0.000 A 
ATOM      7  C   UNL     1       1.133   9.548  19.397  0.00  0.00    +0.000 A 
ENDROOT
BRANCH   7   8
ATOM      8  C   UNL     1       0.333  10.761  19.766  0.00  0.00    +0.000 C 
ATOM      9  O   UNL     1      -0.825  10.550  20.139  0.00  0.00    +0.000 OA
ATOM     10  N   UNL     1       0.835  12.068  19.675  0.00  0.00    +0.000 N 
ATOM     11  C   UNL     1       2.195  12.445  19.251  0.00  0.00    +0.000 C 
ATOM     12  C   UNL     1       2.263  13.728  18.412  0.00  0.00    +0.000 C 
ATOM     13  C   UNL     1       1.376  14.760  19.012  0.00  0.00    +0.000 A 
ATOM     14  S   UNL     1       1.516  16.412  18.644  0.00  0.00    +0.000 S 
ATOM     15  C   UNL     1       0.194  16.797  19.661  0.00  0.00    +0.000 A 
ATOM     16  C   UNL     1      -0.334  15.677  20.269  0.00  0.00    +0.000 A 
ATOM     17  C   UNL     1       0.355  14.477  19.895  0.00  0.00    +0.000 A 
ATOM     18  C   UNL     1       0.049  13.094  20.385  0.00  0.00    +0.000 C 
ENDBRANCH   7   8
BRANCH   3  19
ATOM     19  N   UNL     1       2.513   6.250  20.525  0.00  0.00    +0.000 N 
ATOM     20  C   UNL     1       1.864   5.018  20.459  0.00  0.00    +0.000 C 
ATOM     21  O   UNL     1       0.939   4.749  19.698  0.00  0.00    +0.000 OA
ATOM     22  H   UNL     1       2.874   6.487  21.441  0.00  0.00    +0.000 HD
BRANCH  20  23
ATOM     23  C   UNL     1       2.413   4.011  21.453  0.00  0.00    +0.000 C 
BRANCH  23  24
ATOM     24  C   UNL     1       3.235   2.936  20.738  0.00  0.00    +0.000 C 
BRANCH  24  25
ATOM     25  N   UNL     1       4.260   3.459  19.852  0.00  0.00    +0.000 N 
ATOM     26  C   UNL     1       4.117   3.432  18.479  0.00  0.00    +0.000 C 
ATOM     27  O   UNL     1       3.211   2.825  17.917  0.00  0.00    +0.000 OA
ATOM     28  H   UNL     1       4.947   4.091  20.247  0.00  0.00    +0.000 HD
BRANCH  26  29
ATOM     29  C   UNL     1       5.197   4.205  17.731  0.00  0.00    +0.000 C 
ATOM     30  C   UNL     1       4.687   4.857  16.449  0.00  0.00    +0.000 C 
ATOM     31  C   UNL     1       5.747   5.900  16.123  0.00  0.00    +0.000 C 
ATOM     32  C   UNL     1       6.300   6.354  17.471  0.00  0.00    +0.000 C 
ATOM     33  C   UNL     1       5.722   5.403  18.519  0.00  0.00    +0.000 C 
ENDBRANCH  26  29
ENDBRANCH  24  25
ENDBRANCH  23  24
ENDBRANCH  20  23
ENDBRANCH   3  19
TORSDOF 6
ENDMDL
MODEL 5
REMARK VINA RESULT:      -7.9      2.973      3.942
REMARK  Name = 
REMARK  7 active torsions:
REMARK  status: ('A' for Active; 'I' for Inactive)
REMARK    1  A    between atoms: C_1  and  C_2
REMARK    2  A    between atoms: C_3  and  N_4
REMARK    3  A    between atoms: C_5  and  C_7
REMARK    4  A    between atoms: C_7  and  C_8
REMARK    5  A    between atoms: C_8  and  N_9
REMARK    6  A    between atoms: C_10  and  C_12
REMARK    7  A    between atoms: C_20  and  C_21
REMARK                            x       y       z     vdW  Elec       q    Type
REMARK                         _______ _______ _______ _____ _____    ______ ____
ROOT
ATOM      1  C   UNL     1       2.129   9.797  17.683  0.00  0.00    +0.000 C 
ATOM      2  C   UNL     1       1.468   9.181  18.888  0.00  0.00    +0.000 A 
ATOM      3  C   UNL     1       1.985   7.967  19.403  0.00  0.00    +0.000 A 
ATOM      4  C   UNL     1       1.701   7.579  20.716  0.00  0.00    +0.000 A 
ATOM      5  C   UNL     1       0.791   8.306  21.476  0.00  0.00    +0.000 A 
ATOM      6  C   UNL     1       0.145   9.406  20.912  0.00  0.00    +0.000 A 
ATOM      7  C   UNL     1       0.454   9.850  19.609  0.00  0.00    +0.000 A 
ENDROOT
BRANCH   7   8
ATOM      8  C   UNL     1      -0.224  11.122  19.194  0.00  0.00    +0.000 C 
ATOM      9  O   UNL     1      -1.337  10.994  18.674  0.00  0.00    +0.000 OA
ATOM     10  N   UNL     1       0.359  12.388  19.351  0.00  0.00    +0.000 N 
ATOM     11  C   UNL     1       1.671  12.669  19.959  0.00  0.00    +0.000 C 
ATOM     12  C   UNL     1       2.453  13.803  19.284  0.00  0.00    +0.000 C 
ATOM     13  C   UNL     1       1.531  14.933  18.991  0.00  0.00    +0.000 A 
ATOM     14  S   UNL     1       2.086  16.505  18.664  0.00  0.00    +0.000 S 
ATOM     15  C   UNL     1       0.487  17.069  18.428  0.00  0.00    +0.000 A 
ATOM     16  C   UNL     1      -0.446  16.068  18.603  0.00  0.00    +0.000 A 
ATOM     17  C   UNL     1       0.158  14.811  18.936  0.00  0.00    +0.000 A 
ATOM     18  C   UNL     1      -0.566  13.528  19.207  0.00  0.00    +0.000 C 
ENDBRANCH   7   8
BRANCH   3  19
ATOM     19  N   UNL     1       2.825   7.111  18.645  0.00  0.00    +0.000 N 
ATOM     20  C   UNL     1       2.625   5.732  18.628  0.00  0.00    +0.000 C 
ATOM     21  O   UNL     1       1.722   5.144  19.215  0.00  0.00    +0.000 OA
ATOM     22  H   UNL     1       3.792   7.398  18.555  0.00  0.00    +0.000 HD
BRANCH  20  23
ATOM     23  C   UNL     1       3.666   4.997  17.803  0.00  0.00    +0.000 C 
BRANCH  23  24
ATOM     24  C   UNL     1       4.525   5.984  17.010  0.00  0.00    +0.000 C 
BRANCH  24  25
ATOM     25  N   UNL     1       5.105   5.432  15.799  0.00  0.00    +0.000 N 
ATOM     26  C   UNL     1       6.298   4.736  15.816  0.00  0.00    +0.000 C 
ATOM     27  O   UNL     1       7.021   4.681  16.806  0.00  0.00    +0.000 OA
ATOM     28  H   UNL     1       4.499   5.318  14.995  0.00  0.00    +0.000 HD
BRANCH  26  29
ATOM     29  C   UNL     1       6.640   4.063  14.492  0.00  0.00    +0.000 C 
ATOM     30  C   UNL     1       5.409   3.741  13.649  0.00  0.00    +0.000 C 
ATOM     31  C   UNL     1       5.972   3.513  12.254  0.00  0.00    +0.000 C 
ATOM     32  C   UNL     1       7.195   4.420  12.154  0.00  0.00    +0.000 C 
ATOM     33  C   UNL     1       7.446   4.965  13.559  0.00  0.00    +0.000 C 
ENDBRANCH  26  29
ENDBRANCH  24  25
ENDBRANCH  23  24
ENDBRANCH  20  23
ENDBRANCH   3  19
TORSDOF 6
ENDMDL
MODEL 6
REMARK VINA RESULT:      -7.8      2.787      3.209
REMARK  Name = 
REMARK  7 active torsions:
REMARK  status: ('A' for Active; 'I' for Inactive)
REMARK    1  A    between atoms: C_1  and  C_2
REMARK    2  A    between atoms: C_3  and  N_4
REMARK    3  A    between atoms: C_5  and  C_7
REMARK    4  A    between atoms: C_7  and  C_8
REMARK    5  A    between atoms: C_8  and  N_9
REMARK    6  A    between atoms: C_10  and  C_12
REMARK    7  A    between atoms: C_20  and  C_21
REMARK                            x       y       z     vdW  Elec       q    Type
REMARK                         _______ _______ _______ _____ _____    ______ ____
ROOT
ATOM      1  C   UNL     1       1.637   6.399  20.991  0.00  0.00    +0.000 C 
ATOM      2  C   UNL     1       1.921   7.468  19.968  0.00  0.00    +0.000 A 
ATOM      3  C   UNL     1       2.849   7.193  18.934  0.00  0.00    +0.000 A 
ATOM      4  C   UNL     1       2.841   7.949  17.759  0.00  0.00    +0.000 A 
ATOM      5  C   UNL     1       2.022   9.069  17.656  0.00  0.00    +0.000 A 
ATOM      6  C   UNL     1       1.231   9.446  18.740  0.00  0.00    +0.000 A 
ATOM      7  C   UNL     1       1.180   8.670  19.918  0.00  0.00    +0.000 A 
ENDROOT
BRANCH   7   8
ATOM      8  C   UNL     1       0.184   9.130  20.940  0.00  0.00    +0.000 C 
ATOM      9  O   UNL     1      -0.583   8.265  21.373  0.00  0.00    +0.000 OA
ATOM     10  N   UNL     1       0.091  10.461  21.374  0.00  0.00    +0.000 N 
ATOM     11  C   UNL     1       0.949  11.577  20.938  0.00  0.00    +0.000 C 
ATOM     12  C   UNL     1       0.217  12.917  20.788  0.00  0.00    +0.000 C 
ATOM     13  C   UNL     1      -0.699  13.113  21.943  0.00  0.00    +0.000 A 
ATOM     14  S   UNL     1      -1.333  14.633  22.360  0.00  0.00    +0.000 S 
ATOM     15  C   UNL     1      -2.223  13.956  23.656  0.00  0.00    +0.000 A 
ATOM     16  C   UNL     1      -2.028  12.594  23.763  0.00  0.00    +0.000 A 
ATOM     17  C   UNL     1      -1.134  12.091  22.762  0.00  0.00    +0.000 A 
ATOM     18  C   UNL     1      -0.696  10.667  22.604  0.00  0.00    +0.000 C 
ENDBRANCH   7   8
BRANCH   3  19
ATOM     19  N   UNL     1       3.797   6.141  19.018  0.00  0.00    +0.000 N 
ATOM     20  C   UNL     1       3.584   4.924  18.372  0.00  0.00    +0.000 C 
ATOM     21  O   UNL     1       2.613   4.660  17.669  0.00  0.00    +0.000 OA
ATOM     22  H   UNL     1       4.315   6.072  19.886  0.00  0.00    +0.000 HD
BRANCH  20  23
ATOM     23  C   UNL     1       4.689   3.917  18.637  0.00  0.00    +0.000 C 
BRANCH  23  24
ATOM     24  C   UNL     1       5.957   4.288  17.865  0.00  0.00    +0.000 C 
BRANCH  24  25
ATOM     25  N   UNL     1       5.767   4.412  16.430  0.00  0.00    +0.000 N 
ATOM     26  C   UNL     1       6.626   5.156  15.645  0.00  0.00    +0.000 C 
ATOM     27  O   UNL     1       7.492   5.886  16.116  0.00  0.00    +0.000 OA
ATOM     28  H   UNL     1       5.173   3.732  15.973  0.00  0.00    +0.000 HD
BRANCH  26  29
ATOM     29  C   UNL     1       6.384   5.002  14.149  0.00  0.00    +0.000 C 
ATOM     30  C   UNL     1       7.674   4.961  13.334  0.00  0.00    +0.000 C 
ATOM     31  C   UNL     1       7.244   4.371  11.999  0.00  0.00    +0.000 C 
ATOM     32  C   UNL     1       6.091   3.425  12.323  0.00  0.00    +0.000 C 
ATOM     33  C   UNL     1       5.729   3.670  13.788  0.00  0.00    +0.000 C 
ENDBRANCH  26  29
ENDBRANCH  24  25
ENDBRANCH  23  24
ENDBRANCH  20  23
ENDBRANCH   3  19
TORSDOF 6
ENDMDL
MODEL 7
REMARK VINA RESULT:      -7.8      2.572      4.383
REMARK  Name = 
REMARK  7 active torsions:
REMARK  status: ('A' for Active; 'I' for Inactive)
REMARK    1  A    between atoms: C_1  and  C_2
REMARK    2  A    between atoms: C_3  and  N_4
REMARK    3  A    between atoms: C_5  and  C_7
REMARK    4  A    between atoms: C_7  and  C_8
REMARK    5  A    between atoms: C_8  and  N_9
REMARK    6  A    between atoms: C_10  and  C_12
REMARK    7  A    between atoms: C_20  and  C_21
REMARK                            x       y       z     vdW  Elec       q    Type
REMARK                         _______ _______ _______ _____ _____    ______ ____
ROOT
ATOM      1  C   UNL     1      -1.101  10.090  19.761  0.00  0.00    +0.000 C 
ATOM      2  C   UNL     1      -0.037  11.110  20.074  0.00  0.00    +0.000 A 
ATOM      3  C   UNL     1       1.046  11.263  19.174  0.00  0.00    +0.000 A 
ATOM      4  C   UNL     1       1.810  12.434  19.182  0.00  0.00    +0.000 A 
ATOM      5  C   UNL     1       1.606  13.392  20.169  0.00  0.00    +0.000 A 
ATOM      6  C   UNL     1       0.655  13.166  21.164  0.00  0.00    +0.000 A 
ATOM      7  C   UNL     1      -0.166  12.019  21.148  0.00  0.00    +0.000 A 
ENDROOT
BRANCH   7   8
ATOM      8  C   UNL     1      -1.228  11.983  22.205  0.00  0.00    +0.000 C 
ATOM      9  O   UNL     1      -0.911  11.442  23.270  0.00  0.00    +0.000 OA
ATOM     10  N   UNL     1      -2.517  12.501  22.015  0.00  0.00    +0.000 N 
ATOM     11  C   UNL     1      -3.011  13.171  20.800  0.00  0.00    +0.000 C 
ATOM     12  C   UNL     1      -4.471  12.855  20.451  0.00  0.00    +0.000 C 
ATOM     13  C   UNL     1      -5.295  12.894  21.688  0.00  0.00    +0.000 A 
ATOM     14  S   UNL     1      -6.988  13.036  21.655  0.00  0.00    +0.000 S 
ATOM     15  C   UNL     1      -7.072  12.962  23.363  0.00  0.00    +0.000 A 
ATOM     16  C   UNL     1      -5.825  12.837  23.938  0.00  0.00    +0.000 A 
ATOM     17  C   UNL     1      -4.776  12.798  22.962  0.00  0.00    +0.000 A 
ATOM     18  C   UNL     1      -3.309  12.685  23.246  0.00  0.00    +0.000 C 
ENDBRANCH   7   8
BRANCH   3  19
ATOM     19  N   UNL     1       1.390  10.274  18.217  0.00  0.00    +0.000 N 
ATOM     20  C   UNL     1       1.840   9.015  18.609  0.00  0.00    +0.000 C 
ATOM     21  O   UNL     1       1.951   8.636  19.772  0.00  0.00    +0.000 OA
ATOM     22  H   UNL     1       1.785  10.611  17.347  0.00  0.00    +0.000 HD
BRANCH  20  23
ATOM     23  C   UNL     1       2.208   8.129  17.432  0.00  0.00    +0.000 C 
BRANCH  23  24
ATOM     24  C   UNL     1       3.373   7.206  17.791  0.00  0.00    +0.000 C 
BRANCH  24  25
ATOM     25  N   UNL     1       2.975   5.961  18.425  0.00  0.00    +0.000 N 
ATOM     26  C   UNL     1       3.841   5.246  19.230  0.00  0.00    +0.000 C 
ATOM     27  O   UNL     1       5.033   5.516  19.328  0.00  0.00    +0.000 OA
ATOM     28  H   UNL     1       1.984   5.767  18.500  0.00  0.00    +0.000 HD
BRANCH  26  29
ATOM     29  C   UNL     1       3.182   4.084  19.963  0.00  0.00    +0.000 C 
ATOM     30  C   UNL     1       2.014   4.515  20.844  0.00  0.00    +0.000 C 
ATOM     31  C   UNL     1       1.255   3.222  21.104  0.00  0.00    +0.000 C 
ATOM     32  C   UNL     1       1.465   2.368  19.857  0.00  0.00    +0.000 C 
ATOM     33  C   UNL     1       2.524   3.082  19.017  0.00  0.00    +0.000 C 
ENDBRANCH  26  29
ENDBRANCH  24  25
ENDBRANCH  23  24
ENDBRANCH  20  23
ENDBRANCH   3  19
TORSDOF 6
ENDMDL
MODEL 8
REMARK VINA RESULT:      -7.8      3.242      4.166
REMARK  Name = 
REMARK  7 active torsions:
REMARK  status: ('A' for Active; 'I' for Inactive)
REMARK    1  A    between atoms: C_1  and  C_2
REMARK    2  A    between atoms: C_3  and  N_4
REMARK    3  A    between atoms: C_5  and  C_7
REMARK    4  A    between atoms: C_7  and  C_8
REMARK    5  A    between atoms: C_8  and  N_9
REMARK    6  A    between atoms: C_10  and  C_12
REMARK    7  A    between atoms: C_20  and  C_21
REMARK                            x       y       z     vdW  Elec       q    Type
REMARK                         _______ _______ _______ _____ _____    ______ ____
ROOT
ATOM      1  C   UNL     1       1.776   9.518  17.843  0.00  0.00    +0.000 C 
ATOM      2  C   UNL     1       1.271   9.259  19.238  0.00  0.00    +0.000 A 
ATOM      3  C   UNL     1       1.684   8.078  19.904  0.00  0.00    +0.000 A 
ATOM      4  C   UNL     1       1.600   7.988  21.297  0.00  0.00    +0.000 A 
ATOM      5  C   UNL     1       0.975   8.995  22.024  0.00  0.00    +0.000 A 
ATOM      6  C   UNL     1       0.411  10.080  21.355  0.00  0.00    +0.000 A 
ATOM      7  C   UNL     1       0.530  10.223  19.956  0.00  0.00    +0.000 A 
ENDROOT
BRANCH   7   8
ATOM      8  C   UNL     1      -0.011  11.506  19.400  0.00  0.00    +0.000 C 
ATOM      9  O   UNL     1      -1.104  11.428  18.829  0.00  0.00    +0.000 OA
ATOM     10  N   UNL     1       0.672  12.728  19.486  0.00  0.00    +0.000 N 
ATOM     11  C   UNL     1       1.972  12.948  20.145  0.00  0.00    +0.000 C 
ATOM     12  C   UNL     1       2.884  13.951  19.426  0.00  0.00    +0.000 C 
ATOM     13  C   UNL     1       2.082  15.124  18.988  0.00  0.00    +0.000 A 
ATOM     14  S   UNL     1       2.790  16.610  18.567  0.00  0.00    +0.000 S 
ATOM     15  C   UNL     1       1.262  17.284  18.193  0.00  0.00    +0.000 A 
ATOM     16  C   UNL     1       0.236  16.384  18.395  0.00  0.00    +0.000 A 
ATOM     17  C   UNL     1       0.709  15.114  18.864  0.00  0.00    +0.000 A 
ATOM     18  C   UNL     1      -0.140  13.924  19.197  0.00  0.00    +0.000 C 
ENDBRANCH   7   8
BRANCH   3  19
ATOM     19  N   UNL     1       2.221   6.961  19.216  0.00  0.00    +0.000 N 
ATOM     20  C   UNL     1       2.007   5.661  19.670  0.00  0.00    +0.000 C 
ATOM     21  O   UNL     1       1.333   5.359  20.651  0.00  0.00    +0.000 OA
ATOM     22  H   UNL     1       3.112   7.104  18.755  0.00  0.00    +0.000 HD
BRANCH  20  23
ATOM     23  C   UNL     1       2.715   4.618  18.824  0.00  0.00    +0.000 C 
BRANCH  23  24
ATOM     24  C   UNL     1       3.949   4.078  19.549  0.00  0.00    +0.000 C 
BRANCH  24  25
ATOM     25  N   UNL     1       5.188   4.752  19.201  0.00  0.00    +0.000 N 
ATOM     26  C   UNL     1       5.722   4.681  17.930  0.00  0.00    +0.000 C 
ATOM     27  O   UNL     1       5.288   3.923  17.069  0.00  0.00    +0.000 OA
ATOM     28  H   UNL     1       5.507   5.495  19.811  0.00  0.00    +0.000 HD
BRANCH  26  29
ATOM     29  C   UNL     1       6.907   5.612  17.705  0.00  0.00    +0.000 C 
ATOM     30  C   UNL     1       6.500   6.984  17.177  0.00  0.00    +0.000 C 
ATOM     31  C   UNL     1       7.716   7.857  17.449  0.00  0.00    +0.000 C 
ATOM     32  C   UNL     1       8.354   7.284  18.712  0.00  0.00    +0.000 C 
ATOM     33  C   UNL     1       7.637   5.966  19.000  0.00  0.00    +0.000 C 
ENDBRANCH  26  29
ENDBRANCH  24  25
ENDBRANCH  23  24
ENDBRANCH  20  23
ENDBRANCH   3  19
TORSDOF 6
ENDMDL
MODEL 9
REMARK VINA RESULT:      -7.8      0.999      1.307
REMARK  Name = 
REMARK  7 active torsions:
REMARK  status: ('A' for Active; 'I' for Inactive)
REMARK    1  A    between atoms: C_1  and  C_2
REMARK    2  A    between atoms: C_3  and  N_4
REMARK    3  A    between atoms: C_5  and  C_7
REMARK    4  A    between atoms: C_7  and  C_8
REMARK    5  A    between atoms: C_8  and  N_9
REMARK    6  A    between atoms: C_10  and  C_12
REMARK    7  A    between atoms: C_20  and  C_21
REMARK                            x       y       z     vdW  Elec       q    Type
REMARK                         _______ _______ _______ _____ _____    ______ ____
ROOT
ATOM      1  C   UNL     1       0.143   8.403  21.658  0.00  0.00    +0.000 C 
ATOM      2  C   UNL     1       1.008   8.831  20.502  0.00  0.00    +0.000 A 
ATOM      3  C   UNL     1       1.786   7.854  19.834  0.00  0.00    +0.000 A 
ATOM      4  C   UNL     1       2.262   8.093  18.542  0.00  0.00    +0.000 A 
ATOM      5  C   UNL     1       2.102   9.346  17.961  0.00  0.00    +0.000 A 
ATOM      6  C   UNL     1       1.487  10.368  18.684  0.00  0.00    +0.000 A 
ATOM      7  C   UNL     1       0.950  10.137  19.968  0.00  0.00    +0.000 A 
ENDROOT
BRANCH   7   8
ATOM      8  C   UNL     1       0.204  11.296  20.561  0.00  0.00    +0.000 C 
ATOM      9  O   UNL     1       0.732  11.830  21.542  0.00  0.00    +0.000 OA
ATOM     10  N   UNL     1      -1.030  11.746  20.070  0.00  0.00    +0.000 N 
ATOM     11  C   UNL     1      -1.753  11.197  18.909  0.00  0.00    +0.000 C 
ATOM     12  C   UNL     1      -3.278  11.162  19.072  0.00  0.00    +0.000 C 
ATOM     13  C   UNL     1      -3.740  12.439  19.679  0.00  0.00    +0.000 A 
ATOM     14  S   UNL     1      -5.358  12.952  19.608  0.00  0.00    +0.000 S 
ATOM     15  C   UNL     1      -4.999  14.359  20.513  0.00  0.00    +0.000 A 
ATOM     16  C   UNL     1      -3.664  14.429  20.854  0.00  0.00    +0.000 A 
ATOM     17  C   UNL     1      -2.917  13.306  20.367  0.00  0.00    +0.000 A 
ATOM     18  C   UNL     1      -1.447  13.079  20.545  0.00  0.00    +0.000 C 
ENDBRANCH   7   8
BRANCH   3  19
ATOM     19  N   UNL     1       2.093   6.595  20.413  0.00  0.00    +0.000 N 
ATOM     20  C   UNL     1       2.030   5.422  19.664  0.00  0.00    +0.000 C 
ATOM     21  O   UNL     1       1.748   5.361  18.471  0.00  0.00    +0.000 OA
ATOM     22  H   UNL     1       1.859   6.483  21.392  0.00  0.00    +0.000 HD
BRANCH  20  23
ATOM     23  C   UNL     1       2.340   4.183  20.486  0.00  0.00    +0.000 C 
BRANCH  23  24
ATOM     24  C   UNL     1       3.736   3.650  20.158  0.00  0.00    +0.000 C 
BRANCH  24  25
ATOM     25  N   UNL     1       4.133   3.828  18.772  0.00  0.00    +0.000 N 
ATOM     26  C   UNL     1       5.405   4.242  18.428  0.00  0.00    +0.000 C 
ATOM     27  O   UNL     1       6.219   4.642  19.253  0.00  0.00    +0.000 OA
ATOM     28  H   UNL     1       3.567   3.384  18.059  0.00  0.00    +0.000 HD
BRANCH  26  29
ATOM     29  C   UNL     1       5.692   4.175  16.933  0.00  0.00    +0.000 C 
ATOM     30  C   UNL     1       4.939   5.231  16.130  0.00  0.00    +0.000 C 
ATOM     31  C   UNL     1       5.683   5.282  14.804  0.00  0.00    +0.000 C 
ATOM     32  C   UNL     1       7.135   4.949  15.138  0.00  0.00    +0.000 C 
ATOM     33  C   UNL     1       7.149   4.486  16.594  0.00  0.00    +0.000 C 
ENDBRANCH  26  29
ENDBRANCH  24  25
ENDBRANCH  23  24
ENDBRANCH  20  23
ENDBRANCH   3  19
TORSDOF 6
ENDMDL
