MODEL 1
REMARK VINA RESULT:      -7.6      0.000      0.000
REMARK  Name = 
REMARK  7 active torsions:
REMARK  status: ('A' for Active; 'I' for Inactive)
REMARK    1  A    between atoms: C_1  and  C_2
REMARK    2  A    between atoms: C_6  and  N_7
REMARK    3  A    between atoms: C_8  and  C_10
REMARK    4  A    between atoms: C_10  and  C_11
REMARK    5  A    between atoms: C_11  and  N_12
REMARK    6  A    between atoms: C_13  and  C_15
REMARK    7  A    between atoms: C_22  and  C_23
REMARK                            x       y       z     vdW  Elec       q    Type
REMARK                         _______ _______ _______ _____ _____    ______ ____
ROOT
ATOM      1  C   UNL     1       2.151   1.937  18.672  0.00  0.00    +0.000 C 
ENDROOT
BRANCH   1   3
ATOM      2  N   UNL     1       4.203   3.031  17.921  0.00  0.00    +0.000 N 
ATOM      3  C   UNL     1       2.841   2.882  17.708  0.00  0.00    +0.000 C 
ATOM      4  O   UNL     1       2.151   3.452  16.862  0.00  0.00    +0.000 OA
ATOM      5  H   UNL     1       4.606   2.481  18.663  0.00  0.00    +0.000 HD
BRANCH   2  11
ATOM      6  C   UNL     1       7.416   6.943  17.638  0.00  0.00    +0.000 C 
ATOM      7  C   UNL     1       6.657   5.777  17.044  0.00  0.00    +0.000 A 
ATOM      8  C   UNL     1       6.861   5.501  15.689  0.00  0.00    +0.000 A 
ATOM      9  C   UNL     1       6.208   4.442  15.086  0.00  0.00    +0.000 A 
ATOM     10  C   UNL     1       5.346   3.643  15.833  0.00  0.00    +0.000 A 
ATOM     11  C   UNL     1       5.100   3.878  17.194  0.00  0.00    +0.000 A 
ATOM     12  C   UNL     1       5.764   4.970  17.816  0.00  0.00    +0.000 A 
ATOM     13  C   UNL     1       5.580   5.346  19.270  0.00  0.00    +0.000 C 
ENDBRANCH   2  11
ENDBRANCH   1   3
BRANCH   1  14
ATOM     14  C   UNL     1       1.508   2.753  19.780  0.00  0.00    +0.000 C 
BRANCH  14  15
ATOM     15  N   UNL     1       1.388   4.166  19.469  0.00  0.00    +0.000 N 
ATOM     16  C   UNL     1       1.949   5.092  20.334  0.00  0.00    +0.000 C 
ATOM     17  O   UNL     1       2.514   4.781  21.377  0.00  0.00    +0.000 OA
ATOM     18  H   UNL     1       1.179   4.452  18.521  0.00  0.00    +0.000 HD
BRANCH  16  19
ATOM     19  C   UNL     1       1.858   6.523  19.936  0.00  0.00    +0.000 A 
ATOM     20  C   UNL     1       2.274   6.955  18.672  0.00  0.00    +0.000 A 
ATOM     21  C   UNL     1       2.149   8.301  18.316  0.00  0.00    +0.000 A 
ATOM     22  C   UNL     1       1.600   9.210  19.220  0.00  0.00    +0.000 A 
ATOM     23 BR   UNL     1       1.427  11.027  18.728  0.00  0.00    +0.000 Br
ATOM     24  C   UNL     1       1.168   8.787  20.477  0.00  0.00    +0.000 A 
ATOM     25  C   UNL     1       1.291   7.442  20.833  0.00  0.00    +0.000 A 
ENDBRANCH  16  19
ENDBRANCH  14  15
ENDBRANCH   1  14
TORSDOF 5
ENDMDL
MODEL 2
REMARK VINA RESULT:      -7.3      5.482      7.842
REMARK  Name = 
REMARK  7 active torsions:
REMARK  status: ('A' for Active; 'I' for Inactive)
REMARK    1  A    between atoms: C_1  and  C_2
REMARK    2  A    between atoms: C_6  and  N_7
REMARK    3  A    between atoms: C_8  and  C_10
REMARK    4  A    between atoms: C_10  and  C_11
REMARK    5  A    between atoms: C_11  and  N_12
REMARK    6  A    between atoms: C_13  and  C_15
REMARK    7  A    between atoms: C_22  and  C_23
REMARK                            x       y       z     vdW  Elec       q    Type
REMARK                         _______ _______ _______ _____ _____    ______ ____
ROOT
ATOM      1  C   UNL     1       8.410   8.029  18.302  0.00  0.00    +0.000 C 
ENDROOT
BRANCH   1   3
ATOM      2  N   UNL     1       9.379   9.819  19.655  0.00  0.00    +0.000 N 
ATOM      3  C   UNL     1       8.607   9.512  18.544  0.00  0.00    +0.000 C 
ATOM      4  O   UNL     1       8.054  10.303  17.779  0.00  0.00    +0.000 OA
ATOM      5  H   UNL     1       9.758   9.039  20.169  0.00  0.00    +0.000 HD
BRANCH   2  11
ATOM      6  C   UNL     1      12.037  14.132  19.472  0.00  0.00    +0.000 C 
ATOM      7  C   UNL     1      10.989  13.220  20.069  0.00  0.00    +0.000 A 
ATOM      8  C   UNL     1      10.275  13.697  21.171  0.00  0.00    +0.000 A 
ATOM      9  C   UNL     1       9.294  12.919  21.758  0.00  0.00    +0.000 A 
ATOM     10  C   UNL     1       9.012  11.656  21.246  0.00  0.00    +0.000 A 
ATOM     11  C   UNL     1       9.702  11.125  20.145  0.00  0.00    +0.000 A 
ATOM     12  C   UNL     1      10.716  11.918  19.543  0.00  0.00    +0.000 A 
ATOM     13  C   UNL     1      11.546  11.465  18.363  0.00  0.00    +0.000 C 
ENDBRANCH   2  11
ENDBRANCH   1   3
BRANCH   1  14
ATOM     14  C   UNL     1       7.338   7.845  17.242  0.00  0.00    +0.000 C 
BRANCH  14  15
ATOM     15  N   UNL     1       6.252   6.975  17.655  0.00  0.00    +0.000 N 
ATOM     16  C   UNL     1       5.394   6.473  16.690  0.00  0.00    +0.000 C 
ATOM     17  O   UNL     1       5.480   6.756  15.500  0.00  0.00    +0.000 OA
ATOM     18  H   UNL     1       6.299   6.510  18.552  0.00  0.00    +0.000 HD
BRANCH  16  19
ATOM     19  C   UNL     1       4.338   5.532  17.155  0.00  0.00    +0.000 A 
ATOM     20  C   UNL     1       4.409   4.163  16.874  0.00  0.00    +0.000 A 
ATOM     21  C   UNL     1       3.418   3.299  17.349  0.00  0.00    +0.000 A 
ATOM     22  C   UNL     1       2.364   3.803  18.111  0.00  0.00    +0.000 A 
ATOM     23 BR   UNL     1       1.033   2.626  18.756  0.00  0.00    +0.000 Br
ATOM     24  C   UNL     1       2.293   5.163  18.409  0.00  0.00    +0.000 A 
ATOM     25  C   UNL     1       3.284   6.027  17.936  0.00  0.00    +0.000 A 
ENDBRANCH  16  19
ENDBRANCH  14  15
ENDBRANCH   1  14
TORSDOF 5
ENDMDL
MODEL 3
REMARK VINA RESULT:      -7.3      0.418      1.093
REMARK  Name = 
REMARK  7 active torsions:
REMARK  status: ('A' for Active; 'I' for Inactive)
REMARK    1  A    between atoms: C_1  and  C_2
REMARK    2  A    between atoms: C_6  and  N_7
REMARK    3  A    between atoms: C_8  and  C_10
REMARK    4  A    between atoms: C_10  and  C_11
REMARK    5  A    between atoms: C_11  and  N_12
REMARK    6  A    between atoms: C_13  and  C_15
REMARK    7  A    between atoms: C_22  and  C_23
REMARK                            x       y       z     vdW  Elec       q    Type
REMARK                         _______ _______ _______ _____ _____    ______ ____
ROOT
ATOM      1  C   UNL     1       2.734   1.814  18.952  0.00  0.00    +0.000 C 
ENDROOT
BRANCH   1   3
ATOM      2  N   UNL     1       4.591   3.143  18.082  0.00  0.00    +0.000 N 
ATOM      3  C   UNL     1       3.282   2.731  17.877  0.00  0.00    +0.000 C 
ATOM      4  O   UNL     1       2.534   3.055  16.954  0.00  0.00    +0.000 OA
ATOM      5  H   UNL     1       5.057   2.774  18.896  0.00  0.00    +0.000 HD
BRANCH   2  11
ATOM      6  C   UNL     1       7.564   7.198  17.439  0.00  0.00    +0.000 C 
ATOM      7  C   UNL     1       6.792   6.000  16.933  0.00  0.00    +0.000 A 
ATOM      8  C   UNL     1       6.841   5.737  15.562  0.00  0.00    +0.000 A 
ATOM      9  C   UNL     1       6.169   4.650  15.035  0.00  0.00    +0.000 A 
ATOM     10  C   UNL     1       5.442   3.811  15.875  0.00  0.00    +0.000 A 
ATOM     11  C   UNL     1       5.353   4.032  17.258  0.00  0.00    +0.000 A 
ATOM     12  C   UNL     1       6.038   5.152  17.803  0.00  0.00    +0.000 A 
ATOM     13  C   UNL     1       6.015   5.517  19.271  0.00  0.00    +0.000 C 
ENDBRANCH   2  11
ENDBRANCH   1   3
BRANCH   1  14
ATOM     14  C   UNL     1       1.523   2.476  19.586  0.00  0.00    +0.000 C 
BRANCH  14  15
ATOM     15  N   UNL     1       1.405   3.890  19.282  0.00  0.00    +0.000 N 
ATOM     16  C   UNL     1       2.056   4.806  20.093  0.00  0.00    +0.000 C 
ATOM     17  O   UNL     1       2.701   4.486  21.085  0.00  0.00    +0.000 OA
ATOM     18  H   UNL     1       1.121   4.179  18.354  0.00  0.00    +0.000 HD
BRANCH  16  19
ATOM     19  C   UNL     1       1.959   6.238  19.700  0.00  0.00    +0.000 A 
ATOM     20  C   UNL     1       1.481   7.206  20.590  0.00  0.00    +0.000 A 
ATOM     21  C   UNL     1       1.430   8.548  20.204  0.00  0.00    +0.000 A 
ATOM     22  C   UNL     1       1.865   8.922  18.932  0.00  0.00    +0.000 A 
ATOM     23 BR   UNL     1       1.799  10.741  18.420  0.00  0.00    +0.000 Br
ATOM     24  C   UNL     1       2.357   7.967  18.043  0.00  0.00    +0.000 A 
ATOM     25  C   UNL     1       2.411   6.626  18.429  0.00  0.00    +0.000 A 
ENDBRANCH  16  19
ENDBRANCH  14  15
ENDBRANCH   1  14
TORSDOF 5
ENDMDL
MODEL 4
REMARK VINA RESULT:      -7.2      2.628      5.856
REMARK  Name = 
REMARK  7 active torsions:
REMARK  status: ('A' for Active; 'I' for Inactive)
REMARK    1  A    between atoms: C_1  and  C_2
REMARK    2  A    between atoms: C_6  and  N_7
REMARK    3  A    between atoms: C_8  and  C_10
REMARK    4  A    between atoms: C_10  and  C_11
REMARK    5  A    between atoms: C_11  and  N_12
REMARK    6  A    between atoms: C_13  and  C_15
REMARK    7  A    between atoms: C_22  and  C_23
REMARK                            x       y       z     vdW  Elec       q    Type
REMARK                         _______ _______ _______ _____ _____    ______ ____
ROOT
ATOM      1  C   UNL     1       2.654   3.337  20.503  0.00  0.00    +0.000 C 
ENDROOT
BRANCH   1   3
ATOM      2  N   UNL     1       2.629   5.737  20.041  0.00  0.00    +0.000 N 
ATOM      3  C   UNL     1       2.228   4.483  19.606  0.00  0.00    +0.000 C 
ATOM      4  O   UNL     1       1.551   4.219  18.611  0.00  0.00    +0.000 OA
ATOM      5  H   UNL     1       3.185   5.766  20.882  0.00  0.00    +0.000 HD
BRANCH   2  11
ATOM      6  C   UNL     1       0.472  10.324  20.023  0.00  0.00    +0.000 C 
ATOM      7  C   UNL     1       1.298   9.222  19.399  0.00  0.00    +0.000 A 
ATOM      8  C   UNL     1       1.831   9.459  18.130  0.00  0.00    +0.000 A 
ATOM      9  C   UNL     1       2.605   8.498  17.507  0.00  0.00    +0.000 A 
ATOM     10  C   UNL     1       2.859   7.289  18.149  0.00  0.00    +0.000 A 
ATOM     11  C   UNL     1       2.344   6.996  19.421  0.00  0.00    +0.000 A 
ATOM     12  C   UNL     1       1.542   7.978  20.062  0.00  0.00    +0.000 A 
ATOM     13  C   UNL     1       0.911   7.789  21.424  0.00  0.00    +0.000 C 
ENDBRANCH   2  11
ENDBRANCH   1   3
BRANCH   1  14
ATOM     14  C   UNL     1       4.130   3.061  20.273  0.00  0.00    +0.000 C 
BRANCH  14  15
ATOM     15  N   UNL     1       4.546   3.223  18.891  0.00  0.00    +0.000 N 
ATOM     16  C   UNL     1       5.350   4.300  18.557  0.00  0.00    +0.000 C 
ATOM     17  O   UNL     1       5.702   5.153  19.365  0.00  0.00    +0.000 OA
ATOM     18  H   UNL     1       4.511   2.430  18.264  0.00  0.00    +0.000 HD
BRANCH  16  19
ATOM     19  C   UNL     1       5.806   4.385  17.143  0.00  0.00    +0.000 A 
ATOM     20  C   UNL     1       4.926   4.151  16.080  0.00  0.00    +0.000 A 
ATOM     21  C   UNL     1       5.374   4.267  14.762  0.00  0.00    +0.000 A 
ATOM     22  C   UNL     1       6.698   4.625  14.507  0.00  0.00    +0.000 A 
ATOM     23 BR   UNL     1       7.294   4.787  12.721  0.00  0.00    +0.000 Br
ATOM     24  C   UNL     1       7.579   4.874  15.559  0.00  0.00    +0.000 A 
ATOM     25  C   UNL     1       7.131   4.761  16.877  0.00  0.00    +0.000 A 
ENDBRANCH  16  19
ENDBRANCH  14  15
ENDBRANCH   1  14
TORSDOF 5
ENDMDL
MODEL 5
REMARK VINA RESULT:      -7.0      2.690      6.102
REMARK  Name = 
REMARK  7 active torsions:
REMARK  status: ('A' for Active; 'I' for Inactive)
REMARK    1  A    between atoms: C_1  and  C_2
REMARK    2  A    between atoms: C_6  and  N_7
REMARK    3  A    between atoms: C_8  and  C_10
REMARK    4  A    between atoms: C_10  and  C_11
REMARK    5  A    between atoms: C_11  and  N_12
REMARK    6  A    between atoms: C_13  and  C_15
REMARK    7  A    between atoms: C_22  and  C_23
REMARK                            x       y       z     vdW  Elec       q    Type
REMARK                         _______ _______ _______ _____ _____    ______ ____
ROOT
ATOM      1  C   UNL     1       2.878   2.919  20.275  0.00  0.00    +0.000 C 
ENDROOT
BRANCH   1   3
ATOM      2  N   UNL     1       2.600   5.343  20.423  0.00  0.00    +0.000 N 
ATOM      3  C   UNL     1       2.110   4.165  19.879  0.00  0.00    +0.000 C 
ATOM      4  O   UNL     1       1.121   4.032  19.157  0.00  0.00    +0.000 OA
ATOM      5  H   UNL     1       3.427   5.265  20.995  0.00  0.00    +0.000 HD
BRANCH   2  11
ATOM      6  C   UNL     1       1.982   9.613  17.762  0.00  0.00    +0.000 C 
ATOM      7  C   UNL     1       1.759   8.737  18.975  0.00  0.00    +0.000 A 
ATOM      8  C   UNL     1       0.956   9.249  19.997  0.00  0.00    +0.000 A 
ATOM      9  C   UNL     1       0.701   8.496  21.128  0.00  0.00    +0.000 A 
ATOM     10  C   UNL     1       1.244   7.220  21.248  0.00  0.00    +0.000 A 
ATOM     11  C   UNL     1       2.062   6.659  20.255  0.00  0.00    +0.000 A 
ATOM     12  C   UNL     1       2.332   7.432  19.094  0.00  0.00    +0.000 A 
ATOM     13  C   UNL     1       3.208   6.959  17.955  0.00  0.00    +0.000 C 
ENDBRANCH   2  11
ENDBRANCH   1   3
BRANCH   1  14
ATOM     14  C   UNL     1       4.358   3.165  20.042  0.00  0.00    +0.000 C 
BRANCH  14  15
ATOM     15  N   UNL     1       4.709   3.337  18.644  0.00  0.00    +0.000 N 
ATOM     16  C   UNL     1       5.589   4.348  18.294  0.00  0.00    +0.000 C 
ATOM     17  O   UNL     1       6.062   5.137  19.104  0.00  0.00    +0.000 OA
ATOM     18  H   UNL     1       4.566   2.572  17.996  0.00  0.00    +0.000 HD
BRANCH  16  19
ATOM     19  C   UNL     1       5.969   4.440  16.859  0.00  0.00    +0.000 A 
ATOM     20  C   UNL     1       7.236   4.890  16.469  0.00  0.00    +0.000 A 
ATOM     21  C   UNL     1       7.575   4.938  15.114  0.00  0.00    +0.000 A 
ATOM     22  C   UNL     1       6.653   4.529  14.152  0.00  0.00    +0.000 A 
ATOM     23 BR   UNL     1       7.123   4.590  12.322  0.00  0.00    +0.000 Br
ATOM     24  C   UNL     1       5.393   4.065  14.530  0.00  0.00    +0.000 A 
ATOM     25  C   UNL     1       5.054   4.014  15.885  0.00  0.00    +0.000 A 
ENDBRANCH  16  19
ENDBRANCH  14  15
ENDBRANCH   1  14
TORSDOF 5
ENDMDL
MODEL 6
REMARK VINA RESULT:      -7.0      5.571      8.068
REMARK  Name = 
REMARK  7 active torsions:
REMARK  status: ('A' for Active; 'I' for Inactive)
REMARK    1  A    between atoms: C_1  and  C_2
REMARK    2  A    between atoms: C_6  and  N_7
REMARK    3  A    between atoms: C_8  and  C_10
REMARK    4  A    between atoms: C_10  and  C_11
REMARK    5  A    between atoms: C_11  and  N_12
REMARK    6  A    between atoms: C_13  and  C_15
REMARK    7  A    between atoms: C_22  and  C_23
REMARK                            x       y       z     vdW  Elec       q    Type
REMARK                         _______ _______ _______ _____ _____    ______ ____
ROOT
ATOM      1  C   UNL     1       8.455   8.043  18.428  0.00  0.00    +0.000 C 
ENDROOT
BRANCH   1   3
ATOM      2  N   UNL     1       9.443   9.886  19.693  0.00  0.00    +0.000 N 
ATOM      3  C   UNL     1       8.659   9.535  18.604  0.00  0.00    +0.000 C 
ATOM      4  O   UNL     1       8.101  10.294  17.811  0.00  0.00    +0.000 OA
ATOM      5  H   UNL     1       9.824   9.128  20.237  0.00  0.00    +0.000 HD
BRANCH   2  11
ATOM      6  C   UNL     1      12.078  14.196  19.271  0.00  0.00    +0.000 C 
ATOM      7  C   UNL     1      11.051  13.304  19.932  0.00  0.00    +0.000 A 
ATOM      8  C   UNL     1      10.367  13.821  21.036  0.00  0.00    +0.000 A 
ATOM      9  C   UNL     1       9.406  13.064  21.679  0.00  0.00    +0.000 A 
ATOM     10  C   UNL     1       9.114  11.781  21.224  0.00  0.00    +0.000 A 
ATOM     11  C   UNL     1       9.775  11.210  20.124  0.00  0.00    +0.000 A 
ATOM     12  C   UNL     1      10.768  11.983  19.464  0.00  0.00    +0.000 A 
ATOM     13  C   UNL     1      11.566  11.488  18.279  0.00  0.00    +0.000 C 
ENDBRANCH   2  11
ENDBRANCH   1   3
BRANCH   1  14
ATOM     14  C   UNL     1       7.557   7.813  17.225  0.00  0.00    +0.000 C 
BRANCH  14  15
ATOM     15  N   UNL     1       6.417   6.959  17.504  0.00  0.00    +0.000 N 
ATOM     16  C   UNL     1       6.582   5.584  17.449  0.00  0.00    +0.000 C 
ATOM     17  O   UNL     1       7.638   5.045  17.138  0.00  0.00    +0.000 OA
ATOM     18  H   UNL     1       5.625   7.333  18.011  0.00  0.00    +0.000 HD
BRANCH  16  19
ATOM     19  C   UNL     1       5.401   4.752  17.809  0.00  0.00    +0.000 A 
ATOM     20  C   UNL     1       5.205   4.293  19.116  0.00  0.00    +0.000 A 
ATOM     21  C   UNL     1       4.072   3.538  19.431  0.00  0.00    +0.000 A 
ATOM     22  C   UNL     1       3.133   3.250  18.441  0.00  0.00    +0.000 A 
ATOM     23 BR   UNL     1       1.599   2.234  18.877  0.00  0.00    +0.000 Br
ATOM     24  C   UNL     1       3.311   3.715  17.139  0.00  0.00    +0.000 A 
ATOM     25  C   UNL     1       4.443   4.472  16.823  0.00  0.00    +0.000 A 
ENDBRANCH  16  19
ENDBRANCH  14  15
ENDBRANCH   1  14
TORSDOF 5
ENDMDL
MODEL 7
REMARK VINA RESULT:      -7.0      5.514      7.797
REMARK  Name = 
REMARK  7 active torsions:
REMARK  status: ('A' for Active; 'I' for Inactive)
REMARK    1  A    between atoms: C_1  and  C_2
REMARK    2  A    between atoms: C_6  and  N_7
REMARK    3  A    between atoms: C_8  and  C_10
REMARK    4  A    between atoms: C_10  and  C_11
REMARK    5  A    between atoms: C_11  and  N_12
REMARK    6  A    between atoms: C_13  and  C_15
REMARK    7  A    between atoms: C_22  and  C_23
REMARK                            x       y       z     vdW  Elec       q    Type
REMARK                         _______ _______ _______ _____ _____    ______ ____
ROOT
ATOM      1  C   UNL     1       8.350   8.025  18.489  0.00  0.00    +0.000 C 
ENDROOT
BRANCH   1   3
ATOM      2  N   UNL     1       9.661   9.912  19.320  0.00  0.00    +0.000 N 
ATOM      3  C   UNL     1       8.676   9.504  18.433  0.00  0.00    +0.000 C 
ATOM      4  O   UNL     1       8.037  10.209  17.652  0.00  0.00    +0.000 OA
ATOM      5  H   UNL     1      10.083   9.193  19.887  0.00  0.00    +0.000 HD
BRANCH   2  11
ATOM      6  C   UNL     1       9.863  14.266  21.909  0.00  0.00    +0.000 C 
ATOM      7  C   UNL     1      10.250  13.363  20.759  0.00  0.00    +0.000 A 
ATOM      8  C   UNL     1      11.160  13.867  19.826  0.00  0.00    +0.000 A 
ATOM      9  C   UNL     1      11.566  13.090  18.756  0.00  0.00    +0.000 A 
ATOM     10  C   UNL     1      11.068  11.798  18.610  0.00  0.00    +0.000 A 
ATOM     11  C   UNL     1      10.148  11.245  19.513  0.00  0.00    +0.000 A 
ATOM     12  C   UNL     1       9.723  12.042  20.610  0.00  0.00    +0.000 A 
ATOM     13  C   UNL     1       8.726  11.578  21.649  0.00  0.00    +0.000 C 
ENDBRANCH   2  11
ENDBRANCH   1   3
BRANCH   1  14
ATOM     14  C   UNL     1       7.363   7.700  17.381  0.00  0.00    +0.000 C 
BRANCH  14  15
ATOM     15  N   UNL     1       6.272   6.842  17.804  0.00  0.00    +0.000 N 
ATOM     16  C   UNL     1       5.343   6.428  16.863  0.00  0.00    +0.000 C 
ATOM     17  O   UNL     1       5.371   6.781  15.689  0.00  0.00    +0.000 OA
ATOM     18  H   UNL     1       6.353   6.321  18.668  0.00  0.00    +0.000 HD
BRANCH  16  19
ATOM     19  C   UNL     1       4.282   5.495  17.332  0.00  0.00    +0.000 A 
ATOM     20  C   UNL     1       3.173   5.956  18.050  0.00  0.00    +0.000 A 
ATOM     21  C   UNL     1       2.178   5.060  18.452  0.00  0.00    +0.000 A 
ATOM     22  C   UNL     1       2.288   3.709  18.128  0.00  0.00    +0.000 A 
ATOM     23 BR   UNL     1       0.934   2.505  18.668  0.00  0.00    +0.000 Br
ATOM     24  C   UNL     1       3.381   3.242  17.399  0.00  0.00    +0.000 A 
ATOM     25  C   UNL     1       4.376   4.136  16.995  0.00  0.00    +0.000 A 
ENDBRANCH  16  19
ENDBRANCH  14  15
ENDBRANCH   1  14
TORSDOF 5
ENDMDL
MODEL 8
REMARK VINA RESULT:      -7.0      3.562      5.555
REMARK  Name = 
REMARK  7 active torsions:
REMARK  status: ('A' for Active; 'I' for Inactive)
REMARK    1  A    between atoms: C_1  and  C_2
REMARK    2  A    between atoms: C_6  and  N_7
REMARK    3  A    between atoms: C_8  and  C_10
REMARK    4  A    between atoms: C_10  and  C_11
REMARK    5  A    between atoms: C_11  and  N_12
REMARK    6  A    between atoms: C_13  and  C_15
REMARK    7  A    between atoms: C_22  and  C_23
REMARK                            x       y       z     vdW  Elec       q    Type
REMARK                         _______ _______ _______ _____ _____    ______ ____
ROOT
ATOM      1  C   UNL     1       3.044   8.098  17.291  0.00  0.00    +0.000 C 
ENDROOT
BRANCH   1   3
ATOM      2  N   UNL     1       2.167   5.906  17.922  0.00  0.00    +0.000 N 
ATOM      3  C   UNL     1       3.300   6.700  17.818  0.00  0.00    +0.000 C 
ATOM      4  O   UNL     1       4.452   6.402  18.135  0.00  0.00    +0.000 OA
ATOM      5  H   UNL     1       1.300   6.315  17.611  0.00  0.00    +0.000 HD
BRANCH   2  11
ATOM      6  C   UNL     1       1.511   2.550  21.663  0.00  0.00    +0.000 C 
ATOM      7  C   UNL     1       1.787   2.927  20.225  0.00  0.00    +0.000 A 
ATOM      8  C   UNL     1       1.975   1.885  19.313  0.00  0.00    +0.000 A 
ATOM      9  C   UNL     1       2.219   2.159  17.980  0.00  0.00    +0.000 A 
ATOM     10  C   UNL     1       2.274   3.480  17.543  0.00  0.00    +0.000 A 
ATOM     11  C   UNL     1       2.099   4.564  18.416  0.00  0.00    +0.000 A 
ATOM     12  C   UNL     1       1.854   4.287  19.788  0.00  0.00    +0.000 A 
ATOM     13  C   UNL     1       1.663   5.357  20.840  0.00  0.00    +0.000 C 
ENDBRANCH   2  11
ENDBRANCH   1   3
BRANCH   1  14
ATOM     14  C   UNL     1       2.382   8.918  18.384  0.00  0.00    +0.000 C 
BRANCH  14  15
ATOM     15  N   UNL     1       0.986   9.221  18.123  0.00  0.00    +0.000 N 
ATOM     16  C   UNL     1       0.418  10.332  18.726  0.00  0.00    +0.000 C 
ATOM     17  O   UNL     1       1.025  11.058  19.505  0.00  0.00    +0.000 OA
ATOM     18  H   UNL     1       0.535   8.828  17.307  0.00  0.00    +0.000 HD
BRANCH  16  19
ATOM     19  C   UNL     1      -0.994  10.639  18.373  0.00  0.00    +0.000 A 
ATOM     20  C   UNL     1      -1.641   9.980  17.321  0.00  0.00    +0.000 A 
ATOM     21  C   UNL     1      -2.978  10.268  17.031  0.00  0.00    +0.000 A 
ATOM     22  C   UNL     1      -3.668  11.205  17.799  0.00  0.00    +0.000 A 
ATOM     23 BR   UNL     1      -5.479  11.583  17.405  0.00  0.00    +0.000 Br
ATOM     24  C   UNL     1      -3.038  11.856  18.858  0.00  0.00    +0.000 A 
ATOM     25  C   UNL     1      -1.702  11.568  19.150  0.00  0.00    +0.000 A 
ENDBRANCH  16  19
ENDBRANCH  14  15
ENDBRANCH   1  14
TORSDOF 5
ENDMDL
MODEL 9
REMARK VINA RESULT:      -6.9      4.108      6.793
REMARK  Name = 
REMARK  7 active torsions:
REMARK  status: ('A' for Active; 'I' for Inactive)
REMARK    1  A    between atoms: C_1  and  C_2
REMARK    2  A    between atoms: C_6  and  N_7
REMARK    3  A    between atoms: C_8  and  C_10
REMARK    4  A    between atoms: C_10  and  C_11
REMARK    5  A    between atoms: C_11  and  N_12
REMARK    6  A    between atoms: C_13  and  C_15
REMARK    7  A    between atoms: C_22  and  C_23
REMARK                            x       y       z     vdW  Elec       q    Type
REMARK                         _______ _______ _______ _____ _____    ______ ____
ROOT
ATOM      1  C   UNL     1       5.610   6.983  16.915  0.00  0.00    +0.000 C 
ENDROOT
BRANCH   1   3
ATOM      2  N   UNL     1       3.999   5.219  17.432  0.00  0.00    +0.000 N 
ATOM      3  C   UNL     1       5.216   5.793  17.768  0.00  0.00    +0.000 C 
ATOM      4  O   UNL     1       5.968   5.463  18.686  0.00  0.00    +0.000 OA
ATOM      5  H   UNL     1       3.514   5.620  16.644  0.00  0.00    +0.000 HD
BRANCH   2  11
ATOM      6  C   UNL     1       1.204   3.235  21.166  0.00  0.00    +0.000 C 
ATOM      7  C   UNL     1       2.008   3.140  19.889  0.00  0.00    +0.000 A 
ATOM      8  C   UNL     1       2.121   1.880  19.294  0.00  0.00    +0.000 A 
ATOM      9  C   UNL     1       2.832   1.724  18.118  0.00  0.00    +0.000 A 
ATOM     10  C   UNL     1       3.436   2.828  17.522  0.00  0.00    +0.000 A 
ATOM     11  C   UNL     1       3.359   4.114  18.079  0.00  0.00    +0.000 A 
ATOM     12  C   UNL     1       2.635   4.277  19.291  0.00  0.00    +0.000 A 
ATOM     13  C   UNL     1       2.486   5.601  20.008  0.00  0.00    +0.000 C 
ENDBRANCH   2  11
ENDBRANCH   1   3
BRANCH   1  14
ATOM     14  C   UNL     1       7.121   7.135  16.959  0.00  0.00    +0.000 C 
BRANCH  14  15
ATOM     15  N   UNL     1       7.563   8.474  17.304  0.00  0.00    +0.000 N 
ATOM     16  C   UNL     1       8.399   8.641  18.396  0.00  0.00    +0.000 C 
ATOM     17  O   UNL     1       8.758   7.716  19.116  0.00  0.00    +0.000 OA
ATOM     18  H   UNL     1       7.519   9.208  16.609  0.00  0.00    +0.000 HD
BRANCH  16  19
ATOM     19  C   UNL     1       8.879  10.023  18.668  0.00  0.00    +0.000 A 
ATOM     20  C   UNL     1       9.595  10.329  19.831  0.00  0.00    +0.000 A 
ATOM     21  C   UNL     1      10.058  11.630  20.046  0.00  0.00    +0.000 A 
ATOM     22  C   UNL     1       9.814  12.620  19.094  0.00  0.00    +0.000 A 
ATOM     23 BR   UNL     1      10.452  14.376  19.389  0.00  0.00    +0.000 Br
ATOM     24  C   UNL     1       9.116  12.322  17.925  0.00  0.00    +0.000 A 
ATOM     25  C   UNL     1       8.653  11.022  17.708  0.00  0.00    +0.000 A 
ENDBRANCH  16  19
ENDBRANCH  14  15
ENDBRANCH   1  14
TORSDOF 5
ENDMDL
