MODEL 1
REMARK VINA RESULT:      -7.8      0.000      0.000
REMARK  Name = 
REMARK  7 active torsions:
REMARK  status: ('A' for Active; 'I' for Inactive)
REMARK    1  A    between atoms: C_1  and  O_2
REMARK    2  A    between atoms: O_2  and  C_3
REMARK    3  A    between atoms: C_8  and  C_9
REMARK    4  A    between atoms: C_9  and  C_10
REMARK    5  A    between atoms: C_10  and  C_12
REMARK    6  A    between atoms: N_14  and  C_15
REMARK    7  A    between atoms: C_15  and  C_16
REMARK                            x       y       z     vdW  Elec       q    Type
REMARK                         _______ _______ _______ _____ _____    ______ ____
ROOT
ATOM      1  C   UNL     1       5.894   4.804  16.272  0.00  0.00    +0.000 A 
ATOM      2  C   UNL     1       5.691   4.479  14.946  0.00  0.00    +0.000 A 
ATOM      3  N   UNL     1       6.803   4.954  14.314  0.00  0.00    +0.000 N 
ATOM      4  N   UNL     1       7.640   5.550  15.185  0.00  0.00    +0.000 NA
ATOM      5  N   UNL     1       7.087   5.474  16.386  0.00  0.00    +0.000 NA
ENDROOT
BRANCH   1   6
ATOM      6  C   UNL     1       5.020   4.525  17.406  0.00  0.00    +0.000 C 
ATOM      7  O   UNL     1       5.464   4.056  18.457  0.00  0.00    +0.000 OA
BRANCH   6   8
ATOM      8  C   UNL     1       3.536   4.756  17.218  0.00  0.00    +0.000 C 
BRANCH   8  14
ATOM      9  C   UNL     1       2.325   4.995  19.526  0.00  0.00    +0.000 A 
ATOM     10  C   UNL     1       1.441   4.421  20.454  0.00  0.00    +0.000 A 
ATOM     11  C   UNL     1       0.784   3.222  20.189  0.00  0.00    +0.000 A 
ATOM     12  C   UNL     1       0.991   2.577  18.981  0.00  0.00    +0.000 A 
ATOM     13  C   UNL     1       1.874   3.127  18.050  0.00  0.00    +0.000 A 
ATOM     14  C   UNL     1       2.570   4.332  18.307  0.00  0.00    +0.000 A 
BRANCH   9  16
ATOM     15  C   UNL     1       2.229   7.369  19.658  0.00  0.00    +0.000 C 
ATOM     16  O   UNL     1       2.990   6.163  19.770  0.00  0.00    +0.000 OA
ENDBRANCH   9  16
ENDBRANCH   8  14
ENDBRANCH   6   8
ENDBRANCH   1   6
BRANCH   3  17
ATOM     17  C   UNL     1       7.211   4.754  12.933  0.00  0.00    +0.000 C 
BRANCH  17  18
ATOM     18  C   UNL     1       6.473   3.626  12.256  0.00  0.00    +0.000 A 
ATOM     19  C   UNL     1       5.091   3.706  12.017  0.00  0.00    +0.000 A 
ATOM     20  C   UNL     1       4.424   2.680  11.345  0.00  0.00    +0.000 A 
ATOM     21  C   UNL     1       5.131   1.568  10.892  0.00  0.00    +0.000 A 
ATOM     22  C   UNL     1       6.504   1.480  11.113  0.00  0.00    +0.000 A 
ATOM     23  C   UNL     1       7.172   2.502  11.791  0.00  0.00    +0.000 A 
ENDBRANCH  17  18
ENDBRANCH   3  17
TORSDOF 6
ENDMDL
MODEL 2
REMARK VINA RESULT:      -7.8      1.297      1.867
REMARK  Name = 
REMARK  7 active torsions:
REMARK  status: ('A' for Active; 'I' for Inactive)
REMARK    1  A    between atoms: C_1  and  O_2
REMARK    2  A    between atoms: O_2  and  C_3
REMARK    3  A    between atoms: C_8  and  C_9
REMARK    4  A    between atoms: C_9  and  C_10
REMARK    5  A    between atoms: C_10  and  C_12
REMARK    6  A    between atoms: N_14  and  C_15
REMARK    7  A    between atoms: C_15  and  C_16
REMARK                            x       y       z     vdW  Elec       q    Type
REMARK                         _______ _______ _______ _____ _____    ______ ____
ROOT
ATOM      1  C   UNL     1       6.568   5.096  16.511  0.00  0.00    +0.000 A 
ATOM      2  C   UNL     1       7.249   4.473  15.484  0.00  0.00    +0.000 A 
ATOM      3  N   UNL     1       6.796   5.095  14.359  0.00  0.00    +0.000 N 
ATOM      4  N   UNL     1       5.880   6.037  14.659  0.00  0.00    +0.000 NA
ATOM      5  N   UNL     1       5.725   6.038  15.975  0.00  0.00    +0.000 NA
ENDROOT
BRANCH   1   6
ATOM      6  C   UNL     1       6.671   4.834  17.941  0.00  0.00    +0.000 C 
ATOM      7  O   UNL     1       7.699   4.361  18.433  0.00  0.00    +0.000 OA
BRANCH   6   8
ATOM      8  C   UNL     1       5.444   5.090  18.790  0.00  0.00    +0.000 C 
BRANCH   8  14
ATOM      9  C   UNL     1       2.932   5.000  18.060  0.00  0.00    +0.000 A 
ATOM     10  C   UNL     1       1.798   4.198  17.846  0.00  0.00    +0.000 A 
ATOM     11  C   UNL     1       1.848   2.813  17.988  0.00  0.00    +0.000 A 
ATOM     12  C   UNL     1       3.040   2.200  18.336  0.00  0.00    +0.000 A 
ATOM     13  C   UNL     1       4.175   2.981  18.564  0.00  0.00    +0.000 A 
ATOM     14  C   UNL     1       4.142   4.391  18.449  0.00  0.00    +0.000 A 
BRANCH   9  16
ATOM     15  C   UNL     1       2.415   7.092  19.070  0.00  0.00    +0.000 C 
ATOM     16  O   UNL     1       2.903   6.360  17.941  0.00  0.00    +0.000 OA
ENDBRANCH   9  16
ENDBRANCH   8  14
ENDBRANCH   6   8
ENDBRANCH   1   6
BRANCH   3  17
ATOM     17  C   UNL     1       7.281   4.962  12.995  0.00  0.00    +0.000 C 
BRANCH  17  18
ATOM     18  C   UNL     1       6.715   3.760  12.280  0.00  0.00    +0.000 A 
ATOM     19  C   UNL     1       7.557   2.770  11.750  0.00  0.00    +0.000 A 
ATOM     20  C   UNL     1       7.023   1.637  11.133  0.00  0.00    +0.000 A 
ATOM     21  C   UNL     1       5.643   1.472  11.052  0.00  0.00    +0.000 A 
ATOM     22  C   UNL     1       4.794   2.441  11.583  0.00  0.00    +0.000 A 
ATOM     23  C   UNL     1       5.325   3.579  12.194  0.00  0.00    +0.000 A 
ENDBRANCH  17  18
ENDBRANCH   3  17
TORSDOF 6
ENDMDL
MODEL 3
REMARK VINA RESULT:      -7.8      1.303      1.748
REMARK  Name = 
REMARK  7 active torsions:
REMARK  status: ('A' for Active; 'I' for Inactive)
REMARK    1  A    between atoms: C_1  and  O_2
REMARK    2  A    between atoms: O_2  and  C_3
REMARK    3  A    between atoms: C_8  and  C_9
REMARK    4  A    between atoms: C_9  and  C_10
REMARK    5  A    between atoms: C_10  and  C_12
REMARK    6  A    between atoms: N_14  and  C_15
REMARK    7  A    between atoms: C_15  and  C_16
REMARK                            x       y       z     vdW  Elec       q    Type
REMARK                         _______ _______ _______ _____ _____    ______ ____
ROOT
ATOM      1  C   UNL     1       5.768   4.778  16.845  0.00  0.00    +0.000 A 
ATOM      2  C   UNL     1       6.480   4.144  15.846  0.00  0.00    +0.000 A 
ATOM      3  N   UNL     1       6.408   5.004  14.790  0.00  0.00    +0.000 N 
ATOM      4  N   UNL     1       5.685   6.098  15.102  0.00  0.00    +0.000 NA
ATOM      5  N   UNL     1       5.279   5.964  16.355  0.00  0.00    +0.000 NA
ENDROOT
BRANCH   1   6
ATOM      6  C   UNL     1       5.527   4.312  18.205  0.00  0.00    +0.000 C 
ATOM      7  O   UNL     1       6.161   4.768  19.160  0.00  0.00    +0.000 OA
BRANCH   6   8
ATOM      8  C   UNL     1       4.527   3.192  18.393  0.00  0.00    +0.000 C 
BRANCH   8  14
ATOM      9  C   UNL     1       2.304   4.313  19.204  0.00  0.00    +0.000 A 
ATOM     10  C   UNL     1       1.334   4.403  20.216  0.00  0.00    +0.000 A 
ATOM     11  C   UNL     1       1.377   3.581  21.340  0.00  0.00    +0.000 A 
ATOM     12  C   UNL     1       2.387   2.643  21.469  0.00  0.00    +0.000 A 
ATOM     13  C   UNL     1       3.367   2.547  20.478  0.00  0.00    +0.000 A 
ATOM     14  C   UNL     1       3.357   3.386  19.339  0.00  0.00    +0.000 A 
BRANCH   9  16
ATOM     15  C   UNL     1       2.444   6.521  18.329  0.00  0.00    +0.000 C 
ATOM     16  O   UNL     1       2.291   5.117  18.100  0.00  0.00    +0.000 OA
ENDBRANCH   9  16
ENDBRANCH   8  14
ENDBRANCH   6   8
ENDBRANCH   1   6
BRANCH   3  17
ATOM     17  C   UNL     1       7.110   4.934  13.519  0.00  0.00    +0.000 C 
BRANCH  17  18
ATOM     18  C   UNL     1       6.583   3.850  12.611  0.00  0.00    +0.000 A 
ATOM     19  C   UNL     1       7.454   2.941  11.989  0.00  0.00    +0.000 A 
ATOM     20  C   UNL     1       6.955   1.910  11.191  0.00  0.00    +0.000 A 
ATOM     21  C   UNL     1       5.581   1.766  11.015  0.00  0.00    +0.000 A 
ATOM     22  C   UNL     1       4.704   2.655  11.634  0.00  0.00    +0.000 A 
ATOM     23  C   UNL     1       5.201   3.691  12.428  0.00  0.00    +0.000 A 
ENDBRANCH  17  18
ENDBRANCH   3  17
TORSDOF 6
ENDMDL
MODEL 4
REMARK VINA RESULT:      -7.7      5.460      8.237
REMARK  Name = 
REMARK  7 active torsions:
REMARK  status: ('A' for Active; 'I' for Inactive)
REMARK    1  A    between atoms: C_1  and  O_2
REMARK    2  A    between atoms: O_2  and  C_3
REMARK    3  A    between atoms: C_8  and  C_9
REMARK    4  A    between atoms: C_9  and  C_10
REMARK    5  A    between atoms: C_10  and  C_12
REMARK    6  A    between atoms: N_14  and  C_15
REMARK    7  A    between atoms: C_15  and  C_16
REMARK                            x       y       z     vdW  Elec       q    Type
REMARK                         _______ _______ _______ _____ _____    ______ ____
ROOT
ATOM      1  C   UNL     1       1.443   9.514  18.816  0.00  0.00    +0.000 A 
ATOM      2  C   UNL     1       1.728   8.393  19.569  0.00  0.00    +0.000 A 
ATOM      3  N   UNL     1       2.491   7.622  18.742  0.00  0.00    +0.000 N 
ATOM      4  N   UNL     1       2.660   8.215  17.544  0.00  0.00    +0.000 NA
ATOM      5  N   UNL     1       2.012   9.370  17.575  0.00  0.00    +0.000 NA
ENDROOT
BRANCH   1   6
ATOM      6  C   UNL     1       0.662  10.681  19.209  0.00  0.00    +0.000 C 
ATOM      7  O   UNL     1       1.185  11.792  19.328  0.00  0.00    +0.000 OA
BRANCH   6   8
ATOM      8  C   UNL     1      -0.798  10.464  19.543  0.00  0.00    +0.000 C 
BRANCH   8  14
ATOM      9  C   UNL     1      -3.012  11.437  18.540  0.00  0.00    +0.000 A 
ATOM     10  C   UNL     1      -3.913  11.438  17.462  0.00  0.00    +0.000 A 
ATOM     11  C   UNL     1      -3.670  10.694  16.310  0.00  0.00    +0.000 A 
ATOM     12  C   UNL     1      -2.513   9.940  16.208  0.00  0.00    +0.000 A 
ATOM     13  C   UNL     1      -1.611   9.918  17.274  0.00  0.00    +0.000 A 
ATOM     14  C   UNL     1      -1.847  10.648  18.463  0.00  0.00    +0.000 A 
BRANCH   9  16
ATOM     15  C   UNL     1      -4.572  12.610  19.901  0.00  0.00    +0.000 C 
ATOM     16  O   UNL     1      -3.235  12.148  19.684  0.00  0.00    +0.000 OA
ENDBRANCH   9  16
ENDBRANCH   8  14
ENDBRANCH   6   8
ENDBRANCH   1   6
BRANCH   3  17
ATOM     17  C   UNL     1       3.212   6.400  19.057  0.00  0.00    +0.000 C 
BRANCH  17  18
ATOM     18  C   UNL     1       2.314   5.189  19.140  0.00  0.00    +0.000 A 
ATOM     19  C   UNL     1       2.133   4.345  18.032  0.00  0.00    +0.000 A 
ATOM     20  C   UNL     1       1.340   3.200  18.132  0.00  0.00    +0.000 A 
ATOM     21  C   UNL     1       0.730   2.877  19.341  0.00  0.00    +0.000 A 
ATOM     22  C   UNL     1       0.909   3.700  20.451  0.00  0.00    +0.000 A 
ATOM     23  C   UNL     1       1.696   4.849  20.353  0.00  0.00    +0.000 A 
ENDBRANCH  17  18
ENDBRANCH   3  17
TORSDOF 6
ENDMDL
MODEL 5
REMARK VINA RESULT:      -7.7      0.992      1.043
REMARK  Name = 
REMARK  7 active torsions:
REMARK  status: ('A' for Active; 'I' for Inactive)
REMARK    1  A    between atoms: C_1  and  O_2
REMARK    2  A    between atoms: O_2  and  C_3
REMARK    3  A    between atoms: C_8  and  C_9
REMARK    4  A    between atoms: C_9  and  C_10
REMARK    5  A    between atoms: C_10  and  C_12
REMARK    6  A    between atoms: N_14  and  C_15
REMARK    7  A    between atoms: C_15  and  C_16
REMARK                            x       y       z     vdW  Elec       q    Type
REMARK                         _______ _______ _______ _____ _____    ______ ____
ROOT
ATOM      1  C   UNL     1       6.370   4.684  16.313  0.00  0.00    +0.000 A 
ATOM      2  C   UNL     1       6.165   4.184  15.042  0.00  0.00    +0.000 A 
ATOM      3  N   UNL     1       7.003   4.921  14.257  0.00  0.00    +0.000 N 
ATOM      4  N   UNL     1       7.676   5.832  14.986  0.00  0.00    +0.000 NA
ATOM      5  N   UNL     1       7.287   5.703  16.245  0.00  0.00    +0.000 NA
ENDROOT
BRANCH   1   6
ATOM      6  C   UNL     1       5.738   4.255  17.555  0.00  0.00    +0.000 C 
ATOM      7  O   UNL     1       6.341   4.301  18.630  0.00  0.00    +0.000 OA
BRANCH   6   8
ATOM      8  C   UNL     1       4.342   3.676  17.465  0.00  0.00    +0.000 C 
BRANCH   8  14
ATOM      9  C   UNL     1       2.498   4.865  18.893  0.00  0.00    +0.000 A 
ATOM     10  C   UNL     1       1.745   4.862  20.079  0.00  0.00    +0.000 A 
ATOM     11  C   UNL     1       1.855   3.829  21.008  0.00  0.00    +0.000 A 
ATOM     12  C   UNL     1       2.713   2.771  20.762  0.00  0.00    +0.000 A 
ATOM     13  C   UNL     1       3.478   2.763  19.593  0.00  0.00    +0.000 A 
ATOM     14  C   UNL     1       3.400   3.812  18.647  0.00  0.00    +0.000 A 
BRANCH   9  16
ATOM     15  C   UNL     1       2.717   7.192  18.443  0.00  0.00    +0.000 C 
ATOM     16  O   UNL     1       2.417   5.873  17.975  0.00  0.00    +0.000 OA
ENDBRANCH   9  16
ENDBRANCH   8  14
ENDBRANCH   6   8
ENDBRANCH   1   6
BRANCH   3  17
ATOM     17  C   UNL     1       7.329   4.727  12.854  0.00  0.00    +0.000 C 
BRANCH  17  18
ATOM     18  C   UNL     1       6.559   3.596  12.219  0.00  0.00    +0.000 A 
ATOM     19  C   UNL     1       5.170   3.682  12.031  0.00  0.00    +0.000 A 
ATOM     20  C   UNL     1       4.472   2.651  11.398  0.00  0.00    +0.000 A 
ATOM     21  C   UNL     1       5.154   1.530  10.933  0.00  0.00    +0.000 A 
ATOM     22  C   UNL     1       6.534   1.435  11.103  0.00  0.00    +0.000 A 
ATOM     23  C   UNL     1       7.234   2.461  11.742  0.00  0.00    +0.000 A 
ENDBRANCH  17  18
ENDBRANCH   3  17
TORSDOF 6
ENDMDL
MODEL 6
REMARK VINA RESULT:      -7.6      5.717      8.586
REMARK  Name = 
REMARK  7 active torsions:
REMARK  status: ('A' for Active; 'I' for Inactive)
REMARK    1  A    between atoms: C_1  and  O_2
REMARK    2  A    between atoms: O_2  and  C_3
REMARK    3  A    between atoms: C_8  and  C_9
REMARK    4  A    between atoms: C_9  and  C_10
REMARK    5  A    between atoms: C_10  and  C_12
REMARK    6  A    between atoms: N_14  and  C_15
REMARK    7  A    between atoms: C_15  and  C_16
REMARK                            x       y       z     vdW  Elec       q    Type
REMARK                         _______ _______ _______ _____ _____    ______ ____
ROOT
ATOM      1  C   UNL     1       0.900   9.382  19.507  0.00  0.00    +0.000 A 
ATOM      2  C   UNL     1       1.826   8.645  18.795  0.00  0.00    +0.000 A 
ATOM      3  N   UNL     1       2.184   7.646  19.652  0.00  0.00    +0.000 N 
ATOM      4  N   UNL     1       1.537   7.759  20.828  0.00  0.00    +0.000 NA
ATOM      5  N   UNL     1       0.756   8.826  20.754  0.00  0.00    +0.000 NA
ENDROOT
BRANCH   1   6
ATOM      6  C   UNL     1       0.175  10.569  19.070  0.00  0.00    +0.000 C 
ATOM      7  O   UNL     1       0.767  11.544  18.598  0.00  0.00    +0.000 OA
BRANCH   6   8
ATOM      8  C   UNL     1      -1.322  10.595  19.289  0.00  0.00    +0.000 C 
BRANCH   8  14
ATOM      9  C   UNL     1      -3.445  11.451  18.019  0.00  0.00    +0.000 A 
ATOM     10  C   UNL     1      -4.220  11.389  16.849  0.00  0.00    +0.000 A 
ATOM     11  C   UNL     1      -3.822  10.627  15.753  0.00  0.00    +0.000 A 
ATOM     12  C   UNL     1      -2.633   9.920  15.801  0.00  0.00    +0.000 A 
ATOM     13  C   UNL     1      -1.855   9.960  16.960  0.00  0.00    +0.000 A 
ATOM     14  C   UNL     1      -2.250  10.709  18.095  0.00  0.00    +0.000 A 
BRANCH   9  16
ATOM     15  C   UNL     1      -5.222  12.436  19.259  0.00  0.00    +0.000 C 
ATOM     16  O   UNL     1      -3.822  12.179  19.111  0.00  0.00    +0.000 OA
ENDBRANCH   9  16
ENDBRANCH   8  14
ENDBRANCH   6   8
ENDBRANCH   1   6
BRANCH   3  17
ATOM     17  C   UNL     1       3.007   6.478  19.384  0.00  0.00    +0.000 C 
BRANCH  17  18
ATOM     18  C   UNL     1       2.212   5.198  19.314  0.00  0.00    +0.000 A 
ATOM     19  C   UNL     1       1.978   4.558  18.086  0.00  0.00    +0.000 A 
ATOM     20  C   UNL     1       1.283   3.348  18.035  0.00  0.00    +0.000 A 
ATOM     21  C   UNL     1       0.827   2.755  19.210  0.00  0.00    +0.000 A 
ATOM     22  C   UNL     1       1.060   3.374  20.437  0.00  0.00    +0.000 A 
ATOM     23  C   UNL     1       1.749   4.588  20.490  0.00  0.00    +0.000 A 
ENDBRANCH  17  18
ENDBRANCH   3  17
TORSDOF 6
ENDMDL
MODEL 7
REMARK VINA RESULT:      -7.5      1.611      2.123
REMARK  Name = 
REMARK  7 active torsions:
REMARK  status: ('A' for Active; 'I' for Inactive)
REMARK    1  A    between atoms: C_1  and  O_2
REMARK    2  A    between atoms: O_2  and  C_3
REMARK    3  A    between atoms: C_8  and  C_9
REMARK    4  A    between atoms: C_9  and  C_10
REMARK    5  A    between atoms: C_10  and  C_12
REMARK    6  A    between atoms: N_14  and  C_15
REMARK    7  A    between atoms: C_15  and  C_16
REMARK                            x       y       z     vdW  Elec       q    Type
REMARK                         _______ _______ _______ _____ _____    ______ ____
ROOT
ATOM      1  C   UNL     1       5.910   5.352  17.340  0.00  0.00    +0.000 A 
ATOM      2  C   UNL     1       6.710   4.632  16.474  0.00  0.00    +0.000 A 
ATOM      3  N   UNL     1       6.538   5.250  15.271  0.00  0.00    +0.000 N 
ATOM      4  N   UNL     1       5.676   6.281  15.373  0.00  0.00    +0.000 NA
ATOM      5  N   UNL     1       5.276   6.345  16.634  0.00  0.00    +0.000 NA
ENDROOT
BRANCH   1   6
ATOM      6  C   UNL     1       5.717   5.136  18.769  0.00  0.00    +0.000 C 
ATOM      7  O   UNL     1       6.613   4.661  19.472  0.00  0.00    +0.000 OA
BRANCH   6   8
ATOM      8  C   UNL     1       4.350   5.439  19.343  0.00  0.00    +0.000 C 
BRANCH   8  14
ATOM      9  C   UNL     1       2.998   3.237  19.767  0.00  0.00    +0.000 A 
ATOM     10  C   UNL     1       1.920   2.427  19.376  0.00  0.00    +0.000 A 
ATOM     11  C   UNL     1       1.041   2.820  18.369  0.00  0.00    +0.000 A 
ATOM     12  C   UNL     1       1.218   4.040  17.739  0.00  0.00    +0.000 A 
ATOM     13  C   UNL     1       2.291   4.855  18.107  0.00  0.00    +0.000 A 
ATOM     14  C   UNL     1       3.209   4.466  19.111  0.00  0.00    +0.000 A 
BRANCH   9  16
ATOM     15  C   UNL     1       4.748   1.771  20.438  0.00  0.00    +0.000 C 
ATOM     16  O   UNL     1       3.879   2.867  20.742  0.00  0.00    +0.000 OA
ENDBRANCH   9  16
ENDBRANCH   8  14
ENDBRANCH   6   8
ENDBRANCH   1   6
BRANCH   3  17
ATOM     17  C   UNL     1       7.256   5.024  14.028  0.00  0.00    +0.000 C 
BRANCH  17  18
ATOM     18  C   UNL     1       6.546   4.069  13.100  0.00  0.00    +0.000 A 
ATOM     19  C   UNL     1       5.144   4.009  13.059  0.00  0.00    +0.000 A 
ATOM     20  C   UNL     1       4.494   3.158  12.162  0.00  0.00    +0.000 A 
ATOM     21  C   UNL     1       5.235   2.368  11.288  0.00  0.00    +0.000 A 
ATOM     22  C   UNL     1       6.628   2.424  11.311  0.00  0.00    +0.000 A 
ATOM     23  C   UNL     1       7.281   3.269  12.211  0.00  0.00    +0.000 A 
ENDBRANCH  17  18
ENDBRANCH   3  17
TORSDOF 6
ENDMDL
MODEL 8
REMARK VINA RESULT:      -7.5      5.174      7.174
REMARK  Name = 
REMARK  7 active torsions:
REMARK  status: ('A' for Active; 'I' for Inactive)
REMARK    1  A    between atoms: C_1  and  O_2
REMARK    2  A    between atoms: O_2  and  C_3
REMARK    3  A    between atoms: C_8  and  C_9
REMARK    4  A    between atoms: C_9  and  C_10
REMARK    5  A    between atoms: C_10  and  C_12
REMARK    6  A    between atoms: N_14  and  C_15
REMARK    7  A    between atoms: C_15  and  C_16
REMARK                            x       y       z     vdW  Elec       q    Type
REMARK                         _______ _______ _______ _____ _____    ______ ____
ROOT
ATOM      1  C   UNL     1       7.613   7.088  17.884  0.00  0.00    +0.000 A 
ATOM      2  C   UNL     1       8.471   7.557  18.860  0.00  0.00    +0.000 A 
ATOM      3  N   UNL     1       8.549   8.897  18.618  0.00  0.00    +0.000 N 
ATOM      4  N   UNL     1       7.801   9.242  17.551  0.00  0.00    +0.000 NA
ATOM      5  N   UNL     1       7.233   8.139  17.087  0.00  0.00    +0.000 NA
ENDROOT
BRANCH   1   6
ATOM      6  C   UNL     1       7.162   5.718  17.674  0.00  0.00    +0.000 C 
ATOM      7  O   UNL     1       7.681   4.773  18.274  0.00  0.00    +0.000 OA
BRANCH   6   8
ATOM      8  C   UNL     1       6.088   5.488  16.633  0.00  0.00    +0.000 C 
BRANCH   8  14
ATOM      9  C   UNL     1       3.677   5.934  17.549  0.00  0.00    +0.000 A 
ATOM     10  C   UNL     1       2.462   5.377  17.981  0.00  0.00    +0.000 A 
ATOM     11  C   UNL     1       2.231   4.004  17.929  0.00  0.00    +0.000 A 
ATOM     12  C   UNL     1       3.210   3.160  17.434  0.00  0.00    +0.000 A 
ATOM     13  C   UNL     1       4.429   3.694  17.010  0.00  0.00    +0.000 A 
ATOM     14  C   UNL     1       4.694   5.083  17.074  0.00  0.00    +0.000 A 
BRANCH   9  16
ATOM     15  C   UNL     1       2.814   8.127  17.878  0.00  0.00    +0.000 C 
ATOM     16  O   UNL     1       3.930   7.275  17.603  0.00  0.00    +0.000 OA
ENDBRANCH   9  16
ENDBRANCH   8  14
ENDBRANCH   6   8
ENDBRANCH   1   6
BRANCH   3  17
ATOM     17  C   UNL     1       9.180   9.926  19.427  0.00  0.00    +0.000 C 
BRANCH  17  18
ATOM     18  C   UNL     1       9.639  11.114  18.619  0.00  0.00    +0.000 A 
ATOM     19  C   UNL     1       8.817  12.241  18.456  0.00  0.00    +0.000 A 
ATOM     20  C   UNL     1       9.269  13.356  17.748  0.00  0.00    +0.000 A 
ATOM     21  C   UNL     1      10.552  13.366  17.207  0.00  0.00    +0.000 A 
ATOM     22  C   UNL     1      11.383  12.259  17.369  0.00  0.00    +0.000 A 
ATOM     23  C   UNL     1      10.931  11.139  18.070  0.00  0.00    +0.000 A 
ENDBRANCH  17  18
ENDBRANCH   3  17
TORSDOF 6
ENDMDL
MODEL 9
REMARK VINA RESULT:      -7.5      1.453      2.006
REMARK  Name = 
REMARK  7 active torsions:
REMARK  status: ('A' for Active; 'I' for Inactive)
REMARK    1  A    between atoms: C_1  and  O_2
REMARK    2  A    between atoms: O_2  and  C_3
REMARK    3  A    between atoms: C_8  and  C_9
REMARK    4  A    between atoms: C_9  and  C_10
REMARK    5  A    between atoms: C_10  and  C_12
REMARK    6  A    between atoms: N_14  and  C_15
REMARK    7  A    between atoms: C_15  and  C_16
REMARK                            x       y       z     vdW  Elec       q    Type
REMARK                         _______ _______ _______ _____ _____    ______ ____
ROOT
ATOM      1  C   UNL     1       5.796   4.888  16.518  0.00  0.00    +0.000 A 
ATOM      2  C   UNL     1       5.569   5.241  15.203  0.00  0.00    +0.000 A 
ATOM      3  N   UNL     1       6.757   4.992  14.582  0.00  0.00    +0.000 N 
ATOM      4  N   UNL     1       7.673   4.527  15.453  0.00  0.00    +0.000 NA
ATOM      5  N   UNL     1       7.098   4.470  16.645  0.00  0.00    +0.000 NA
ENDROOT
BRANCH   1   6
ATOM      6  C   UNL     1       4.859   4.940  17.634  0.00  0.00    +0.000 C 
ATOM      7  O   UNL     1       5.055   5.681  18.601  0.00  0.00    +0.000 OA
BRANCH   6   8
ATOM      8  C   UNL     1       3.678   3.995  17.600  0.00  0.00    +0.000 C 
BRANCH   8  14
ATOM      9  C   UNL     1       3.275   2.715  19.848  0.00  0.00    +0.000 A 
ATOM     10  C   UNL     1       2.429   2.515  20.951  0.00  0.00    +0.000 A 
ATOM     11  C   UNL     1       1.269   3.267  21.125  0.00  0.00    +0.000 A 
ATOM     12  C   UNL     1       0.939   4.246  20.203  0.00  0.00    +0.000 A 
ATOM     13  C   UNL     1       1.763   4.452  19.094  0.00  0.00    +0.000 A 
ATOM     14  C   UNL     1       2.933   3.684  18.884  0.00  0.00    +0.000 A 
BRANCH   9  16
ATOM     15  C   UNL     1       5.074   1.498  20.821  0.00  0.00    +0.000 C 
ATOM     16  O   UNL     1       4.409   1.980  19.649  0.00  0.00    +0.000 OA
ENDBRANCH   9  16
ENDBRANCH   8  14
ENDBRANCH   6   8
ENDBRANCH   1   6
BRANCH   3  17
ATOM     17  C   UNL     1       7.057   5.026  13.160  0.00  0.00    +0.000 C 
BRANCH  17  18
ATOM     18  C   UNL     1       6.620   3.777  12.434  0.00  0.00    +0.000 A 
ATOM     19  C   UNL     1       5.258   3.493  12.239  0.00  0.00    +0.000 A 
ATOM     20  C   UNL     1       4.863   2.361  11.523  0.00  0.00    +0.000 A 
ATOM     21  C   UNL     1       5.821   1.508  10.982  0.00  0.00    +0.000 A 
ATOM     22  C   UNL     1       7.176   1.783  11.159  0.00  0.00    +0.000 A 
ATOM     23  C   UNL     1       7.574   2.910  11.880  0.00  0.00    +0.000 A 
ENDBRANCH  17  18
ENDBRANCH   3  17
TORSDOF 6
ENDMDL
