MODEL 1
REMARK VINA RESULT:      -7.3      0.000      0.000
REMARK  Name = 
REMARK  3 active torsions:
REMARK  status: ('A' for Active; 'I' for Inactive)
REMARK    1  A    between atoms: C_1  and  C_2
REMARK    2  A    between atoms: C_5  and  N_6
REMARK    3  A    between atoms: C_7  and  C_9
REMARK                            x       y       z     vdW  Elec       q    Type
REMARK                         _______ _______ _______ _____ _____    ______ ____
ROOT
ATOM      1  N   UNL     1       2.727   7.199  18.732  0.00  0.00    +0.000 N 
ATOM      2  C   UNL     1       2.140   8.369  18.283  0.00  0.00    +0.000 C 
ATOM      3  O   UNL     1       2.205   8.839  17.156  0.00  0.00    +0.000 OA
ATOM      4  H   UNL     1       2.570   6.883  19.678  0.00  0.00    +0.000 HD
ENDROOT
BRANCH   2   5
ATOM      5  C   UNL     1       1.333   9.133  19.273  0.00  0.00    +0.000 A 
ATOM      6  C   UNL     1       0.536  10.234  18.910  0.00  0.00    +0.000 A 
ATOM      7  C   UNL     1      -0.275  10.883  19.860  0.00  0.00    +0.000 A 
ATOM      8  C   UNL     1      -0.269  10.409  21.178  0.00  0.00    +0.000 A 
ATOM      9  N   UNL     1      -0.949  10.824  22.294  0.00  0.00    +0.000 NA
ATOM     10  C   UNL     1      -0.543   9.987  23.225  0.00  0.00    +0.000 A 
ATOM     11  O   UNL     1       0.352   9.044  22.820  0.00  0.00    +0.000 OA
ATOM     12  C   UNL     1       0.527   9.320  21.496  0.00  0.00    +0.000 A 
ATOM     13  C   UNL     1       1.338   8.648  20.595  0.00  0.00    +0.000 A 
ENDBRANCH   2   5
BRANCH   1  18
ATOM     14  C   UNL     1       5.999   3.861  15.507  0.00  0.00    +0.000 C 
ATOM     15  C   UNL     1       5.094   4.707  16.345  0.00  0.00    +0.000 A 
ATOM     16  C   UNL     1       5.341   6.057  16.524  0.00  0.00    +0.000 A 
ATOM     17  N   UNL     1       4.582   6.865  17.290  0.00  0.00    +0.000 NA
ATOM     18  C   UNL     1       3.510   6.351  17.921  0.00  0.00    +0.000 A 
ATOM     19  C   UNL     1       3.169   5.002  17.780  0.00  0.00    +0.000 A 
ATOM     20 BR   UNL     1       1.654   4.241  18.631  0.00  0.00    +0.000 Br
ATOM     21  C   UNL     1       3.975   4.174  16.988  0.00  0.00    +0.000 A 
ENDBRANCH   1  18
TORSDOF 2
ENDMDL
MODEL 2
REMARK VINA RESULT:      -7.2      1.033      1.560
REMARK  Name = 
REMARK  3 active torsions:
REMARK  status: ('A' for Active; 'I' for Inactive)
REMARK    1  A    between atoms: C_1  and  C_2
REMARK    2  A    between atoms: C_5  and  N_6
REMARK    3  A    between atoms: C_7  and  C_9
REMARK                            x       y       z     vdW  Elec       q    Type
REMARK                         _______ _______ _______ _____ _____    ______ ____
ROOT
ATOM      1  N   UNL     1       2.873   6.921  18.799  0.00  0.00    +0.000 N 
ATOM      2  C   UNL     1       2.235   8.104  18.473  0.00  0.00    +0.000 C 
ATOM      3  O   UNL     1       2.234   8.665  17.387  0.00  0.00    +0.000 OA
ATOM      4  H   UNL     1       2.770   6.526  19.722  0.00  0.00    +0.000 HD
ENDROOT
BRANCH   2   5
ATOM      5  C   UNL     1       1.455   8.763  19.558  0.00  0.00    +0.000 A 
ATOM      6  C   UNL     1       1.382   8.237  20.860  0.00  0.00    +0.000 A 
ATOM      7  C   UNL     1       0.702   8.929  21.880  0.00  0.00    +0.000 A 
ATOM      8  C   UNL     1       0.097  10.153  21.568  0.00  0.00    +0.000 A 
ATOM      9  N   UNL     1      -0.612  11.038  22.340  0.00  0.00    +0.000 NA
ATOM     10  C   UNL     1      -0.910  12.004  21.498  0.00  0.00    +0.000 A 
ATOM     11  O   UNL     1      -0.455  11.837  20.224  0.00  0.00    +0.000 OA
ATOM     12  C   UNL     1       0.194  10.639  20.273  0.00  0.00    +0.000 A 
ATOM     13  C   UNL     1       0.856   9.996  19.239  0.00  0.00    +0.000 A 
ENDBRANCH   2   5
BRANCH   1  18
ATOM     14  C   UNL     1       6.079   3.944  15.178  0.00  0.00    +0.000 C 
ATOM     15  C   UNL     1       5.191   4.697  16.116  0.00  0.00    +0.000 A 
ATOM     16  C   UNL     1       5.470   6.006  16.468  0.00  0.00    +0.000 A 
ATOM     17  N   UNL     1       4.728   6.728  17.330  0.00  0.00    +0.000 NA
ATOM     18  C   UNL     1       3.639   6.165  17.887  0.00  0.00    +0.000 A 
ATOM     19  C   UNL     1       3.266   4.855  17.572  0.00  0.00    +0.000 A 
ATOM     20 BR   UNL     1       1.727   4.029  18.314  0.00  0.00    +0.000 Br
ATOM     21  C   UNL     1       4.054   4.115  16.681  0.00  0.00    +0.000 A 
ENDBRANCH   1  18
TORSDOF 2
ENDMDL
MODEL 3
REMARK VINA RESULT:      -7.0      2.319      7.550
REMARK  Name = 
REMARK  3 active torsions:
REMARK  status: ('A' for Active; 'I' for Inactive)
REMARK    1  A    between atoms: C_1  and  C_2
REMARK    2  A    between atoms: C_5  and  N_6
REMARK    3  A    between atoms: C_7  and  C_9
REMARK                            x       y       z     vdW  Elec       q    Type
REMARK                         _______ _______ _______ _____ _____    ______ ____
ROOT
ATOM      1  N   UNL     1       2.096   7.912  19.622  0.00  0.00    +0.000 N 
ATOM      2  C   UNL     1       2.226   6.540  19.744  0.00  0.00    +0.000 C 
ATOM      3  O   UNL     1       1.680   5.819  20.566  0.00  0.00    +0.000 OA
ATOM      4  H   UNL     1       2.566   8.401  18.874  0.00  0.00    +0.000 HD
ENDROOT
BRANCH   2   5
ATOM      5  C   UNL     1       3.121   5.864  18.764  0.00  0.00    +0.000 A 
ATOM      6  C   UNL     1       3.259   4.466  18.707  0.00  0.00    +0.000 A 
ATOM      7  C   UNL     1       4.052   3.859  17.715  0.00  0.00    +0.000 A 
ATOM      8  C   UNL     1       4.703   4.681  16.785  0.00  0.00    +0.000 A 
ATOM      9  N   UNL     1       5.517   4.380  15.723  0.00  0.00    +0.000 NA
ATOM     10  C   UNL     1       5.808   5.562  15.221  0.00  0.00    +0.000 A 
ATOM     11  O   UNL     1       5.252   6.628  15.862  0.00  0.00    +0.000 OA
ATOM     12  C   UNL     1       4.539   6.054  16.873  0.00  0.00    +0.000 A 
ATOM     13  C   UNL     1       3.766   6.695  17.828  0.00  0.00    +0.000 A 
ENDBRANCH   2   5
BRANCH   1  18
ATOM     14  C   UNL     1      -1.081  11.093  23.091  0.00  0.00    +0.000 C 
ATOM     15  C   UNL     1      -0.284  10.260  22.138  0.00  0.00    +0.000 A 
ATOM     16  C   UNL     1       0.605   9.303  22.597  0.00  0.00    +0.000 A 
ATOM     17  N   UNL     1       1.373   8.543  21.792  0.00  0.00    +0.000 NA
ATOM     18  C   UNL     1       1.280   8.701  20.459  0.00  0.00    +0.000 A 
ATOM     19  C   UNL     1       0.392   9.627  19.903  0.00  0.00    +0.000 A 
ATOM     20 BR   UNL     1       0.210   9.866  18.030  0.00  0.00    +0.000 Br
ATOM     21  C   UNL     1      -0.392  10.416  20.755  0.00  0.00    +0.000 A 
ENDBRANCH   1  18
TORSDOF 2
ENDMDL
MODEL 4
REMARK VINA RESULT:      -6.9      1.410      1.919
REMARK  Name = 
REMARK  3 active torsions:
REMARK  status: ('A' for Active; 'I' for Inactive)
REMARK    1  A    between atoms: C_1  and  C_2
REMARK    2  A    between atoms: C_5  and  N_6
REMARK    3  A    between atoms: C_7  and  C_9
REMARK                            x       y       z     vdW  Elec       q    Type
REMARK                         _______ _______ _______ _____ _____    ______ ____
ROOT
ATOM      1  N   UNL     1       2.233   7.169  19.847  0.00  0.00    +0.000 N 
ATOM      2  C   UNL     1       1.594   8.347  19.502  0.00  0.00    +0.000 C 
ATOM      3  O   UNL     1       1.553   8.866  18.396  0.00  0.00    +0.000 OA
ATOM      4  H   UNL     1       2.165   6.812  20.788  0.00  0.00    +0.000 HD
ENDROOT
BRANCH   2   5
ATOM      5  C   UNL     1       0.868   9.056  20.593  0.00  0.00    +0.000 A 
ATOM      6  C   UNL     1       1.034   8.725  21.950  0.00  0.00    +0.000 A 
ATOM      7  C   UNL     1       0.392   9.469  22.957  0.00  0.00    +0.000 A 
ATOM      8  C   UNL     1      -0.418  10.547  22.578  0.00  0.00    +0.000 A 
ATOM      9  N   UNL     1      -1.146  11.440  23.322  0.00  0.00    +0.000 NA
ATOM     10  C   UNL     1      -1.682  12.226  22.412  0.00  0.00    +0.000 A 
ATOM     11  O   UNL     1      -1.370  11.930  21.120  0.00  0.00    +0.000 OA
ATOM     12  C   UNL     1      -0.552  10.844  21.231  0.00  0.00    +0.000 A 
ATOM     13  C   UNL     1       0.061  10.143  20.205  0.00  0.00    +0.000 A 
ENDBRANCH   2   5
BRANCH   1  18
ATOM     14  C   UNL     1       5.245   4.037  16.190  0.00  0.00    +0.000 C 
ATOM     15  C   UNL     1       4.410   4.825  17.150  0.00  0.00    +0.000 A 
ATOM     16  C   UNL     1       4.556   6.197  17.264  0.00  0.00    +0.000 A 
ATOM     17  N   UNL     1       3.857   6.957  18.129  0.00  0.00    +0.000 NA
ATOM     18  C   UNL     1       2.952   6.370  18.933  0.00  0.00    +0.000 A 
ATOM     19  C   UNL     1       2.720   4.992  18.872  0.00  0.00    +0.000 A 
ATOM     20 BR   UNL     1       1.438   4.126  19.969  0.00  0.00    +0.000 Br
ATOM     21  C   UNL     1       3.462   4.215  17.974  0.00  0.00    +0.000 A 
ENDBRANCH   1  18
TORSDOF 2
ENDMDL
MODEL 5
REMARK VINA RESULT:      -6.8      2.585      7.518
REMARK  Name = 
REMARK  3 active torsions:
REMARK  status: ('A' for Active; 'I' for Inactive)
REMARK    1  A    between atoms: C_1  and  C_2
REMARK    2  A    between atoms: C_5  and  N_6
REMARK    3  A    between atoms: C_7  and  C_9
REMARK                            x       y       z     vdW  Elec       q    Type
REMARK                         _______ _______ _______ _____ _____    ______ ____
ROOT
ATOM      1  N   UNL     1       2.173   7.798  19.820  0.00  0.00    +0.000 N 
ATOM      2  C   UNL     1       2.212   6.419  19.926  0.00  0.00    +0.000 C 
ATOM      3  O   UNL     1       1.545   5.719  20.674  0.00  0.00    +0.000 OA
ATOM      4  H   UNL     1       2.744   8.270  19.134  0.00  0.00    +0.000 HD
ENDROOT
BRANCH   2   5
ATOM      5  C   UNL     1       3.162   5.707  19.027  0.00  0.00    +0.000 A 
ATOM      6  C   UNL     1       2.731   4.925  17.940  0.00  0.00    +0.000 A 
ATOM      7  C   UNL     1       3.660   4.332  17.064  0.00  0.00    +0.000 A 
ATOM      8  C   UNL     1       5.025   4.536  17.301  0.00  0.00    +0.000 A 
ATOM      9  N   UNL     1       6.137   4.101  16.627  0.00  0.00    +0.000 NA
ATOM     10  C   UNL     1       7.131   4.624  17.313  0.00  0.00    +0.000 A 
ATOM     11  O   UNL     1       6.772   5.375  18.392  0.00  0.00    +0.000 OA
ATOM     12  C   UNL     1       5.410   5.315  18.381  0.00  0.00    +0.000 A 
ATOM     13  C   UNL     1       4.533   5.921  19.266  0.00  0.00    +0.000 A 
ENDBRANCH   2   5
BRANCH   1  18
ATOM     14  C   UNL     1      -1.152  11.112  23.014  0.00  0.00    +0.000 C 
ATOM     15  C   UNL     1      -0.312  10.245  22.131  0.00  0.00    +0.000 A 
ATOM     16  C   UNL     1       0.501   9.259  22.662  0.00  0.00    +0.000 A 
ATOM     17  N   UNL     1       1.302   8.467  21.924  0.00  0.00    +0.000 NA
ATOM     18  C   UNL     1       1.322   8.621  20.587  0.00  0.00    +0.000 A 
ATOM     19  C   UNL     1       0.517   9.576  19.959  0.00  0.00    +0.000 A 
ATOM     20 BR   UNL     1       0.495   9.812  18.077  0.00  0.00    +0.000 Br
ATOM     21  C   UNL     1      -0.303  10.398  20.743  0.00  0.00    +0.000 A 
ENDBRANCH   1  18
TORSDOF 2
ENDMDL
MODEL 6
REMARK VINA RESULT:      -6.7      5.137      8.598
REMARK  Name = 
REMARK  3 active torsions:
REMARK  status: ('A' for Active; 'I' for Inactive)
REMARK    1  A    between atoms: C_1  and  C_2
REMARK    2  A    between atoms: C_5  and  N_6
REMARK    3  A    between atoms: C_7  and  C_9
REMARK                            x       y       z     vdW  Elec       q    Type
REMARK                         _______ _______ _______ _____ _____    ______ ____
ROOT
ATOM      1  N   UNL     1       3.882   3.627  17.030  0.00  0.00    +0.000 N 
ATOM      2  C   UNL     1       5.213   3.998  16.953  0.00  0.00    +0.000 C 
ATOM      3  O   UNL     1       5.970   4.218  17.887  0.00  0.00    +0.000 OA
ATOM      4  H   UNL     1       3.361   3.430  16.188  0.00  0.00    +0.000 HD
ENDROOT
BRANCH   2   5
ATOM      5  C   UNL     1       5.790   4.135  15.587  0.00  0.00    +0.000 A 
ATOM      6  C   UNL     1       5.191   3.558  14.453  0.00  0.00    +0.000 A 
ATOM      7  C   UNL     1       5.722   3.775  13.168  0.00  0.00    +0.000 A 
ATOM      8  C   UNL     1       6.862   4.579  13.043  0.00  0.00    +0.000 A 
ATOM      9  N   UNL     1       7.582   4.967  11.942  0.00  0.00    +0.000 NA
ATOM     10  C   UNL     1       8.530   5.724  12.452  0.00  0.00    +0.000 A 
ATOM     11  O   UNL     1       8.500   5.875  13.806  0.00  0.00    +0.000 OA
ATOM     12  C   UNL     1       7.421   5.132  14.184  0.00  0.00    +0.000 A 
ATOM     13  C   UNL     1       6.932   4.950  15.468  0.00  0.00    +0.000 A 
ENDBRANCH   2   5
BRANCH   1  18
ATOM     14  C   UNL     1       1.178   2.768  21.949  0.00  0.00    +0.000 C 
ATOM     15  C   UNL     1       1.858   3.040  20.645  0.00  0.00    +0.000 A 
ATOM     16  C   UNL     1       2.410   2.012  19.899  0.00  0.00    +0.000 A 
ATOM     17  N   UNL     1       3.061   2.194  18.735  0.00  0.00    +0.000 NA
ATOM     18  C   UNL     1       3.187   3.441  18.243  0.00  0.00    +0.000 A 
ATOM     19  C   UNL     1       2.641   4.539  18.916  0.00  0.00    +0.000 A 
ATOM     20 BR   UNL     1       2.773   6.310  18.249  0.00  0.00    +0.000 Br
ATOM     21  C   UNL     1       1.975   4.332  20.131  0.00  0.00    +0.000 A 
ENDBRANCH   1  18
TORSDOF 2
ENDMDL
MODEL 7
REMARK VINA RESULT:      -6.6      5.035      8.535
REMARK  Name = 
REMARK  3 active torsions:
REMARK  status: ('A' for Active; 'I' for Inactive)
REMARK    1  A    between atoms: C_1  and  C_2
REMARK    2  A    between atoms: C_5  and  N_6
REMARK    3  A    between atoms: C_7  and  C_9
REMARK                            x       y       z     vdW  Elec       q    Type
REMARK                         _______ _______ _______ _____ _____    ______ ____
ROOT
ATOM      1  N   UNL     1       4.015   3.929  17.509  0.00  0.00    +0.000 N 
ATOM      2  C   UNL     1       5.370   4.209  17.510  0.00  0.00    +0.000 C 
ATOM      3  O   UNL     1       6.114   4.245  18.479  0.00  0.00    +0.000 OA
ATOM      4  H   UNL     1       3.507   3.886  16.638  0.00  0.00    +0.000 HD
ENDROOT
BRANCH   2   5
ATOM      5  C   UNL     1       5.995   4.487  16.187  0.00  0.00    +0.000 A 
ATOM      6  C   UNL     1       7.035   5.419  16.024  0.00  0.00    +0.000 A 
ATOM      7  C   UNL     1       7.655   5.598  14.773  0.00  0.00    +0.000 A 
ATOM      8  C   UNL     1       7.211   4.826  13.691  0.00  0.00    +0.000 A 
ATOM      9  N   UNL     1       7.622   4.776  12.384  0.00  0.00    +0.000 NA
ATOM     10  C   UNL     1       6.843   3.855  11.857  0.00  0.00    +0.000 A 
ATOM     11  O   UNL     1       5.945   3.285  12.708  0.00  0.00    +0.000 OA
ATOM     12  C   UNL     1       6.186   3.916  13.893  0.00  0.00    +0.000 A 
ATOM     13  C   UNL     1       5.549   3.703  15.105  0.00  0.00    +0.000 A 
ENDBRANCH   2   5
BRANCH   1  18
ATOM     14  C   UNL     1       1.127   2.621  22.219  0.00  0.00    +0.000 C 
ATOM     15  C   UNL     1       1.855   3.010  20.972  0.00  0.00    +0.000 A 
ATOM     16  C   UNL     1       2.469   2.058  20.177  0.00  0.00    +0.000 A 
ATOM     17  N   UNL     1       3.165   2.347  19.061  0.00  0.00    +0.000 NA
ATOM     18  C   UNL     1       3.274   3.631  18.671  0.00  0.00    +0.000 A 
ATOM     19  C   UNL     1       2.667   4.658  19.400  0.00  0.00    +0.000 A 
ATOM     20 BR   UNL     1       2.774   6.478  18.876  0.00  0.00    +0.000 Br
ATOM     21  C   UNL     1       1.955   4.341  20.564  0.00  0.00    +0.000 A 
ENDBRANCH   1  18
TORSDOF 2
ENDMDL
MODEL 8
REMARK VINA RESULT:      -6.6      3.122      7.138
REMARK  Name = 
REMARK  3 active torsions:
REMARK  status: ('A' for Active; 'I' for Inactive)
REMARK    1  A    between atoms: C_1  and  C_2
REMARK    2  A    between atoms: C_5  and  N_6
REMARK    3  A    between atoms: C_7  and  C_9
REMARK                            x       y       z     vdW  Elec       q    Type
REMARK                         _______ _______ _______ _____ _____    ______ ____
ROOT
ATOM      1  N   UNL     1       1.100   9.921  19.461  0.00  0.00    +0.000 N 
ATOM      2  C   UNL     1       1.803   9.182  18.526  0.00  0.00    +0.000 C 
ATOM      3  O   UNL     1       2.200   9.563  17.435  0.00  0.00    +0.000 OA
ATOM      4  H   UNL     1       0.858   9.514  20.352  0.00  0.00    +0.000 HD
ENDROOT
BRANCH   2   5
ATOM      5  C   UNL     1       2.119   7.773  18.891  0.00  0.00    +0.000 A 
ATOM      6  C   UNL     1       1.828   7.237  20.158  0.00  0.00    +0.000 A 
ATOM      7  C   UNL     1       2.069   5.880  20.440  0.00  0.00    +0.000 A 
ATOM      8  C   UNL     1       2.608   5.073  19.429  0.00  0.00    +0.000 A 
ATOM      9  N   UNL     1       2.933   3.741  19.409  0.00  0.00    +0.000 NA
ATOM     10  C   UNL     1       3.380   3.557  18.185  0.00  0.00    +0.000 A 
ATOM     11  O   UNL     1       3.377   4.659  17.384  0.00  0.00    +0.000 OA
ATOM     12  C   UNL     1       2.877   5.638  18.193  0.00  0.00    +0.000 A 
ATOM     13  C   UNL     1       2.654   6.966  17.868  0.00  0.00    +0.000 A 
ENDBRANCH   2   5
BRANCH   1  18
ATOM     14  C   UNL     1      -0.237  15.389  18.713  0.00  0.00    +0.000 C 
ATOM     15  C   UNL     1       0.061  13.937  18.910  0.00  0.00    +0.000 A 
ATOM     16  C   UNL     1       1.210  13.525  19.563  0.00  0.00    +0.000 A 
ATOM     17  N   UNL     1       1.550  12.235  19.744  0.00  0.00    +0.000 NA
ATOM     18  C   UNL     1       0.733  11.271  19.280  0.00  0.00    +0.000 A 
ATOM     19  C   UNL     1      -0.462  11.592  18.628  0.00  0.00    +0.000 A 
ATOM     20 BR   UNL     1      -1.655  10.268  17.978  0.00  0.00    +0.000 Br
ATOM     21  C   UNL     1      -0.795  12.940  18.439  0.00  0.00    +0.000 A 
ENDBRANCH   1  18
TORSDOF 2
ENDMDL
MODEL 9
REMARK VINA RESULT:      -6.4      2.638      7.099
REMARK  Name = 
REMARK  3 active torsions:
REMARK  status: ('A' for Active; 'I' for Inactive)
REMARK    1  A    between atoms: C_1  and  C_2
REMARK    2  A    between atoms: C_5  and  N_6
REMARK    3  A    between atoms: C_7  and  C_9
REMARK                            x       y       z     vdW  Elec       q    Type
REMARK                         _______ _______ _______ _____ _____    ______ ____
ROOT
ATOM      1  N   UNL     1       1.282   8.575  19.376  0.00  0.00    +0.000 N 
ATOM      2  C   UNL     1       2.137   8.472  18.293  0.00  0.00    +0.000 C 
ATOM      3  O   UNL     1       2.265   9.273  17.377  0.00  0.00    +0.000 OA
ATOM      4  H   UNL     1       1.290   7.870  20.097  0.00  0.00    +0.000 HD
ENDROOT
BRANCH   2   5
ATOM      5  C   UNL     1       3.003   7.262  18.239  0.00  0.00    +0.000 A 
ATOM      6  C   UNL     1       4.113   7.165  17.380  0.00  0.00    +0.000 A 
ATOM      7  C   UNL     1       4.955   6.038  17.414  0.00  0.00    +0.000 A 
ATOM      8  C   UNL     1       4.661   5.012  18.322  0.00  0.00    +0.000 A 
ATOM      9  N   UNL     1       5.294   3.823  18.583  0.00  0.00    +0.000 NA
ATOM     10  C   UNL     1       4.564   3.296  19.543  0.00  0.00    +0.000 A 
ATOM     11  O   UNL     1       3.494   4.038  19.945  0.00  0.00    +0.000 OA
ATOM     12  C   UNL     1       3.561   5.147  19.154  0.00  0.00    +0.000 A 
ATOM     13  C   UNL     1       2.706   6.238  19.159  0.00  0.00    +0.000 A 
ENDBRANCH   2   5
BRANCH   1  18
ATOM     14  C   UNL     1      -2.322  12.903  20.104  0.00  0.00    +0.000 C 
ATOM     15  C   UNL     1      -1.347  11.778  19.959  0.00  0.00    +0.000 A 
ATOM     16  C   UNL     1      -1.016  11.276  18.712  0.00  0.00    +0.000 A 
ATOM     17  N   UNL     1      -0.170  10.246  18.518  0.00  0.00    +0.000 NA
ATOM     18  C   UNL     1       0.407   9.662  19.585  0.00  0.00    +0.000 A 
ATOM     19  C   UNL     1       0.150  10.117  20.882  0.00  0.00    +0.000 A 
ATOM     20 BR   UNL     1       0.957   9.340  22.412  0.00  0.00    +0.000 Br
ATOM     21  C   UNL     1      -0.741  11.183  21.067  0.00  0.00    +0.000 A 
ENDBRANCH   1  18
TORSDOF 2
ENDMDL
