MODEL 1
REMARK VINA RESULT:      -8.3      0.000      0.000
REMARK  Name = 
REMARK  5 active torsions:
REMARK  status: ('A' for Active; 'I' for Inactive)
REMARK    1  A    between atoms: N_1  and  C_2
REMARK    2  A    between atoms: C_6  and  N_7
REMARK    3  A    between atoms: N_7  and  C_8
REMARK    4  A    between atoms: C_17  and  S_18
REMARK    5  A    between atoms: S_18  and  C_21
REMARK                            x       y       z     vdW  Elec       q    Type
REMARK                         _______ _______ _______ _____ _____    ______ ____
ROOT
ATOM      1  C   UNL     1       5.550   3.607  16.293  0.00  0.00    +0.000 A 
ATOM      2  N   UNL     1       5.570   3.147  15.017  0.00  0.00    +0.000 NA
ATOM      3  C   UNL     1       6.267   3.826  14.090  0.00  0.00    +0.000 A 
ATOM      4  C   UNL     1       6.283   3.360  12.783  0.00  0.00    +0.000 A 
ATOM      5  C   UNL     1       7.012   4.016  11.792  0.00  0.00    +0.000 A 
ATOM      6  C   UNL     1       7.729   5.162  12.115  0.00  0.00    +0.000 A 
ATOM      7  C   UNL     1       7.710   5.642  13.427  0.00  0.00    +0.000 A 
ATOM      8  C   UNL     1       6.994   4.992  14.423  0.00  0.00    +0.000 A 
ATOM      9  N   UNL     1       7.003   5.466  15.680  0.00  0.00    +0.000 NA
ATOM     10  C   UNL     1       6.270   4.756  16.591  0.00  0.00    +0.000 A 
ENDROOT
BRANCH  10  11
ATOM     11  S   UNL     1       6.310   5.436  18.227  0.00  0.00    +0.000 S 
ATOM     12  O   UNL     1       6.378   4.339  19.180  0.00  0.00    +0.000 OA
ATOM     13  O   UNL     1       7.357   6.449  18.265  0.00  0.00    +0.000 OA
BRANCH  11  14
ATOM     14  C   UNL     1       4.754   6.268  18.501  0.00  0.00    +0.000 A 
ATOM     15  C   UNL     1       4.262   7.150  17.531  0.00  0.00    +0.000 A 
ATOM     16  C   UNL     1       2.999   7.724  17.691  0.00  0.00    +0.000 A 
ATOM     17  C   UNL     1       2.230   7.410  18.817  0.00  0.00    +0.000 A 
ATOM     18  C   UNL     1       2.725   6.530  19.783  0.00  0.00    +0.000 A 
ATOM     19  C   UNL     1       3.987   5.954  19.628  0.00  0.00    +0.000 A 
ENDBRANCH  11  14
ENDBRANCH  10  11
BRANCH   1  20
ATOM     20  N   UNL     1       4.872   2.843  17.248  0.00  0.00    +0.000 N 
ATOM     21  H   UNL     1       5.463   2.217  17.793  0.00  0.00    +0.000 HD
BRANCH  20  26
ATOM     22  C   UNL     1       1.895   2.753  19.500  0.00  0.00    +0.000 A 
ATOM     23  C   UNL     1       1.012   3.548  18.773  0.00  0.00    +0.000 A 
ATOM     24  C   UNL     1       1.361   4.015  17.503  0.00  0.00    +0.000 A 
ATOM     25  C   UNL     1       2.632   3.757  16.984  0.00  0.00    +0.000 A 
ATOM     26  C   UNL     1       3.570   3.044  17.735  0.00  0.00    +0.000 A 
ATOM     27  C   UNL     1       3.176   2.534  18.984  0.00  0.00    +0.000 A 
BRANCH  22  28
ATOM     28  N   UNL     1       1.604   2.393  20.824  0.00  0.00    +0.000 N 
ATOM     29  H   UNL     1       0.826   1.748  20.913  0.00  0.00    +0.000 HD
ATOM     30  H   UNL     1       2.422   2.085  21.343  0.00  0.00    +0.000 HD
ENDBRANCH  22  28
ENDBRANCH  20  26
ENDBRANCH   1  20
TORSDOF 5
ENDMDL
MODEL 2
REMARK VINA RESULT:      -7.2      2.963      5.766
REMARK  Name = 
REMARK  5 active torsions:
REMARK  status: ('A' for Active; 'I' for Inactive)
REMARK    1  A    between atoms: N_1  and  C_2
REMARK    2  A    between atoms: C_6  and  N_7
REMARK    3  A    between atoms: N_7  and  C_8
REMARK    4  A    between atoms: C_17  and  S_18
REMARK    5  A    between atoms: S_18  and  C_21
REMARK                            x       y       z     vdW  Elec       q    Type
REMARK                         _______ _______ _______ _____ _____    ______ ____
ROOT
ATOM      1  C   UNL     1       3.125   6.063  17.759  0.00  0.00    +0.000 A 
ATOM      2  N   UNL     1       2.154   5.481  18.507  0.00  0.00    +0.000 NA
ATOM      3  C   UNL     1       2.096   4.140  18.569  0.00  0.00    +0.000 A 
ATOM      4  C   UNL     1       1.099   3.543  19.328  0.00  0.00    +0.000 A 
ATOM      5  C   UNL     1       1.012   2.156  19.442  0.00  0.00    +0.000 A 
ATOM      6  C   UNL     1       1.933   1.356  18.778  0.00  0.00    +0.000 A 
ATOM      7  C   UNL     1       2.933   1.949  18.003  0.00  0.00    +0.000 A 
ATOM      8  C   UNL     1       3.034   3.329  17.889  0.00  0.00    +0.000 A 
ATOM      9  N   UNL     1       4.013   3.876  17.150  0.00  0.00    +0.000 NA
ATOM     10  C   UNL     1       4.031   5.242  17.100  0.00  0.00    +0.000 A 
ENDROOT
BRANCH  10  11
ATOM     11  S   UNL     1       5.336   5.905  16.101  0.00  0.00    +0.000 S 
ATOM     12  O   UNL     1       5.884   4.831  15.287  0.00  0.00    +0.000 OA
ATOM     13  O   UNL     1       4.824   7.091  15.426  0.00  0.00    +0.000 OA
BRANCH  11  14
ATOM     14  C   UNL     1       6.637   6.439  17.201  0.00  0.00    +0.000 A 
ATOM     15  C   UNL     1       7.143   7.740  17.095  0.00  0.00    +0.000 A 
ATOM     16  C   UNL     1       8.085   8.197  18.018  0.00  0.00    +0.000 A 
ATOM     17  C   UNL     1       8.516   7.353  19.047  0.00  0.00    +0.000 A 
ATOM     18  C   UNL     1       8.011   6.054  19.150  0.00  0.00    +0.000 A 
ATOM     19  C   UNL     1       7.068   5.593  18.229  0.00  0.00    +0.000 A 
ENDBRANCH  11  14
ENDBRANCH  10  11
BRANCH   1  20
ATOM     20  N   UNL     1       3.203   7.460  17.769  0.00  0.00    +0.000 N 
ATOM     21  H   UNL     1       3.795   7.859  17.043  0.00  0.00    +0.000 HD
BRANCH  20  26
ATOM     22  C   UNL     1       1.109   8.996  20.451  0.00  0.00    +0.000 A 
ATOM     23  C   UNL     1       0.773  10.202  19.841  0.00  0.00    +0.000 A 
ATOM     24  C   UNL     1       1.144  10.454  18.517  0.00  0.00    +0.000 A 
ATOM     25  C   UNL     1       1.926   9.531  17.819  0.00  0.00    +0.000 A 
ATOM     26  C   UNL     1       2.357   8.357  18.442  0.00  0.00    +0.000 A 
ATOM     27  C   UNL     1       1.922   8.099  19.753  0.00  0.00    +0.000 A 
BRANCH  22  28
ATOM     28  N   UNL     1       0.855   8.793  21.816  0.00  0.00    +0.000 N 
ATOM     29  H   UNL     1       1.649   8.993  22.415  0.00  0.00    +0.000 HD
ATOM     30  H   UNL     1       0.006   9.248  22.137  0.00  0.00    +0.000 HD
ENDBRANCH  22  28
ENDBRANCH  20  26
ENDBRANCH   1  20
TORSDOF 5
ENDMDL
MODEL 3
REMARK VINA RESULT:      -7.1      3.179      5.951
REMARK  Name = 
REMARK  5 active torsions:
REMARK  status: ('A' for Active; 'I' for Inactive)
REMARK    1  A    between atoms: N_1  and  C_2
REMARK    2  A    between atoms: C_6  and  N_7
REMARK    3  A    between atoms: N_7  and  C_8
REMARK    4  A    between atoms: C_17  and  S_18
REMARK    5  A    between atoms: S_18  and  C_21
REMARK                            x       y       z     vdW  Elec       q    Type
REMARK                         _______ _______ _______ _____ _____    ______ ____
ROOT
ATOM      1  C   UNL     1       3.043   6.110  17.829  0.00  0.00    +0.000 A 
ATOM      2  N   UNL     1       2.124   5.452  18.580  0.00  0.00    +0.000 NA
ATOM      3  C   UNL     1       2.148   4.109  18.608  0.00  0.00    +0.000 A 
ATOM      4  C   UNL     1       1.206   3.433  19.370  0.00  0.00    +0.000 A 
ATOM      5  C   UNL     1       1.205   2.042  19.450  0.00  0.00    +0.000 A 
ATOM      6  C   UNL     1       2.158   1.316  18.747  0.00  0.00    +0.000 A 
ATOM      7  C   UNL     1       3.104   1.988  17.969  0.00  0.00    +0.000 A 
ATOM      8  C   UNL     1       3.119   3.374  17.889  0.00  0.00    +0.000 A 
ATOM      9  N   UNL     1       4.048   3.998  17.146  0.00  0.00    +0.000 NA
ATOM     10  C   UNL     1       3.983   5.363  17.132  0.00  0.00    +0.000 A 
ENDROOT
BRANCH  10  11
ATOM     11  S   UNL     1       5.224   6.129  16.125  0.00  0.00    +0.000 S 
ATOM     12  O   UNL     1       5.745   5.134  15.200  0.00  0.00    +0.000 OA
ATOM     13  O   UNL     1       4.660   7.355  15.574  0.00  0.00    +0.000 OA
BRANCH  11  14
ATOM     14  C   UNL     1       6.571   6.598  17.198  0.00  0.00    +0.000 A 
ATOM     15  C   UNL     1       7.113   7.886  17.106  0.00  0.00    +0.000 A 
ATOM     16  C   UNL     1       8.095   8.294  18.011  0.00  0.00    +0.000 A 
ATOM     17  C   UNL     1       8.529   7.414  19.008  0.00  0.00    +0.000 A 
ATOM     18  C   UNL     1       7.988   6.128  19.097  0.00  0.00    +0.000 A 
ATOM     19  C   UNL     1       7.006   5.717  18.194  0.00  0.00    +0.000 A 
ENDBRANCH  11  14
ENDBRANCH  10  11
BRANCH   1  20
ATOM     20  N   UNL     1       3.036   7.509  17.874  0.00  0.00    +0.000 N 
ATOM     21  H   UNL     1       3.601   7.962  17.158  0.00  0.00    +0.000 HD
BRANCH  20  26
ATOM     22  C   UNL     1       0.504  10.161  18.578  0.00  0.00    +0.000 A 
ATOM     23  C   UNL     1       0.254   9.912  19.925  0.00  0.00    +0.000 A 
ATOM     24  C   UNL     1       0.996   8.950  20.617  0.00  0.00    +0.000 A 
ATOM     25  C   UNL     1       1.940   8.172  19.944  0.00  0.00    +0.000 A 
ATOM     26  C   UNL     1       2.140   8.337  18.571  0.00  0.00    +0.000 A 
ATOM     27  C   UNL     1       1.425   9.350  17.909  0.00  0.00    +0.000 A 
BRANCH  22  28
ATOM     28  N   UNL     1      -0.324  11.028  17.848  0.00  0.00    +0.000 N 
ATOM     29  H   UNL     1      -0.109  12.010  17.981  0.00  0.00    +0.000 HD
ATOM     30  H   UNL     1      -0.397  10.778  16.866  0.00  0.00    +0.000 HD
ENDBRANCH  22  28
ENDBRANCH  20  26
ENDBRANCH   1  20
TORSDOF 5
ENDMDL
MODEL 4
REMARK VINA RESULT:      -7.0      3.337      5.875
REMARK  Name = 
REMARK  5 active torsions:
REMARK  status: ('A' for Active; 'I' for Inactive)
REMARK    1  A    between atoms: N_1  and  C_2
REMARK    2  A    between atoms: C_6  and  N_7
REMARK    3  A    between atoms: N_7  and  C_8
REMARK    4  A    between atoms: C_17  and  S_18
REMARK    5  A    between atoms: S_18  and  C_21
REMARK                            x       y       z     vdW  Elec       q    Type
REMARK                         _______ _______ _______ _____ _____    ______ ____
ROOT
ATOM      1  C   UNL     1       3.002   6.666  19.136  0.00  0.00    +0.000 A 
ATOM      2  N   UNL     1       2.092   7.305  19.914  0.00  0.00    +0.000 NA
ATOM      3  C   UNL     1       1.588   8.478  19.496  0.00  0.00    +0.000 A 
ATOM      4  C   UNL     1       0.662   9.136  20.293  0.00  0.00    +0.000 A 
ATOM      5  C   UNL     1       0.092  10.343  19.891  0.00  0.00    +0.000 A 
ATOM      6  C   UNL     1       0.463  10.903  18.675  0.00  0.00    +0.000 A 
ATOM      7  C   UNL     1       1.402  10.252  17.872  0.00  0.00    +0.000 A 
ATOM      8  C   UNL     1       1.970   9.045  18.259  0.00  0.00    +0.000 A 
ATOM      9  N   UNL     1       2.860   8.431  17.461  0.00  0.00    +0.000 NA
ATOM     10  C   UNL     1       3.361   7.248  17.927  0.00  0.00    +0.000 A 
ENDROOT
BRANCH  10  11
ATOM     11  S   UNL     1       4.539   6.491  16.840  0.00  0.00    +0.000 S 
ATOM     12  O   UNL     1       4.204   5.082  16.708  0.00  0.00    +0.000 OA
ATOM     13  O   UNL     1       4.613   7.300  15.629  0.00  0.00    +0.000 OA
BRANCH  11  14
ATOM     14  C   UNL     1       6.135   6.575  17.635  0.00  0.00    +0.000 A 
ATOM     15  C   UNL     1       6.942   7.704  17.450  0.00  0.00    +0.000 A 
ATOM     16  C   UNL     1       8.144   7.822  18.150  0.00  0.00    +0.000 A 
ATOM     17  C   UNL     1       8.533   6.813  19.037  0.00  0.00    +0.000 A 
ATOM     18  C   UNL     1       7.727   5.686  19.220  0.00  0.00    +0.000 A 
ATOM     19  C   UNL     1       6.524   5.564  18.521  0.00  0.00    +0.000 A 
ENDBRANCH  11  14
ENDBRANCH  10  11
BRANCH   1  20
ATOM     20  N   UNL     1       3.458   5.415  19.565  0.00  0.00    +0.000 N 
ATOM     21  H   UNL     1       4.140   5.445  20.321  0.00  0.00    +0.000 HD
BRANCH  20  26
ATOM     22  C   UNL     1       3.143   1.800  18.686  0.00  0.00    +0.000 A 
ATOM     23  C   UNL     1       1.776   1.618  18.879  0.00  0.00    +0.000 A 
ATOM     24  C   UNL     1       0.953   2.705  19.188  0.00  0.00    +0.000 A 
ATOM     25  C   UNL     1       1.507   3.971  19.388  0.00  0.00    +0.000 A 
ATOM     26  C   UNL     1       2.888   4.159  19.295  0.00  0.00    +0.000 A 
ATOM     27  C   UNL     1       3.688   3.065  18.925  0.00  0.00    +0.000 A 
BRANCH  22  28
ATOM     28  N   UNL     1       3.991   0.696  18.507  0.00  0.00    +0.000 N 
ATOM     29  H   UNL     1       3.507  -0.195  18.498  0.00  0.00    +0.000 HD
ATOM     30  H   UNL     1       4.622   0.801  17.718  0.00  0.00    +0.000 HD
ENDBRANCH  22  28
ENDBRANCH  20  26
ENDBRANCH   1  20
TORSDOF 5
ENDMDL
MODEL 5
REMARK VINA RESULT:      -7.0      6.680      9.325
REMARK  Name = 
REMARK  5 active torsions:
REMARK  status: ('A' for Active; 'I' for Inactive)
REMARK    1  A    between atoms: N_1  and  C_2
REMARK    2  A    between atoms: C_6  and  N_7
REMARK    3  A    between atoms: N_7  and  C_8
REMARK    4  A    between atoms: C_17  and  S_18
REMARK    5  A    between atoms: S_18  and  C_21
REMARK                            x       y       z     vdW  Elec       q    Type
REMARK                         _______ _______ _______ _____ _____    ______ ____
ROOT
ATOM      1  C   UNL     1       0.149  10.293  18.970  0.00  0.00    +0.000 A 
ATOM      2  N   UNL     1      -0.482   9.977  17.812  0.00  0.00    +0.000 NA
ATOM      3  C   UNL     1      -1.739  10.410  17.617  0.00  0.00    +0.000 A 
ATOM      4  C   UNL     1      -2.389  10.083  16.435  0.00  0.00    +0.000 A 
ATOM      5  C   UNL     1      -3.685  10.528  16.177  0.00  0.00    +0.000 A 
ATOM      6  C   UNL     1      -4.342  11.306  17.121  0.00  0.00    +0.000 A 
ATOM      7  C   UNL     1      -3.698  11.631  18.318  0.00  0.00    +0.000 A 
ATOM      8  C   UNL     1      -2.405  11.200  18.582  0.00  0.00    +0.000 A 
ATOM      9  N   UNL     1      -1.802  11.538  19.734  0.00  0.00    +0.000 NA
ATOM     10  C   UNL     1      -0.529  11.067  19.902  0.00  0.00    +0.000 A 
ENDROOT
BRANCH  10  11
ATOM     11  S   UNL     1       0.209  11.534  21.444  0.00  0.00    +0.000 S 
ATOM     12  O   UNL     1       0.539  10.325  22.181  0.00  0.00    +0.000 OA
ATOM     13  O   UNL     1       1.279  12.482  21.159  0.00  0.00    +0.000 OA
BRANCH  11  14
ATOM     14  C   UNL     1      -1.031  12.400  22.392  0.00  0.00    +0.000 A 
ATOM     15  C   UNL     1      -1.041  13.800  22.404  0.00  0.00    +0.000 A 
ATOM     16  C   UNL     1      -2.069  14.483  23.058  0.00  0.00    +0.000 A 
ATOM     17  C   UNL     1      -3.085  13.763  23.694  0.00  0.00    +0.000 A 
ATOM     18  C   UNL     1      -3.072  12.366  23.683  0.00  0.00    +0.000 A 
ATOM     19  C   UNL     1      -2.046  11.679  23.030  0.00  0.00    +0.000 A 
ENDBRANCH  11  14
ENDBRANCH  10  11
BRANCH   1  20
ATOM     20  N   UNL     1       1.480   9.886  19.116  0.00  0.00    +0.000 N 
ATOM     21  H   UNL     1       2.091  10.573  19.556  0.00  0.00    +0.000 HD
BRANCH  20  26
ATOM     22  C   UNL     1       2.352   6.358  19.970  0.00  0.00    +0.000 A 
ATOM     23  C   UNL     1       2.895   5.938  18.758  0.00  0.00    +0.000 A 
ATOM     24  C   UNL     1       3.071   6.844  17.708  0.00  0.00    +0.000 A 
ATOM     25  C   UNL     1       2.627   8.162  17.837  0.00  0.00    +0.000 A 
ATOM     26  C   UNL     1       1.992   8.582  19.008  0.00  0.00    +0.000 A 
ATOM     27  C   UNL     1       1.880   7.670  20.071  0.00  0.00    +0.000 A 
BRANCH  22  28
ATOM     28  N   UNL     1       2.053   5.428  20.977  0.00  0.00    +0.000 N 
ATOM     29  H   UNL     1       2.369   5.705  21.899  0.00  0.00    +0.000 HD
ATOM     30  H   UNL     1       1.080   5.135  20.974  0.00  0.00    +0.000 HD
ENDBRANCH  22  28
ENDBRANCH  20  26
ENDBRANCH   1  20
TORSDOF 5
ENDMDL
MODEL 6
REMARK VINA RESULT:      -6.9      3.468      6.007
REMARK  Name = 
REMARK  5 active torsions:
REMARK  status: ('A' for Active; 'I' for Inactive)
REMARK    1  A    between atoms: N_1  and  C_2
REMARK    2  A    between atoms: C_6  and  N_7
REMARK    3  A    between atoms: N_7  and  C_8
REMARK    4  A    between atoms: C_17  and  S_18
REMARK    5  A    between atoms: S_18  and  C_21
REMARK                            x       y       z     vdW  Elec       q    Type
REMARK                         _______ _______ _______ _____ _____    ______ ____
ROOT
ATOM      1  C   UNL     1       2.951   6.820  19.265  0.00  0.00    +0.000 A 
ATOM      2  N   UNL     1       2.073   7.526  20.020  0.00  0.00    +0.000 NA
ATOM      3  C   UNL     1       1.563   8.668  19.529  0.00  0.00    +0.000 A 
ATOM      4  C   UNL     1       0.669   9.395  20.302  0.00  0.00    +0.000 A 
ATOM      5  C   UNL     1       0.095  10.573  19.826  0.00  0.00    +0.000 A 
ATOM      6  C   UNL     1       0.429  11.033  18.559  0.00  0.00    +0.000 A 
ATOM      7  C   UNL     1       1.335  10.311  17.778  0.00  0.00    +0.000 A 
ATOM      8  C   UNL     1       1.907   9.133  18.239  0.00  0.00    +0.000 A 
ATOM      9  N   UNL     1       2.765   8.450  17.463  0.00  0.00    +0.000 NA
ATOM     10  C   UNL     1       3.273   7.302  18.004  0.00  0.00    +0.000 A 
ENDROOT
BRANCH  10  11
ATOM     11  S   UNL     1       4.408   6.451  16.940  0.00  0.00    +0.000 S 
ATOM     12  O   UNL     1       4.057   5.040  16.927  0.00  0.00    +0.000 OA
ATOM     13  O   UNL     1       4.450   7.165  15.670  0.00  0.00    +0.000 OA
BRANCH  11  14
ATOM     14  C   UNL     1       6.030   6.578  17.676  0.00  0.00    +0.000 A 
ATOM     15  C   UNL     1       6.822   7.703  17.415  0.00  0.00    +0.000 A 
ATOM     16  C   UNL     1       8.047   7.857  18.068  0.00  0.00    +0.000 A 
ATOM     17  C   UNL     1       8.473   6.888  18.982  0.00  0.00    +0.000 A 
ATOM     18  C   UNL     1       7.682   5.765  19.239  0.00  0.00    +0.000 A 
ATOM     19  C   UNL     1       6.456   5.607  18.589  0.00  0.00    +0.000 A 
ENDBRANCH  11  14
ENDBRANCH  10  11
BRANCH   1  20
ATOM     20  N   UNL     1       3.413   5.601  19.775  0.00  0.00    +0.000 N 
ATOM     21  H   UNL     1       4.373   5.617  20.115  0.00  0.00    +0.000 HD
BRANCH  20  26
ATOM     22  C   UNL     1       1.256   2.566  19.508  0.00  0.00    +0.000 A 
ATOM     23  C   UNL     1       1.217   2.173  20.844  0.00  0.00    +0.000 A 
ATOM     24  C   UNL     1       1.805   2.966  21.833  0.00  0.00    +0.000 A 
ATOM     25  C   UNL     1       2.510   4.120  21.482  0.00  0.00    +0.000 A 
ATOM     26  C   UNL     1       2.646   4.482  20.140  0.00  0.00    +0.000 A 
ATOM     27  C   UNL     1       1.995   3.702  19.168  0.00  0.00    +0.000 A 
BRANCH  22  28
ATOM     28  N   UNL     1       0.784   1.711  18.500  0.00  0.00    +0.000 N 
ATOM     29  H   UNL     1      -0.055   2.045  18.039  0.00  0.00    +0.000 HD
ATOM     30  H   UNL     1       1.505   1.437  17.840  0.00  0.00    +0.000 HD
ENDBRANCH  22  28
ENDBRANCH  20  26
ENDBRANCH   1  20
TORSDOF 5
ENDMDL
MODEL 7
REMARK VINA RESULT:      -6.9      9.335     12.746
REMARK  Name = 
REMARK  5 active torsions:
REMARK  status: ('A' for Active; 'I' for Inactive)
REMARK    1  A    between atoms: N_1  and  C_2
REMARK    2  A    between atoms: C_6  and  N_7
REMARK    3  A    between atoms: N_7  and  C_8
REMARK    4  A    between atoms: C_17  and  S_18
REMARK    5  A    between atoms: S_18  and  C_21
REMARK                            x       y       z     vdW  Elec       q    Type
REMARK                         _______ _______ _______ _____ _____    ______ ____
ROOT
ATOM      1  C   UNL     1      -3.597  12.755  20.596  0.00  0.00    +0.000 A 
ATOM      2  N   UNL     1      -4.938  12.594  20.469  0.00  0.00    +0.000 NA
ATOM      3  C   UNL     1      -5.705  12.630  21.571  0.00  0.00    +0.000 A 
ATOM      4  C   UNL     1      -7.076  12.459  21.444  0.00  0.00    +0.000 A 
ATOM      5  C   UNL     1      -7.916  12.512  22.555  0.00  0.00    +0.000 A 
ATOM      6  C   UNL     1      -7.372  12.732  23.814  0.00  0.00    +0.000 A 
ATOM      7  C   UNL     1      -5.991  12.894  23.952  0.00  0.00    +0.000 A 
ATOM      8  C   UNL     1      -5.147  12.851  22.851  0.00  0.00    +0.000 A 
ATOM      9  N   UNL     1      -3.824  13.025  23.007  0.00  0.00    +0.000 NA
ATOM     10  C   UNL     1      -3.075  12.967  21.865  0.00  0.00    +0.000 A 
ENDROOT
BRANCH  10  11
ATOM     11  S   UNL     1      -1.337  13.191  22.135  0.00  0.00    +0.000 S 
ATOM     12  O   UNL     1      -0.787  13.927  21.008  0.00  0.00    +0.000 OA
ATOM     13  O   UNL     1      -1.161  13.742  23.473  0.00  0.00    +0.000 OA
BRANCH  11  14
ATOM     14  C   UNL     1      -0.580  11.574  22.121  0.00  0.00    +0.000 A 
ATOM     15  C   UNL     1       0.430  11.291  21.194  0.00  0.00    +0.000 A 
ATOM     16  C   UNL     1       1.097  10.066  21.244  0.00  0.00    +0.000 A 
ATOM     17  C   UNL     1       0.755   9.129  22.226  0.00  0.00    +0.000 A 
ATOM     18  C   UNL     1      -0.254   9.413  23.149  0.00  0.00    +0.000 A 
ATOM     19  C   UNL     1      -0.924  10.637  23.102  0.00  0.00    +0.000 A 
ENDBRANCH  11  14
ENDBRANCH  10  11
BRANCH   1  20
ATOM     20  N   UNL     1      -2.832  12.780  19.424  0.00  0.00    +0.000 N 
ATOM     21  H   UNL     1      -2.148  13.534  19.377  0.00  0.00    +0.000 HD
BRANCH  20  26
ATOM     22  C   UNL     1      -3.484  10.596  16.467  0.00  0.00    +0.000 A 
ATOM     23  C   UNL     1      -2.348   9.791  16.500  0.00  0.00    +0.000 A 
ATOM     24  C   UNL     1      -1.434   9.898  17.552  0.00  0.00    +0.000 A 
ATOM     25  C   UNL     1      -1.609  10.871  18.539  0.00  0.00    +0.000 A 
ATOM     26  C   UNL     1      -2.690  11.754  18.475  0.00  0.00    +0.000 A 
ATOM     27  C   UNL     1      -3.627  11.589  17.441  0.00  0.00    +0.000 A 
BRANCH  22  28
ATOM     28  N   UNL     1      -4.333  10.585  15.350  0.00  0.00    +0.000 N 
ATOM     29  H   UNL     1      -4.619   9.656  15.060  0.00  0.00    +0.000 HD
ATOM     30  H   UNL     1      -5.120  11.221  15.440  0.00  0.00    +0.000 HD
ENDBRANCH  22  28
ENDBRANCH  20  26
ENDBRANCH   1  20
TORSDOF 5
ENDMDL
MODEL 8
REMARK VINA RESULT:      -6.8      3.355      5.835
REMARK  Name = 
REMARK  5 active torsions:
REMARK  status: ('A' for Active; 'I' for Inactive)
REMARK    1  A    between atoms: N_1  and  C_2
REMARK    2  A    between atoms: C_6  and  N_7
REMARK    3  A    between atoms: N_7  and  C_8
REMARK    4  A    between atoms: C_17  and  S_18
REMARK    5  A    between atoms: S_18  and  C_21
REMARK                            x       y       z     vdW  Elec       q    Type
REMARK                         _______ _______ _______ _____ _____    ______ ____
ROOT
ATOM      1  C   UNL     1       2.970   6.730  19.015  0.00  0.00    +0.000 A 
ATOM      2  N   UNL     1       2.058   7.374  19.785  0.00  0.00    +0.000 NA
ATOM      3  C   UNL     1       1.600   8.573  19.386  0.00  0.00    +0.000 A 
ATOM      4  C   UNL     1       0.671   9.237  20.175  0.00  0.00    +0.000 A 
ATOM      5  C   UNL     1       0.149  10.471  19.792  0.00  0.00    +0.000 A 
ATOM      6  C   UNL     1       0.570  11.052  18.602  0.00  0.00    +0.000 A 
ATOM      7  C   UNL     1       1.512  10.394  17.807  0.00  0.00    +0.000 A 
ATOM      8  C   UNL     1       2.033   9.161  18.176  0.00  0.00    +0.000 A 
ATOM      9  N   UNL     1       2.927   8.543  17.387  0.00  0.00    +0.000 NA
ATOM     10  C   UNL     1       3.380   7.332  17.833  0.00  0.00    +0.000 A 
ENDROOT
BRANCH  10  11
ATOM     11  S   UNL     1       4.565   6.571  16.758  0.00  0.00    +0.000 S 
ATOM     12  O   UNL     1       4.243   5.156  16.646  0.00  0.00    +0.000 OA
ATOM     13  O   UNL     1       4.633   7.362  15.536  0.00  0.00    +0.000 OA
BRANCH  11  14
ATOM     14  C   UNL     1       6.159   6.680  17.554  0.00  0.00    +0.000 A 
ATOM     15  C   UNL     1       6.936   7.834  17.390  0.00  0.00    +0.000 A 
ATOM     16  C   UNL     1       8.136   7.969  18.092  0.00  0.00    +0.000 A 
ATOM     17  C   UNL     1       8.553   6.952  18.958  0.00  0.00    +0.000 A 
ATOM     18  C   UNL     1       7.777   5.802  19.118  0.00  0.00    +0.000 A 
ATOM     19  C   UNL     1       6.576   5.662  18.418  0.00  0.00    +0.000 A 
ENDBRANCH  11  14
ENDBRANCH  10  11
BRANCH   1  20
ATOM     20  N   UNL     1       3.377   5.454  19.422  0.00  0.00    +0.000 N 
ATOM     21  H   UNL     1       4.310   5.414  19.829  0.00  0.00    +0.000 HD
BRANCH  20  26
ATOM     22  C   UNL     1       1.581   2.637  21.088  0.00  0.00    +0.000 A 
ATOM     23  C   UNL     1       0.864   2.129  20.008  0.00  0.00    +0.000 A 
ATOM     24  C   UNL     1       1.059   2.644  18.723  0.00  0.00    +0.000 A 
ATOM     25  C   UNL     1       1.915   3.729  18.523  0.00  0.00    +0.000 A 
ATOM     26  C   UNL     1       2.571   4.319  19.606  0.00  0.00    +0.000 A 
ATOM     27  C   UNL     1       2.406   3.746  20.879  0.00  0.00    +0.000 A 
BRANCH  22  28
ATOM     28  N   UNL     1       1.294   2.216  22.395  0.00  0.00    +0.000 N 
ATOM     29  H   UNL     1       1.517   2.904  23.107  0.00  0.00    +0.000 HD
ATOM     30  H   UNL     1       0.354   1.845  22.498  0.00  0.00    +0.000 HD
ENDBRANCH  22  28
ENDBRANCH  20  26
ENDBRANCH   1  20
TORSDOF 5
ENDMDL
MODEL 9
REMARK VINA RESULT:      -6.8      6.918      9.754
REMARK  Name = 
REMARK  5 active torsions:
REMARK  status: ('A' for Active; 'I' for Inactive)
REMARK    1  A    between atoms: N_1  and  C_2
REMARK    2  A    between atoms: C_6  and  N_7
REMARK    3  A    between atoms: N_7  and  C_8
REMARK    4  A    between atoms: C_17  and  S_18
REMARK    5  A    between atoms: S_18  and  C_21
REMARK                            x       y       z     vdW  Elec       q    Type
REMARK                         _______ _______ _______ _____ _____    ______ ____
ROOT
ATOM      1  C   UNL     1      -0.494  11.513  19.733  0.00  0.00    +0.000 A 
ATOM      2  N   UNL     1      -0.540  12.765  19.213  0.00  0.00    +0.000 NA
ATOM      3  C   UNL     1       0.438  13.634  19.520  0.00  0.00    +0.000 A 
ATOM      4  C   UNL     1       0.390  14.917  18.994  0.00  0.00    +0.000 A 
ATOM      5  C   UNL     1       1.394  15.846  19.264  0.00  0.00    +0.000 A 
ATOM      6  C   UNL     1       2.458  15.485  20.081  0.00  0.00    +0.000 A 
ATOM      7  C   UNL     1       2.509  14.198  20.623  0.00  0.00    +0.000 A 
ATOM      8  C   UNL     1       1.518  13.263  20.354  0.00  0.00    +0.000 A 
ATOM      9  N   UNL     1       1.597  12.027  20.875  0.00  0.00    +0.000 NA
ATOM     10  C   UNL     1       0.577  11.177  20.551  0.00  0.00    +0.000 A 
ENDROOT
BRANCH  10  11
ATOM     11  S   UNL     1       0.728   9.567  21.277  0.00  0.00    +0.000 S 
ATOM     12  O   UNL     1       1.659   9.650  22.391  0.00  0.00    +0.000 OA
ATOM     13  O   UNL     1      -0.615   9.065  21.536  0.00  0.00    +0.000 OA
BRANCH  11  14
ATOM     14  C   UNL     1       1.471   8.496  20.057  0.00  0.00    +0.000 A 
ATOM     15  C   UNL     1       1.721   8.984  18.768  0.00  0.00    +0.000 A 
ATOM     16  C   UNL     1       2.395   8.187  17.841  0.00  0.00    +0.000 A 
ATOM     17  C   UNL     1       2.821   6.905  18.207  0.00  0.00    +0.000 A 
ATOM     18  C   UNL     1       2.569   6.420  19.493  0.00  0.00    +0.000 A 
ATOM     19  C   UNL     1       1.895   7.214  20.423  0.00  0.00    +0.000 A 
ENDBRANCH  11  14
ENDBRANCH  10  11
BRANCH   1  20
ATOM     20  N   UNL     1      -1.489  10.611  19.342  0.00  0.00    +0.000 N 
ATOM     21  H   UNL     1      -1.804   9.978  20.075  0.00  0.00    +0.000 HD
BRANCH  20  26
ATOM     22  C   UNL     1      -4.281  11.501  17.028  0.00  0.00    +0.000 A 
ATOM     23  C   UNL     1      -3.831  10.899  15.856  0.00  0.00    +0.000 A 
ATOM     24  C   UNL     1      -2.674  10.114  15.861  0.00  0.00    +0.000 A 
ATOM     25  C   UNL     1      -1.911   9.995  17.025  0.00  0.00    +0.000 A 
ATOM     26  C   UNL     1      -2.290  10.670  18.189  0.00  0.00    +0.000 A 
ATOM     27  C   UNL     1      -3.489  11.403  18.175  0.00  0.00    +0.000 A 
BRANCH  22  28
ATOM     28  N   UNL     1      -5.363  12.393  17.000  0.00  0.00    +0.000 N 
ATOM     29  H   UNL     1      -5.224  13.189  16.387  0.00  0.00    +0.000 HD
ATOM     30  H   UNL     1      -6.256  11.934  16.841  0.00  0.00    +0.000 HD
ENDBRANCH  22  28
ENDBRANCH  20  26
ENDBRANCH   1  20
TORSDOF 5
ENDMDL
