MODEL 1
REMARK VINA RESULT:      -8.1      0.000      0.000
REMARK  Name = 
REMARK  8 active torsions:
REMARK  status: ('A' for Active; 'I' for Inactive)
REMARK    1  A    between atoms: O_1  and  C_2
REMARK    2  A    between atoms: C_2  and  C_3
REMARK    3  A    between atoms: C_3  and  O_4
REMARK    4  A    between atoms: C_3  and  C_5
REMARK    5  A    between atoms: C_9  and  C_10
REMARK    6  A    between atoms: C_13  and  O_14
REMARK    7  A    between atoms: O_14  and  C_15
REMARK    8  A    between atoms: C_18  and  C_19
REMARK                            x       y       z     vdW  Elec       q    Type
REMARK                         _______ _______ _______ _____ _____    ______ ____
ROOT
ATOM      1  C   UNL     1       2.597   7.120  18.875  0.00  0.00    +0.000 A 
ATOM      2  C   UNL     1       2.601   8.036  17.805  0.00  0.00    +0.000 A 
ATOM      3  C   UNL     1       1.928   9.258  17.899  0.00  0.00    +0.000 A 
ATOM      4  C   UNL     1       1.226   9.590  19.056  0.00  0.00    +0.000 A 
ATOM      5  C   UNL     1       1.250   8.726  20.145  0.00  0.00    +0.000 A 
ATOM      6  C   UNL     1       1.906   7.492  20.044  0.00  0.00    +0.000 A 
ENDROOT
BRANCH   1  11
ATOM      7  C   UNL     1       3.136   3.539  19.317  0.00  0.00    +0.000 A 
ATOM      8  C   UNL     1       4.342   3.280  18.677  0.00  0.00    +0.000 A 
ATOM      9  C   UNL     1       5.024   4.332  18.084  0.00  0.00    +0.000 A 
ATOM     10  C   UNL     1       4.482   5.613  18.135  0.00  0.00    +0.000 A 
ATOM     11  C   UNL     1       3.268   5.808  18.788  0.00  0.00    +0.000 A 
ATOM     12  N   UNL     1       2.608   4.786  19.383  0.00  0.00    +0.000 NA
BRANCH   7  13
ATOM     13  C   UNL     1       2.346   2.393  19.917  0.00  0.00    +0.000 C 
BRANCH  13  14
ATOM     14  O   UNL     1       1.618   1.748  18.857  0.00  0.00    +0.000 OA
ATOM     15  H   UNL     1       1.810   0.796  18.941  0.00  0.00    +0.000 HD
ENDBRANCH  13  14
BRANCH  13  16
ATOM     16  C   UNL     1       1.373   2.852  21.019  0.00  0.00    +0.000 C 
BRANCH  16  17
ATOM     17  O   UNL     1       2.112   3.279  22.169  0.00  0.00    +0.000 OA
ATOM     18  H   UNL     1       1.519   3.173  22.934  0.00  0.00    +0.000 HD
ENDBRANCH  16  17
ENDBRANCH  13  16
ENDBRANCH   7  13
ENDBRANCH   1  11
BRANCH   4  19
ATOM     19  O   UNL     1       0.594  10.813  19.055  0.00  0.00    +0.000 OA
BRANCH  19  20
ATOM     20  C   UNL     1      -0.732  10.885  18.713  0.00  0.00    +0.000 A 
ATOM     21  C   UNL     1      -1.346  10.129  17.718  0.00  0.00    +0.000 A 
ATOM     22  C   UNL     1      -2.710  10.287  17.475  0.00  0.00    +0.000 A 
ATOM     23  C   UNL     1      -3.430  11.236  18.206  0.00  0.00    +0.000 A 
ATOM     24  N   UNL     1      -2.827  12.019  19.147  0.00  0.00    +0.000 NA
ATOM     25  C   UNL     1      -1.504  11.829  19.372  0.00  0.00    +0.000 A 
BRANCH  23  26
ATOM     26  C   UNL     1      -4.923  11.410  17.953  0.00  0.00    +0.000 C 
ATOM     27  F   UNL     1      -5.236  11.505  16.624  0.00  0.00    +0.000 F 
ATOM     28  F   UNL     1      -5.674  10.374  18.424  0.00  0.00    +0.000 F 
ATOM     29  F   UNL     1      -5.434  12.540  18.522  0.00  0.00    +0.000 F 
ENDBRANCH  23  26
ENDBRANCH  19  20
ENDBRANCH   4  19
TORSDOF 8
ENDMDL
MODEL 2
REMARK VINA RESULT:      -8.1      0.195      1.155
REMARK  Name = 
REMARK  8 active torsions:
REMARK  status: ('A' for Active; 'I' for Inactive)
REMARK    1  A    between atoms: O_1  and  C_2
REMARK    2  A    between atoms: C_2  and  C_3
REMARK    3  A    between atoms: C_3  and  O_4
REMARK    4  A    between atoms: C_3  and  C_5
REMARK    5  A    between atoms: C_9  and  C_10
REMARK    6  A    between atoms: C_13  and  O_14
REMARK    7  A    between atoms: O_14  and  C_15
REMARK    8  A    between atoms: C_18  and  C_19
REMARK                            x       y       z     vdW  Elec       q    Type
REMARK                         _______ _______ _______ _____ _____    ______ ____
ROOT
ATOM      1  C   UNL     1       2.567   7.097  19.009  0.00  0.00    +0.000 A 
ATOM      2  C   UNL     1       1.864   7.555  20.140  0.00  0.00    +0.000 A 
ATOM      3  C   UNL     1       1.235   8.804  20.142  0.00  0.00    +0.000 A 
ATOM      4  C   UNL     1       1.302   9.630  19.022  0.00  0.00    +0.000 A 
ATOM      5  C   UNL     1       1.946   9.179  17.874  0.00  0.00    +0.000 A 
ATOM      6  C   UNL     1       2.595   7.937  17.880  0.00  0.00    +0.000 A 
ENDROOT
BRANCH   1  11
ATOM      7  C   UNL     1       3.123   3.522  19.481  0.00  0.00    +0.000 A 
ATOM      8  C   UNL     1       4.405   3.296  18.994  0.00  0.00    +0.000 A 
ATOM      9  C   UNL     1       5.133   4.368  18.502  0.00  0.00    +0.000 A 
ATOM     10  C   UNL     1       4.562   5.637  18.497  0.00  0.00    +0.000 A 
ATOM     11  C   UNL     1       3.272   5.800  18.994  0.00  0.00    +0.000 A 
ATOM     12  N   UNL     1       2.564   4.757  19.493  0.00  0.00    +0.000 NA
BRANCH   7  13
ATOM     13  C   UNL     1       2.289   2.354  19.966  0.00  0.00    +0.000 C 
BRANCH  13  14
ATOM     14  O   UNL     1       1.524   1.858  18.855  0.00  0.00    +0.000 OA
ATOM     15  H   UNL     1       1.603   2.529  18.153  0.00  0.00    +0.000 HD
ENDBRANCH  13  14
BRANCH  13  16
ATOM     16  C   UNL     1       1.348   2.733  21.126  0.00  0.00    +0.000 C 
BRANCH  16  17
ATOM     17  O   UNL     1       2.114   3.252  22.219  0.00  0.00    +0.000 OA
ATOM     18  H   UNL     1       1.479   3.461  22.927  0.00  0.00    +0.000 HD
ENDBRANCH  16  17
ENDBRANCH  13  16
ENDBRANCH   7  13
ENDBRANCH   1  11
BRANCH   4  19
ATOM     19  O   UNL     1       0.654  10.840  19.118  0.00  0.00    +0.000 OA
BRANCH  19  20
ATOM     20  C   UNL     1      -0.671  10.923  18.773  0.00  0.00    +0.000 A 
ATOM     21  C   UNL     1      -1.298  10.146  17.803  0.00  0.00    +0.000 A 
ATOM     22  C   UNL     1      -2.660  10.318  17.556  0.00  0.00    +0.000 A 
ATOM     23  C   UNL     1      -3.364  11.301  18.256  0.00  0.00    +0.000 A 
ATOM     24  N   UNL     1      -2.747  12.104  19.171  0.00  0.00    +0.000 NA
ATOM     25  C   UNL     1      -1.427  11.900  19.402  0.00  0.00    +0.000 A 
BRANCH  23  26
ATOM     26  C   UNL     1      -4.853  11.491  17.997  0.00  0.00    +0.000 C 
ATOM     27  F   UNL     1      -5.585  10.354  18.204  0.00  0.00    +0.000 F 
ATOM     28  F   UNL     1      -5.424  12.435  18.800  0.00  0.00    +0.000 F 
ATOM     29  F   UNL     1      -5.130  11.866  16.714  0.00  0.00    +0.000 F 
ENDBRANCH  23  26
ENDBRANCH  19  20
ENDBRANCH   4  19
TORSDOF 8
ENDMDL
MODEL 3
REMARK VINA RESULT:      -8.0      2.177      2.767
REMARK  Name = 
REMARK  8 active torsions:
REMARK  status: ('A' for Active; 'I' for Inactive)
REMARK    1  A    between atoms: O_1  and  C_2
REMARK    2  A    between atoms: C_2  and  C_3
REMARK    3  A    between atoms: C_3  and  O_4
REMARK    4  A    between atoms: C_3  and  C_5
REMARK    5  A    between atoms: C_9  and  C_10
REMARK    6  A    between atoms: C_13  and  O_14
REMARK    7  A    between atoms: O_14  and  C_15
REMARK    8  A    between atoms: C_18  and  C_19
REMARK                            x       y       z     vdW  Elec       q    Type
REMARK                         _______ _______ _______ _____ _____    ______ ____
ROOT
ATOM      1  C   UNL     1       2.793   7.283  18.463  0.00  0.00    +0.000 A 
ATOM      2  C   UNL     1       2.697   8.380  17.585  0.00  0.00    +0.000 A 
ATOM      3  C   UNL     1       1.934   9.504  17.914  0.00  0.00    +0.000 A 
ATOM      4  C   UNL     1       1.238   9.557  19.120  0.00  0.00    +0.000 A 
ATOM      5  C   UNL     1       1.358   8.509  20.028  0.00  0.00    +0.000 A 
ATOM      6  C   UNL     1       2.105   7.374  19.689  0.00  0.00    +0.000 A 
ENDROOT
BRANCH   1  11
ATOM      7  C   UNL     1       5.688   5.167  17.793  0.00  0.00    +0.000 A 
ATOM      8  C   UNL     1       5.157   3.903  17.561  0.00  0.00    +0.000 A 
ATOM      9  C   UNL     1       3.781   3.736  17.609  0.00  0.00    +0.000 A 
ATOM     10  C   UNL     1       2.970   4.830  17.897  0.00  0.00    +0.000 A 
ATOM     11  C   UNL     1       3.561   6.070  18.125  0.00  0.00    +0.000 A 
ATOM     12  N   UNL     1       4.904   6.240  18.061  0.00  0.00    +0.000 NA
BRANCH   7  13
ATOM     13  C   UNL     1       7.191   5.356  17.805  0.00  0.00    +0.000 C 
BRANCH  13  14
ATOM     14  O   UNL     1       7.806   4.057  17.843  0.00  0.00    +0.000 OA
ATOM     15  H   UNL     1       7.125   3.429  17.541  0.00  0.00    +0.000 HD
ENDBRANCH  13  14
BRANCH  13  16
ATOM     16  C   UNL     1       7.676   6.202  18.997  0.00  0.00    +0.000 C 
BRANCH  16  17
ATOM     17  O   UNL     1       7.679   5.405  20.187  0.00  0.00    +0.000 OA
ATOM     18  H   UNL     1       7.001   4.717  20.059  0.00  0.00    +0.000 HD
ENDBRANCH  16  17
ENDBRANCH  13  16
ENDBRANCH   7  13
ENDBRANCH   1  11
BRANCH   4  19
ATOM     19  O   UNL     1       0.513  10.702  19.355  0.00  0.00    +0.000 OA
BRANCH  19  20
ATOM     20  C   UNL     1      -0.765  10.803  18.866  0.00  0.00    +0.000 A 
ATOM     21  C   UNL     1      -1.278  10.062  17.806  0.00  0.00    +0.000 A 
ATOM     22  C   UNL     1      -2.603  10.249  17.412  0.00  0.00    +0.000 A 
ATOM     23  C   UNL     1      -3.381  11.211  18.061  0.00  0.00    +0.000 A 
ATOM     24  N   UNL     1      -2.871  11.980  19.067  0.00  0.00    +0.000 NA
ATOM     25  C   UNL     1      -1.586  11.762  19.439  0.00  0.00    +0.000 A 
BRANCH  23  26
ATOM     26  C   UNL     1      -4.832  11.417  17.643  0.00  0.00    +0.000 C 
ATOM     27  F   UNL     1      -5.077  11.040  16.350  0.00  0.00    +0.000 F 
ATOM     28  F   UNL     1      -5.717  10.705  18.397  0.00  0.00    +0.000 F 
ATOM     29  F   UNL     1      -5.230  12.720  17.717  0.00  0.00    +0.000 F 
ENDBRANCH  23  26
ENDBRANCH  19  20
ENDBRANCH   4  19
TORSDOF 8
ENDMDL
MODEL 4
REMARK VINA RESULT:      -8.0      1.155      1.929
REMARK  Name = 
REMARK  8 active torsions:
REMARK  status: ('A' for Active; 'I' for Inactive)
REMARK    1  A    between atoms: O_1  and  C_2
REMARK    2  A    between atoms: C_2  and  C_3
REMARK    3  A    between atoms: C_3  and  O_4
REMARK    4  A    between atoms: C_3  and  C_5
REMARK    5  A    between atoms: C_9  and  C_10
REMARK    6  A    between atoms: C_13  and  O_14
REMARK    7  A    between atoms: O_14  and  C_15
REMARK    8  A    between atoms: C_18  and  C_19
REMARK                            x       y       z     vdW  Elec       q    Type
REMARK                         _______ _______ _______ _____ _____    ______ ____
ROOT
ATOM      1  C   UNL     1       2.735   7.336  18.477  0.00  0.00    +0.000 A 
ATOM      2  C   UNL     1       2.121   7.417  19.742  0.00  0.00    +0.000 A 
ATOM      3  C   UNL     1       1.326   8.514  20.090  0.00  0.00    +0.000 A 
ATOM      4  C   UNL     1       1.134   9.560  19.191  0.00  0.00    +0.000 A 
ATOM      5  C   UNL     1       1.686   9.480  17.916  0.00  0.00    +0.000 A 
ATOM      6  C   UNL     1       2.500   8.392  17.575  0.00  0.00    +0.000 A 
ENDROOT
BRANCH   1  11
ATOM      7  C   UNL     1       4.174   3.984  18.522  0.00  0.00    +0.000 A 
ATOM      8  C   UNL     1       5.112   3.988  17.496  0.00  0.00    +0.000 A 
ATOM      9  C   UNL     1       5.296   5.149  16.762  0.00  0.00    +0.000 A 
ATOM     10  C   UNL     1       4.534   6.275  17.062  0.00  0.00    +0.000 A 
ATOM     11  C   UNL     1       3.608   6.209  18.099  0.00  0.00    +0.000 A 
ATOM     12  N   UNL     1       3.438   5.080  18.830  0.00  0.00    +0.000 NA
BRANCH   7  13
ATOM     13  C   UNL     1       3.915   2.707  19.295  0.00  0.00    +0.000 C 
BRANCH  13  14
ATOM     14  O   UNL     1       5.134   2.330  19.959  0.00  0.00    +0.000 OA
ATOM     15  H   UNL     1       4.884   1.661  20.620  0.00  0.00    +0.000 HD
ENDBRANCH  13  14
BRANCH  13  16
ATOM     16  C   UNL     1       3.427   1.554  18.397  0.00  0.00    +0.000 C 
BRANCH  16  17
ATOM     17  O   UNL     1       2.126   1.861  17.883  0.00  0.00    +0.000 OA
ATOM     18  H   UNL     1       2.180   2.760  17.512  0.00  0.00    +0.000 HD
ENDBRANCH  16  17
ENDBRANCH  13  16
ENDBRANCH   7  13
ENDBRANCH   1  11
BRANCH   4  19
ATOM     19  O   UNL     1       0.338  10.596  19.623  0.00  0.00    +0.000 OA
BRANCH  19  20
ATOM     20  C   UNL     1      -0.916  10.749  19.089  0.00  0.00    +0.000 A 
ATOM     21  C   UNL     1      -1.412  10.050  17.992  0.00  0.00    +0.000 A 
ATOM     22  C   UNL     1      -2.714  10.288  17.553  0.00  0.00    +0.000 A 
ATOM     23  C   UNL     1      -3.486  11.258  18.196  0.00  0.00    +0.000 A 
ATOM     24  N   UNL     1      -2.992  11.987  19.240  0.00  0.00    +0.000 NA
ATOM     25  C   UNL     1      -1.729  11.720  19.653  0.00  0.00    +0.000 A 
BRANCH  23  26
ATOM     26  C   UNL     1      -4.913  11.520  17.729  0.00  0.00    +0.000 C 
ATOM     27  F   UNL     1      -5.824  10.658  18.275  0.00  0.00    +0.000 F 
ATOM     28  F   UNL     1      -5.364  12.767  18.047  0.00  0.00    +0.000 F 
ATOM     29  F   UNL     1      -5.065  11.393  16.379  0.00  0.00    +0.000 F 
ENDBRANCH  23  26
ENDBRANCH  19  20
ENDBRANCH   4  19
TORSDOF 8
ENDMDL
MODEL 5
REMARK VINA RESULT:      -7.9      2.010      3.064
REMARK  Name = 
REMARK  8 active torsions:
REMARK  status: ('A' for Active; 'I' for Inactive)
REMARK    1  A    between atoms: O_1  and  C_2
REMARK    2  A    between atoms: C_2  and  C_3
REMARK    3  A    between atoms: C_3  and  O_4
REMARK    4  A    between atoms: C_3  and  C_5
REMARK    5  A    between atoms: C_9  and  C_10
REMARK    6  A    between atoms: C_13  and  O_14
REMARK    7  A    between atoms: O_14  and  C_15
REMARK    8  A    between atoms: C_18  and  C_19
REMARK                            x       y       z     vdW  Elec       q    Type
REMARK                         _______ _______ _______ _____ _____    ______ ____
ROOT
ATOM      1  C   UNL     1       2.562   7.163  19.055  0.00  0.00    +0.000 A 
ATOM      2  C   UNL     1       1.821   7.613  20.165  0.00  0.00    +0.000 A 
ATOM      3  C   UNL     1       1.169   8.850  20.144  0.00  0.00    +0.000 A 
ATOM      4  C   UNL     1       1.249   9.671  19.022  0.00  0.00    +0.000 A 
ATOM      5  C   UNL     1       1.930   9.227  17.893  0.00  0.00    +0.000 A 
ATOM      6  C   UNL     1       2.602   7.998  17.922  0.00  0.00    +0.000 A 
ENDROOT
BRANCH   1  11
ATOM      7  C   UNL     1       5.141   4.709  18.257  0.00  0.00    +0.000 A 
ATOM      8  C   UNL     1       4.803   3.586  19.002  0.00  0.00    +0.000 A 
ATOM      9  C   UNL     1       3.666   3.624  19.794  0.00  0.00    +0.000 A 
ATOM     10  C   UNL     1       2.898   4.785  19.831  0.00  0.00    +0.000 A 
ATOM     11  C   UNL     1       3.290   5.879  19.065  0.00  0.00    +0.000 A 
ATOM     12  N   UNL     1       4.392   5.839  18.276  0.00  0.00    +0.000 NA
BRANCH   7  13
ATOM     13  C   UNL     1       6.413   4.708  17.434  0.00  0.00    +0.000 C 
BRANCH  13  14
ATOM     14  O   UNL     1       7.482   4.218  18.262  0.00  0.00    +0.000 OA
ATOM     15  H   UNL     1       8.167   3.892  17.652  0.00  0.00    +0.000 HD
ENDBRANCH  13  14
BRANCH  13  16
ATOM     16  C   UNL     1       6.770   6.102  16.884  0.00  0.00    +0.000 C 
BRANCH  16  17
ATOM     17  O   UNL     1       5.926   6.412  15.770  0.00  0.00    +0.000 OA
ATOM     18  H   UNL     1       6.244   7.260  15.410  0.00  0.00    +0.000 HD
ENDBRANCH  16  17
ENDBRANCH  13  16
ENDBRANCH   7  13
ENDBRANCH   1  11
BRANCH   4  19
ATOM     19  O   UNL     1       0.576  10.869  19.094  0.00  0.00    +0.000 OA
BRANCH  19  20
ATOM     20  C   UNL     1      -0.746  10.921  18.733  0.00  0.00    +0.000 A 
ATOM     21  C   UNL     1      -1.329  10.175  17.712  0.00  0.00    +0.000 A 
ATOM     22  C   UNL     1      -2.693  10.310  17.452  0.00  0.00    +0.000 A 
ATOM     23  C   UNL     1      -3.443  11.227  18.191  0.00  0.00    +0.000 A 
ATOM     24  N   UNL     1      -2.871  12.002  19.159  0.00  0.00    +0.000 NA
ATOM     25  C   UNL     1      -1.548  11.835  19.400  0.00  0.00    +0.000 A 
BRANCH  23  26
ATOM     26  C   UNL     1      -4.935  11.376  17.919  0.00  0.00    +0.000 C 
ATOM     27  F   UNL     1      -5.694  10.425  18.545  0.00  0.00    +0.000 F 
ATOM     28  F   UNL     1      -5.443  12.571  18.336  0.00  0.00    +0.000 F 
ATOM     29  F   UNL     1      -5.250  11.269  16.595  0.00  0.00    +0.000 F 
ENDBRANCH  23  26
ENDBRANCH  19  20
ENDBRANCH   4  19
TORSDOF 8
ENDMDL
MODEL 6
REMARK VINA RESULT:      -7.9      1.161      1.432
REMARK  Name = 
REMARK  8 active torsions:
REMARK  status: ('A' for Active; 'I' for Inactive)
REMARK    1  A    between atoms: O_1  and  C_2
REMARK    2  A    between atoms: C_2  and  C_3
REMARK    3  A    between atoms: C_3  and  O_4
REMARK    4  A    between atoms: C_3  and  C_5
REMARK    5  A    between atoms: C_9  and  C_10
REMARK    6  A    between atoms: C_13  and  O_14
REMARK    7  A    between atoms: O_14  and  C_15
REMARK    8  A    between atoms: C_18  and  C_19
REMARK                            x       y       z     vdW  Elec       q    Type
REMARK                         _______ _______ _______ _____ _____    ______ ____
ROOT
ATOM      1  C   UNL     1       2.651   7.319  18.505  0.00  0.00    +0.000 A 
ATOM      2  C   UNL     1       2.473   8.423  17.649  0.00  0.00    +0.000 A 
ATOM      3  C   UNL     1       1.733   9.538  18.054  0.00  0.00    +0.000 A 
ATOM      4  C   UNL     1       1.143   9.574  19.316  0.00  0.00    +0.000 A 
ATOM      5  C   UNL     1       1.348   8.519  20.200  0.00  0.00    +0.000 A 
ATOM      6  C   UNL     1       2.071   7.393  19.787  0.00  0.00    +0.000 A 
ENDROOT
BRANCH   1  11
ATOM      7  C   UNL     1       3.678   3.820  18.407  0.00  0.00    +0.000 A 
ATOM      8  C   UNL     1       4.643   3.762  17.408  0.00  0.00    +0.000 A 
ATOM      9  C   UNL     1       4.989   4.928  16.743  0.00  0.00    +0.000 A 
ATOM     10  C   UNL     1       4.357   6.121  17.083  0.00  0.00    +0.000 A 
ATOM     11  C   UNL     1       3.396   6.114  18.090  0.00  0.00    +0.000 A 
ATOM     12  N   UNL     1       3.069   4.980  18.754  0.00  0.00    +0.000 NA
BRANCH   7  13
ATOM     13  C   UNL     1       3.243   2.546  19.103  0.00  0.00    +0.000 C 
BRANCH  13  14
ATOM     14  O   UNL     1       4.055   1.466  18.610  0.00  0.00    +0.000 OA
ATOM     15  H   UNL     1       4.024   0.773  19.293  0.00  0.00    +0.000 HD
ENDBRANCH  13  14
BRANCH  13  16
ATOM     16  C   UNL     1       1.752   2.225  18.884  0.00  0.00    +0.000 C 
BRANCH  16  17
ATOM     17  O   UNL     1       1.222   3.074  17.860  0.00  0.00    +0.000 OA
ATOM     18  H   UNL     1       1.981   3.543  17.469  0.00  0.00    +0.000 HD
ENDBRANCH  16  17
ENDBRANCH  13  16
ENDBRANCH   7  13
ENDBRANCH   1  11
BRANCH   4  19
ATOM     19  O   UNL     1       0.434  10.712  19.625  0.00  0.00    +0.000 OA
BRANCH  19  20
ATOM     20  C   UNL     1      -0.831  10.874  19.119  0.00  0.00    +0.000 A 
ATOM     21  C   UNL     1      -1.343  10.207  18.010  0.00  0.00    +0.000 A 
ATOM     22  C   UNL     1      -2.655  10.452  17.603  0.00  0.00    +0.000 A 
ATOM     23  C   UNL     1      -3.420  11.397  18.291  0.00  0.00    +0.000 A 
ATOM     24  N   UNL     1      -2.909  12.095  19.347  0.00  0.00    +0.000 NA
ATOM     25  C   UNL     1      -1.638  11.822  19.729  0.00  0.00    +0.000 A 
BRANCH  23  26
ATOM     26  C   UNL     1      -4.856  11.666  17.858  0.00  0.00    +0.000 C 
ATOM     27  F   UNL     1      -5.703  10.626  18.132  0.00  0.00    +0.000 F 
ATOM     28  F   UNL     1      -5.410  12.750  18.472  0.00  0.00    +0.000 F 
ATOM     29  F   UNL     1      -4.979  11.883  16.517  0.00  0.00    +0.000 F 
ENDBRANCH  23  26
ENDBRANCH  19  20
ENDBRANCH   4  19
TORSDOF 8
ENDMDL
MODEL 7
REMARK VINA RESULT:      -7.9      2.156      3.171
REMARK  Name = 
REMARK  8 active torsions:
REMARK  status: ('A' for Active; 'I' for Inactive)
REMARK    1  A    between atoms: O_1  and  C_2
REMARK    2  A    between atoms: C_2  and  C_3
REMARK    3  A    between atoms: C_3  and  O_4
REMARK    4  A    between atoms: C_3  and  C_5
REMARK    5  A    between atoms: C_9  and  C_10
REMARK    6  A    between atoms: C_13  and  O_14
REMARK    7  A    between atoms: O_14  and  C_15
REMARK    8  A    between atoms: C_18  and  C_19
REMARK                            x       y       z     vdW  Elec       q    Type
REMARK                         _______ _______ _______ _____ _____    ______ ____
ROOT
ATOM      1  C   UNL     1       2.566   7.332  18.605  0.00  0.00    +0.000 A 
ATOM      2  C   UNL     1       1.939   7.509  19.854  0.00  0.00    +0.000 A 
ATOM      3  C   UNL     1       1.225   8.676  20.144  0.00  0.00    +0.000 A 
ATOM      4  C   UNL     1       1.128   9.697  19.201  0.00  0.00    +0.000 A 
ATOM      5  C   UNL     1       1.694   9.525  17.942  0.00  0.00    +0.000 A 
ATOM      6  C   UNL     1       2.429   8.366  17.659  0.00  0.00    +0.000 A 
ENDROOT
BRANCH   1  11
ATOM      7  C   UNL     1       5.491   5.183  18.236  0.00  0.00    +0.000 A 
ATOM      8  C   UNL     1       4.983   3.966  17.799  0.00  0.00    +0.000 A 
ATOM      9  C   UNL     1       3.617   3.843  17.598  0.00  0.00    +0.000 A 
ATOM     10  C   UNL     1       2.790   4.935  17.848  0.00  0.00    +0.000 A 
ATOM     11  C   UNL     1       3.358   6.127  18.288  0.00  0.00    +0.000 A 
ATOM     12  N   UNL     1       4.694   6.255  18.468  0.00  0.00    +0.000 NA
BRANCH   7  13
ATOM     13  C   UNL     1       6.974   5.318  18.519  0.00  0.00    +0.000 C 
BRANCH  13  14
ATOM     14  O   UNL     1       7.163   5.274  19.944  0.00  0.00    +0.000 OA
ATOM     15  H   UNL     1       7.743   6.026  20.161  0.00  0.00    +0.000 HD
ENDBRANCH  13  14
BRANCH  13  16
ATOM     16  C   UNL     1       7.575   6.616  17.948  0.00  0.00    +0.000 C 
BRANCH  16  17
ATOM     17  O   UNL     1       6.964   6.918  16.688  0.00  0.00    +0.000 OA
ATOM     18  H   UNL     1       7.673   6.884  16.022  0.00  0.00    +0.000 HD
ENDBRANCH  16  17
ENDBRANCH  13  16
ENDBRANCH   7  13
ENDBRANCH   1  11
BRANCH   4  19
ATOM     19  O   UNL     1       0.406  10.807  19.576  0.00  0.00    +0.000 OA
BRANCH  19  20
ATOM     20  C   UNL     1      -0.873  10.967  19.109  0.00  0.00    +0.000 A 
ATOM     21  C   UNL     1      -1.419  10.295  18.019  0.00  0.00    +0.000 A 
ATOM     22  C   UNL     1      -2.743  10.538  17.652  0.00  0.00    +0.000 A 
ATOM     23  C   UNL     1      -3.486  11.487  18.358  0.00  0.00    +0.000 A 
ATOM     24  N   UNL     1      -2.943  12.190  19.395  0.00  0.00    +0.000 NA
ATOM     25  C   UNL     1      -1.661  11.919  19.739  0.00  0.00    +0.000 A 
BRANCH  23  26
ATOM     26  C   UNL     1      -4.935  11.754  17.968  0.00  0.00    +0.000 C 
ATOM     27  F   UNL     1      -5.561  12.641  18.800  0.00  0.00    +0.000 F 
ATOM     28  F   UNL     1      -5.068  12.282  16.717  0.00  0.00    +0.000 F 
ATOM     29  F   UNL     1      -5.710  10.632  17.992  0.00  0.00    +0.000 F 
ENDBRANCH  23  26
ENDBRANCH  19  20
ENDBRANCH   4  19
TORSDOF 8
ENDMDL
MODEL 8
REMARK VINA RESULT:      -7.9      2.063      2.957
REMARK  Name = 
REMARK  8 active torsions:
REMARK  status: ('A' for Active; 'I' for Inactive)
REMARK    1  A    between atoms: O_1  and  C_2
REMARK    2  A    between atoms: C_2  and  C_3
REMARK    3  A    between atoms: C_3  and  O_4
REMARK    4  A    between atoms: C_3  and  C_5
REMARK    5  A    between atoms: C_9  and  C_10
REMARK    6  A    between atoms: C_13  and  O_14
REMARK    7  A    between atoms: O_14  and  C_15
REMARK    8  A    between atoms: C_18  and  C_19
REMARK                            x       y       z     vdW  Elec       q    Type
REMARK                         _______ _______ _______ _____ _____    ______ ____
ROOT
ATOM      1  C   UNL     1       2.646   7.264  18.407  0.00  0.00    +0.000 A 
ATOM      2  C   UNL     1       1.984   7.393  19.643  0.00  0.00    +0.000 A 
ATOM      3  C   UNL     1       1.277   8.556  19.966  0.00  0.00    +0.000 A 
ATOM      4  C   UNL     1       1.224   9.621  19.069  0.00  0.00    +0.000 A 
ATOM      5  C   UNL     1       1.825   9.498  17.820  0.00  0.00    +0.000 A 
ATOM      6  C   UNL     1       2.551   8.342  17.506  0.00  0.00    +0.000 A 
ENDROOT
BRANCH   1  11
ATOM      7  C   UNL     1       5.556   5.217  17.601  0.00  0.00    +0.000 A 
ATOM      8  C   UNL     1       5.054   3.929  17.457  0.00  0.00    +0.000 A 
ATOM      9  C   UNL     1       3.692   3.719  17.613  0.00  0.00    +0.000 A 
ATOM     10  C   UNL     1       2.866   4.797  17.921  0.00  0.00    +0.000 A 
ATOM     11  C   UNL     1       3.429   6.063  18.057  0.00  0.00    +0.000 A 
ATOM     12  N   UNL     1       4.757   6.274  17.887  0.00  0.00    +0.000 NA
BRANCH   7  13
ATOM     13  C   UNL     1       7.049   5.455  17.494  0.00  0.00    +0.000 C 
BRANCH  13  14
ATOM     14  O   UNL     1       7.638   4.317  16.843  0.00  0.00    +0.000 OA
ATOM     15  H   UNL     1       7.619   4.513  15.889  0.00  0.00    +0.000 HD
ENDBRANCH  13  14
BRANCH  13  16
ATOM     16  C   UNL     1       7.717   5.682  18.863  0.00  0.00    +0.000 C 
BRANCH  16  17
ATOM     17  O   UNL     1       6.810   5.315  19.909  0.00  0.00    +0.000 OA
ATOM     18  H   UNL     1       6.878   4.348  20.007  0.00  0.00    +0.000 HD
ENDBRANCH  16  17
ENDBRANCH  13  16
ENDBRANCH   7  13
ENDBRANCH   1  11
BRANCH   4  19
ATOM     19  O   UNL     1       0.506  10.723  19.475  0.00  0.00    +0.000 OA
BRANCH  19  20
ATOM     20  C   UNL     1      -0.780  10.890  19.027  0.00  0.00    +0.000 A 
ATOM     21  C   UNL     1      -1.320  10.289  17.895  0.00  0.00    +0.000 A 
ATOM     22  C   UNL     1      -2.650  10.531  17.553  0.00  0.00    +0.000 A 
ATOM     23  C   UNL     1      -3.407  11.411  18.331  0.00  0.00    +0.000 A 
ATOM     24  N   UNL     1      -2.872  12.047  19.413  0.00  0.00    +0.000 NA
ATOM     25  C   UNL     1      -1.582  11.777  19.729  0.00  0.00    +0.000 A 
BRANCH  23  26
ATOM     26  C   UNL     1      -4.864  11.676  17.970  0.00  0.00    +0.000 C 
ATOM     27  F   UNL     1      -5.700  10.650  18.319  0.00  0.00    +0.000 F 
ATOM     28  F   UNL     1      -5.378  12.781  18.581  0.00  0.00    +0.000 F 
ATOM     29  F   UNL     1      -5.059  11.855  16.631  0.00  0.00    +0.000 F 
ENDBRANCH  23  26
ENDBRANCH  19  20
ENDBRANCH   4  19
TORSDOF 8
ENDMDL
MODEL 9
REMARK VINA RESULT:      -7.8      0.623      1.237
REMARK  Name = 
REMARK  8 active torsions:
REMARK  status: ('A' for Active; 'I' for Inactive)
REMARK    1  A    between atoms: O_1  and  C_2
REMARK    2  A    between atoms: C_2  and  C_3
REMARK    3  A    between atoms: C_3  and  O_4
REMARK    4  A    between atoms: C_3  and  C_5
REMARK    5  A    between atoms: C_9  and  C_10
REMARK    6  A    between atoms: C_13  and  O_14
REMARK    7  A    between atoms: O_14  and  C_15
REMARK    8  A    between atoms: C_18  and  C_19
REMARK                            x       y       z     vdW  Elec       q    Type
REMARK                         _______ _______ _______ _____ _____    ______ ____
ROOT
ATOM      1  C   UNL     1       2.468   7.125  18.776  0.00  0.00    +0.000 A 
ATOM      2  C   UNL     1       2.454   8.122  17.782  0.00  0.00    +0.000 A 
ATOM      3  C   UNL     1       1.856   9.364  18.013  0.00  0.00    +0.000 A 
ATOM      4  C   UNL     1       1.247   9.638  19.237  0.00  0.00    +0.000 A 
ATOM      5  C   UNL     1       1.293   8.689  20.253  0.00  0.00    +0.000 A 
ATOM      6  C   UNL     1       1.873   7.437  20.014  0.00  0.00    +0.000 A 
ENDROOT
BRANCH   1  11
ATOM      7  C   UNL     1       2.962   3.523  19.079  0.00  0.00    +0.000 A 
ATOM      8  C   UNL     1       3.998   3.233  18.200  0.00  0.00    +0.000 A 
ATOM      9  C   UNL     1       4.578   4.268  17.483  0.00  0.00    +0.000 A 
ATOM     10  C   UNL     1       4.104   5.566  17.652  0.00  0.00    +0.000 A 
ATOM     11  C   UNL     1       3.060   5.793  18.545  0.00  0.00    +0.000 A 
ATOM     12  N   UNL     1       2.503   4.786  19.260  0.00  0.00    +0.000 NA
BRANCH   7  13
ATOM     13  C   UNL     1       2.275   2.397  19.826  0.00  0.00    +0.000 C 
BRANCH  13  14
ATOM     14  O   UNL     1       1.508   1.635  18.878  0.00  0.00    +0.000 OA
ATOM     15  H   UNL     1       1.600   2.096  18.025  0.00  0.00    +0.000 HD
ENDBRANCH  13  14
BRANCH  13  16
ATOM     16  C   UNL     1       1.361   2.902  20.958  0.00  0.00    +0.000 C 
BRANCH  16  17
ATOM     17  O   UNL     1       2.156   3.277  22.089  0.00  0.00    +0.000 OA
ATOM     18  H   UNL     1       2.353   4.226  21.986  0.00  0.00    +0.000 HD
ENDBRANCH  16  17
ENDBRANCH  13  16
ENDBRANCH   7  13
ENDBRANCH   1  11
BRANCH   4  19
ATOM     19  O   UNL     1       0.684  10.886  19.371  0.00  0.00    +0.000 OA
BRANCH  19  20
ATOM     20  C   UNL     1      -0.633  11.070  19.033  0.00  0.00    +0.000 A 
ATOM     21  C   UNL     1      -1.502  11.965  19.650  0.00  0.00    +0.000 A 
ATOM     22  C   UNL     1      -2.818  12.068  19.202  0.00  0.00    +0.000 A 
ATOM     23  C   UNL     1      -3.256  11.237  18.168  0.00  0.00    +0.000 A 
ATOM     24  N   UNL     1      -2.427  10.319  17.591  0.00  0.00    +0.000 NA
ATOM     25  C   UNL     1      -1.149  10.255  18.037  0.00  0.00    +0.000 A 
BRANCH  23  26
ATOM     26  C   UNL     1      -4.691  11.347  17.667  0.00  0.00    +0.000 C 
ATOM     27  F   UNL     1      -5.524  10.407  18.210  0.00  0.00    +0.000 F 
ATOM     28  F   UNL     1      -5.271  12.547  17.953  0.00  0.00    +0.000 F 
ATOM     29  F   UNL     1      -4.800  11.184  16.316  0.00  0.00    +0.000 F 
ENDBRANCH  23  26
ENDBRANCH  19  20
ENDBRANCH   4  19
TORSDOF 8
ENDMDL
