MODEL 1
REMARK VINA RESULT:      -7.7      0.000      0.000
REMARK  Name = 
REMARK  12 active torsions:
REMARK  status: ('A' for Active; 'I' for Inactive)
REMARK    1  A    between atoms: C_1  and  N_2
REMARK    2  A    between atoms: N_2  and  C_3
REMARK    3  A    between atoms: N_2  and  C_4
REMARK    4  A    between atoms: C_4  and  C_5
REMARK    5  A    between atoms: C_5  and  C_6
REMARK    6  A    between atoms: C_6  and  N_7
REMARK    7  A    between atoms: C_15  and  N_16
REMARK    8  A    between atoms: N_16  and  C_17
REMARK    9  A    between atoms: C_17  and  C_18
REMARK   10  A    between atoms: C_17  and  C_19
REMARK   11  A    between atoms: C_17  and  C_20
REMARK   12  A    between atoms: C_21  and  C_22
REMARK                            x       y       z     vdW  Elec       q    Type
REMARK                         _______ _______ _______ _____ _____    ______ ____
ROOT
ATOM      1  N   UNL     1       0.114  10.475  19.975  0.00  0.00    +0.000 N 
ATOM      2  C   UNL     1       0.451  11.090  18.795  0.00  0.00    +0.000 A 
ATOM      3  N   UNL     1       1.345  10.399  18.108  0.00  0.00    +0.000 NA
ATOM      4  C   UNL     1       1.551   9.287  18.867  0.00  0.00    +0.000 A 
ATOM      5  C   UNL     1       0.781   9.289  20.011  0.00  0.00    +0.000 A 
ATOM      6  N   UNL     1       0.660   8.351  20.981  0.00  0.00    +0.000 NA
ATOM      7  C   UNL     1       1.410   7.297  20.789  0.00  0.00    +0.000 A 
ATOM      8  N   UNL     1       2.317   7.147  19.728  0.00  0.00    +0.000 N 
ATOM      9  C   UNL     1       3.207   6.128  19.430  0.00  0.00    +0.000 A 
ATOM     10  C   UNL     1       3.691   6.473  18.158  0.00  0.00    +0.000 A 
ATOM     11  N   UNL     1       3.222   7.718  17.761  0.00  0.00    +0.000 NA
ATOM     12  C   UNL     1       2.401   8.086  18.716  0.00  0.00    +0.000 A 
ENDROOT
BRANCH  10  13
ATOM     13  C   UNL     1       4.638   5.725  17.327  0.00  0.00    +0.000 A 
ATOM     14  C   UNL     1       5.921   6.251  17.113  0.00  0.00    +0.000 A 
ATOM     15  C   UNL     1       6.871   5.561  16.355  0.00  0.00    +0.000 A 
ATOM     16  C   UNL     1       6.556   4.331  15.786  0.00  0.00    +0.000 A 
ATOM     17  C   UNL     1       5.280   3.801  15.962  0.00  0.00    +0.000 A 
ATOM     18  C   UNL     1       4.331   4.503  16.715  0.00  0.00    +0.000 A 
ATOM     19  F   UNL     1       3.115   3.950  16.813  0.00  0.00    +0.000 F 
ENDBRANCH  10  13
BRANCH   9  20
ATOM     20  N   UNL     1       3.421   5.005  20.179  0.00  0.00    +0.000 N 
ATOM     21  H   UNL     1       3.964   5.158  21.033  0.00  0.00    +0.000 HD
BRANCH  20  22
ATOM     22  C   UNL     1       2.684   3.732  20.244  0.00  0.00    +0.000 C 
ATOM     23  C   UNL     1       2.158   3.561  21.680  0.00  0.00    +0.000 C 
ATOM     24  C   UNL     1       1.440   3.868  19.331  0.00  0.00    +0.000 C 
ATOM     25  C   UNL     1       3.453   2.509  19.721  0.00  0.00    +0.000 C 
ENDBRANCH  20  22
ENDBRANCH   9  20
BRANCH   1  26
ATOM     26  C   UNL     1      -0.774  10.963  21.007  0.00  0.00    +0.000 C 
BRANCH  26  27
ATOM     27  C   UNL     1      -1.669  12.111  20.534  0.00  0.00    +0.000 C 
BRANCH  27  28
ATOM     28  C   UNL     1      -2.222  12.967  21.682  0.00  0.00    +0.000 C 
BRANCH  28  30
ATOM     29  C   UNL     1      -3.435  12.649  23.768  0.00  0.00    +0.000 C 
ATOM     30  N   UNL     1      -3.399  12.365  22.332  0.00  0.00    +0.000 NA
ATOM     31  C   UNL     1      -4.626  12.847  21.696  0.00  0.00    +0.000 C 
ENDBRANCH  28  30
ENDBRANCH  27  28
ENDBRANCH  26  27
ENDBRANCH   1  26
TORSDOF 7
ENDMDL
MODEL 2
REMARK VINA RESULT:      -7.7      1.072      1.591
REMARK  Name = 
REMARK  12 active torsions:
REMARK  status: ('A' for Active; 'I' for Inactive)
REMARK    1  A    between atoms: C_1  and  N_2
REMARK    2  A    between atoms: N_2  and  C_3
REMARK    3  A    between atoms: N_2  and  C_4
REMARK    4  A    between atoms: C_4  and  C_5
REMARK    5  A    between atoms: C_5  and  C_6
REMARK    6  A    between atoms: C_6  and  N_7
REMARK    7  A    between atoms: C_15  and  N_16
REMARK    8  A    between atoms: N_16  and  C_17
REMARK    9  A    between atoms: C_17  and  C_18
REMARK   10  A    between atoms: C_17  and  C_19
REMARK   11  A    between atoms: C_17  and  C_20
REMARK   12  A    between atoms: C_21  and  C_22
REMARK                            x       y       z     vdW  Elec       q    Type
REMARK                         _______ _______ _______ _____ _____    ______ ____
ROOT
ATOM      1  N   UNL     1       0.255  10.370  19.841  0.00  0.00    +0.000 N 
ATOM      2  C   UNL     1       0.670  10.970  18.679  0.00  0.00    +0.000 A 
ATOM      3  N   UNL     1       1.590  10.258  18.049  0.00  0.00    +0.000 NA
ATOM      4  C   UNL     1       1.732   9.148  18.827  0.00  0.00    +0.000 A 
ATOM      5  C   UNL     1       0.897   9.173  19.924  0.00  0.00    +0.000 A 
ATOM      6  N   UNL     1       0.704   8.245  20.892  0.00  0.00    +0.000 NA
ATOM      7  C   UNL     1       1.445   7.177  20.752  0.00  0.00    +0.000 A 
ATOM      8  N   UNL     1       2.409   7.003  19.746  0.00  0.00    +0.000 N 
ATOM      9  C   UNL     1       3.297   5.967  19.508  0.00  0.00    +0.000 A 
ATOM     10  C   UNL     1       3.859   6.293  18.263  0.00  0.00    +0.000 A 
ATOM     11  N   UNL     1       3.436   7.542  17.831  0.00  0.00    +0.000 NA
ATOM     12  C   UNL     1       2.568   7.932  18.734  0.00  0.00    +0.000 A 
ENDROOT
BRANCH  10  13
ATOM     13  C   UNL     1       4.839   5.521  17.494  0.00  0.00    +0.000 A 
ATOM     14  C   UNL     1       4.426   4.870  16.321  0.00  0.00    +0.000 A 
ATOM     15  C   UNL     1       5.328   4.148  15.535  0.00  0.00    +0.000 A 
ATOM     16  C   UNL     1       6.665   4.054  15.909  0.00  0.00    +0.000 A 
ATOM     17  C   UNL     1       7.093   4.669  17.083  0.00  0.00    +0.000 A 
ATOM     18  C   UNL     1       6.181   5.383  17.870  0.00  0.00    +0.000 A 
ATOM     19  F   UNL     1       6.655   5.918  19.002  0.00  0.00    +0.000 F 
ENDBRANCH  10  13
BRANCH   9  20
ATOM     20  N   UNL     1       3.447   4.845  20.276  0.00  0.00    +0.000 N 
ATOM     21  H   UNL     1       3.721   5.026  21.245  0.00  0.00    +0.000 HD
BRANCH  20  22
ATOM     22  C   UNL     1       2.888   3.491  20.129  0.00  0.00    +0.000 C 
ATOM     23  C   UNL     1       4.052   2.526  19.842  0.00  0.00    +0.000 C 
ATOM     24  C   UNL     1       2.301   3.079  21.502  0.00  0.00    +0.000 C 
ATOM     25  C   UNL     1       1.730   3.372  19.129  0.00  0.00    +0.000 C 
ENDBRANCH  20  22
ENDBRANCH   9  20
BRANCH   1  26
ATOM     26  C   UNL     1      -0.683  10.882  20.817  0.00  0.00    +0.000 C 
BRANCH  26  27
ATOM     27  C   UNL     1      -1.465  12.099  20.315  0.00  0.00    +0.000 C 
BRANCH  27  28
ATOM     28  C   UNL     1      -2.430  12.677  21.360  0.00  0.00    +0.000 C 
BRANCH  28  30
ATOM     29  C   UNL     1      -1.228  13.594  23.269  0.00  0.00    +0.000 C 
ATOM     30  N   UNL     1      -1.980  12.452  22.744  0.00  0.00    +0.000 NA
ATOM     31  C   UNL     1      -3.129  12.171  23.606  0.00  0.00    +0.000 C 
ENDBRANCH  28  30
ENDBRANCH  27  28
ENDBRANCH  26  27
ENDBRANCH   1  26
TORSDOF 7
ENDMDL
MODEL 3
REMARK VINA RESULT:      -7.7      0.604      1.037
REMARK  Name = 
REMARK  12 active torsions:
REMARK  status: ('A' for Active; 'I' for Inactive)
REMARK    1  A    between atoms: C_1  and  N_2
REMARK    2  A    between atoms: N_2  and  C_3
REMARK    3  A    between atoms: N_2  and  C_4
REMARK    4  A    between atoms: C_4  and  C_5
REMARK    5  A    between atoms: C_5  and  C_6
REMARK    6  A    between atoms: C_6  and  N_7
REMARK    7  A    between atoms: C_15  and  N_16
REMARK    8  A    between atoms: N_16  and  C_17
REMARK    9  A    between atoms: C_17  and  C_18
REMARK   10  A    between atoms: C_17  and  C_19
REMARK   11  A    between atoms: C_17  and  C_20
REMARK   12  A    between atoms: C_21  and  C_22
REMARK                            x       y       z     vdW  Elec       q    Type
REMARK                         _______ _______ _______ _____ _____    ______ ____
ROOT
ATOM      1  N   UNL     1       0.153  10.171  20.051  0.00  0.00    +0.000 N 
ATOM      2  C   UNL     1       0.472  10.835  18.893  0.00  0.00    +0.000 A 
ATOM      3  N   UNL     1       1.376  10.189  18.177  0.00  0.00    +0.000 NA
ATOM      4  C   UNL     1       1.610   9.054  18.895  0.00  0.00    +0.000 A 
ATOM      5  C   UNL     1       0.845   8.998  20.041  0.00  0.00    +0.000 A 
ATOM      6  N   UNL     1       0.749   8.024  20.977  0.00  0.00    +0.000 NA
ATOM      7  C   UNL     1       1.520   6.994  20.744  0.00  0.00    +0.000 A 
ATOM      8  N   UNL     1       2.426   6.902  19.674  0.00  0.00    +0.000 N 
ATOM      9  C   UNL     1       3.335   5.914  19.336  0.00  0.00    +0.000 A 
ATOM     10  C   UNL     1       3.806   6.315  18.075  0.00  0.00    +0.000 A 
ATOM     11  N   UNL     1       3.308   7.563  17.726  0.00  0.00    +0.000 NA
ATOM     12  C   UNL     1       2.484   7.879  18.696  0.00  0.00    +0.000 A 
ENDROOT
BRANCH  10  13
ATOM     13  C   UNL     1       4.764   5.617  17.214  0.00  0.00    +0.000 A 
ATOM     14  C   UNL     1       6.023   6.195  16.987  0.00  0.00    +0.000 A 
ATOM     15  C   UNL     1       6.984   5.555  16.199  0.00  0.00    +0.000 A 
ATOM     16  C   UNL     1       6.704   4.325  15.613  0.00  0.00    +0.000 A 
ATOM     17  C   UNL     1       5.452   3.744  15.802  0.00  0.00    +0.000 A 
ATOM     18  C   UNL     1       4.492   4.396  16.585  0.00  0.00    +0.000 A 
ATOM     19  F   UNL     1       3.299   3.797  16.694  0.00  0.00    +0.000 F 
ENDBRANCH  10  13
BRANCH   9  20
ATOM     20  N   UNL     1       3.577   4.768  20.043  0.00  0.00    +0.000 N 
ATOM     21  H   UNL     1       4.147   4.898  20.883  0.00  0.00    +0.000 HD
BRANCH  20  22
ATOM     22  C   UNL     1       2.846   3.491  20.093  0.00  0.00    +0.000 C 
ATOM     23  C   UNL     1       3.824   2.370  19.702  0.00  0.00    +0.000 C 
ATOM     24  C   UNL     1       2.452   3.239  21.570  0.00  0.00    +0.000 C 
ATOM     25  C   UNL     1       1.531   3.464  19.300  0.00  0.00    +0.000 C 
ENDBRANCH  20  22
ENDBRANCH   9  20
BRANCH   1  26
ATOM     26  C   UNL     1      -0.740  10.602  21.104  0.00  0.00    +0.000 C 
BRANCH  26  27
ATOM     27  C   UNL     1      -0.093  11.603  22.065  0.00  0.00    +0.000 C 
BRANCH  27  28
ATOM     28  C   UNL     1      -1.003  12.790  22.413  0.00  0.00    +0.000 C 
BRANCH  28  30
ATOM     29  C   UNL     1      -3.136  12.320  23.488  0.00  0.00    +0.000 C 
ATOM     30  N   UNL     1      -2.433  12.495  22.216  0.00  0.00    +0.000 NA
ATOM     31  C   UNL     1      -3.063  13.563  21.439  0.00  0.00    +0.000 C 
ENDBRANCH  28  30
ENDBRANCH  27  28
ENDBRANCH  26  27
ENDBRANCH   1  26
TORSDOF 7
ENDMDL
MODEL 4
REMARK VINA RESULT:      -7.6      1.082      1.709
REMARK  Name = 
REMARK  12 active torsions:
REMARK  status: ('A' for Active; 'I' for Inactive)
REMARK    1  A    between atoms: C_1  and  N_2
REMARK    2  A    between atoms: N_2  and  C_3
REMARK    3  A    between atoms: N_2  and  C_4
REMARK    4  A    between atoms: C_4  and  C_5
REMARK    5  A    between atoms: C_5  and  C_6
REMARK    6  A    between atoms: C_6  and  N_7
REMARK    7  A    between atoms: C_15  and  N_16
REMARK    8  A    between atoms: N_16  and  C_17
REMARK    9  A    between atoms: C_17  and  C_18
REMARK   10  A    between atoms: C_17  and  C_19
REMARK   11  A    between atoms: C_17  and  C_20
REMARK   12  A    between atoms: C_21  and  C_22
REMARK                            x       y       z     vdW  Elec       q    Type
REMARK                         _______ _______ _______ _____ _____    ______ ____
ROOT
ATOM      1  N   UNL     1       0.106  10.573  19.920  0.00  0.00    +0.000 N 
ATOM      2  C   UNL     1       0.435  11.170  18.728  0.00  0.00    +0.000 A 
ATOM      3  N   UNL     1       1.321  10.466  18.044  0.00  0.00    +0.000 NA
ATOM      4  C   UNL     1       1.531   9.364  18.818  0.00  0.00    +0.000 A 
ATOM      5  C   UNL     1       0.770   9.386  19.968  0.00  0.00    +0.000 A 
ATOM      6  N   UNL     1       0.656   8.463  20.953  0.00  0.00    +0.000 NA
ATOM      7  C   UNL     1       1.402   7.405  20.771  0.00  0.00    +0.000 A 
ATOM      8  N   UNL     1       2.300   7.237  19.705  0.00  0.00    +0.000 N 
ATOM      9  C   UNL     1       3.185   6.211  19.415  0.00  0.00    +0.000 A 
ATOM     10  C   UNL     1       3.659   6.535  18.134  0.00  0.00    +0.000 A 
ATOM     11  N   UNL     1       3.189   7.775  17.722  0.00  0.00    +0.000 NA
ATOM     12  C   UNL     1       2.377   8.160  18.678  0.00  0.00    +0.000 A 
ENDROOT
BRANCH  10  13
ATOM     13  C   UNL     1       4.597   5.772  17.306  0.00  0.00    +0.000 A 
ATOM     14  C   UNL     1       4.207   4.517  16.814  0.00  0.00    +0.000 A 
ATOM     15  C   UNL     1       5.052   3.764  15.995  0.00  0.00    +0.000 A 
ATOM     16  C   UNL     1       6.312   4.246  15.655  0.00  0.00    +0.000 A 
ATOM     17  C   UNL     1       6.732   5.477  16.154  0.00  0.00    +0.000 A 
ATOM     18  C   UNL     1       5.883   6.221  16.981  0.00  0.00    +0.000 A 
ATOM     19  F   UNL     1       6.366   7.378  17.452  0.00  0.00    +0.000 F 
ENDBRANCH  10  13
BRANCH   9  20
ATOM     20  N   UNL     1       3.403   5.099  20.180  0.00  0.00    +0.000 N 
ATOM     21  H   UNL     1       3.884   5.277  21.065  0.00  0.00    +0.000 HD
BRANCH  20  22
ATOM     22  C   UNL     1       2.722   3.793  20.203  0.00  0.00    +0.000 C 
ATOM     23  C   UNL     1       3.779   2.702  19.963  0.00  0.00    +0.000 C 
ATOM     24  C   UNL     1       2.181   3.576  21.638  0.00  0.00    +0.000 C 
ATOM     25  C   UNL     1       1.502   3.681  19.277  0.00  0.00    +0.000 C 
ENDBRANCH  20  22
ENDBRANCH   9  20
BRANCH   1  26
ATOM     26  C   UNL     1      -0.772  11.079  20.952  0.00  0.00    +0.000 C 
BRANCH  26  27
ATOM     27  C   UNL     1      -1.351  12.458  20.623  0.00  0.00    +0.000 C 
BRANCH  27  28
ATOM     28  C   UNL     1      -2.699  12.394  19.890  0.00  0.00    +0.000 C 
BRANCH  28  30
ATOM     29  C   UNL     1      -5.068  12.606  20.406  0.00  0.00    +0.000 C 
ATOM     30  N   UNL     1      -3.742  13.212  20.533  0.00  0.00    +0.000 NA
ATOM     31  C   UNL     1      -3.419  13.417  21.946  0.00  0.00    +0.000 C 
ENDBRANCH  28  30
ENDBRANCH  27  28
ENDBRANCH  26  27
ENDBRANCH   1  26
TORSDOF 7
ENDMDL
MODEL 5
REMARK VINA RESULT:      -7.6      1.773      2.480
REMARK  Name = 
REMARK  12 active torsions:
REMARK  status: ('A' for Active; 'I' for Inactive)
REMARK    1  A    between atoms: C_1  and  N_2
REMARK    2  A    between atoms: N_2  and  C_3
REMARK    3  A    between atoms: N_2  and  C_4
REMARK    4  A    between atoms: C_4  and  C_5
REMARK    5  A    between atoms: C_5  and  C_6
REMARK    6  A    between atoms: C_6  and  N_7
REMARK    7  A    between atoms: C_15  and  N_16
REMARK    8  A    between atoms: N_16  and  C_17
REMARK    9  A    between atoms: C_17  and  C_18
REMARK   10  A    between atoms: C_17  and  C_19
REMARK   11  A    between atoms: C_17  and  C_20
REMARK   12  A    between atoms: C_21  and  C_22
REMARK                            x       y       z     vdW  Elec       q    Type
REMARK                         _______ _______ _______ _____ _____    ______ ____
ROOT
ATOM      1  N   UNL     1       0.208  10.366  19.787  0.00  0.00    +0.000 N 
ATOM      2  C   UNL     1       0.616  10.954  18.616  0.00  0.00    +0.000 A 
ATOM      3  N   UNL     1       1.540  10.242  17.994  0.00  0.00    +0.000 NA
ATOM      4  C   UNL     1       1.694   9.143  18.786  0.00  0.00    +0.000 A 
ATOM      5  C   UNL     1       0.860   9.175  19.884  0.00  0.00    +0.000 A 
ATOM      6  N   UNL     1       0.677   8.259  20.865  0.00  0.00    +0.000 NA
ATOM      7  C   UNL     1       1.427   7.195  20.737  0.00  0.00    +0.000 A 
ATOM      8  N   UNL     1       2.391   7.016  19.731  0.00  0.00    +0.000 N 
ATOM      9  C   UNL     1       3.286   5.984  19.505  0.00  0.00    +0.000 A 
ATOM     10  C   UNL     1       3.844   6.299  18.255  0.00  0.00    +0.000 A 
ATOM     11  N   UNL     1       3.409   7.539  17.808  0.00  0.00    +0.000 NA
ATOM     12  C   UNL     1       2.539   7.933  18.706  0.00  0.00    +0.000 A 
ENDROOT
BRANCH  10  13
ATOM     13  C   UNL     1       4.829   5.526  17.493  0.00  0.00    +0.000 A 
ATOM     14  C   UNL     1       4.421   4.864  16.325  0.00  0.00    +0.000 A 
ATOM     15  C   UNL     1       5.328   4.140  15.547  0.00  0.00    +0.000 A 
ATOM     16  C   UNL     1       6.664   4.055  15.924  0.00  0.00    +0.000 A 
ATOM     17  C   UNL     1       7.087   4.680  17.094  0.00  0.00    +0.000 A 
ATOM     18  C   UNL     1       6.170   5.396  17.873  0.00  0.00    +0.000 A 
ATOM     19  F   UNL     1       6.639   5.942  19.003  0.00  0.00    +0.000 F 
ENDBRANCH  10  13
BRANCH   9  20
ATOM     20  N   UNL     1       3.448   4.875  20.287  0.00  0.00    +0.000 N 
ATOM     21  H   UNL     1       3.668   5.072  21.267  0.00  0.00    +0.000 HD
BRANCH  20  22
ATOM     22  C   UNL     1       2.954   3.497  20.124  0.00  0.00    +0.000 C 
ATOM     23  C   UNL     1       4.164   2.589  19.845  0.00  0.00    +0.000 C 
ATOM     24  C   UNL     1       2.371   3.049  21.488  0.00  0.00    +0.000 C 
ATOM     25  C   UNL     1       1.814   3.332  19.109  0.00  0.00    +0.000 C 
ENDBRANCH  20  22
ENDBRANCH   9  20
BRANCH   1  26
ATOM     26  C   UNL     1      -0.732  10.883  20.758  0.00  0.00    +0.000 C 
BRANCH  26  27
ATOM     27  C   UNL     1      -0.075  11.782  21.809  0.00  0.00    +0.000 C 
BRANCH  27  28
ATOM     28  C   UNL     1       0.128  13.228  21.334  0.00  0.00    +0.000 C 
BRANCH  28  30
ATOM     29  C   UNL     1       2.409  13.505  20.532  0.00  0.00    +0.000 C 
ATOM     30  N   UNL     1       1.474  13.747  21.632  0.00  0.00    +0.000 NA
ATOM     31  C   UNL     1       1.406  15.179  21.926  0.00  0.00    +0.000 C 
ENDBRANCH  28  30
ENDBRANCH  27  28
ENDBRANCH  26  27
ENDBRANCH   1  26
TORSDOF 7
ENDMDL
MODEL 6
REMARK VINA RESULT:      -7.6      1.304      1.869
REMARK  Name = 
REMARK  12 active torsions:
REMARK  status: ('A' for Active; 'I' for Inactive)
REMARK    1  A    between atoms: C_1  and  N_2
REMARK    2  A    between atoms: N_2  and  C_3
REMARK    3  A    between atoms: N_2  and  C_4
REMARK    4  A    between atoms: C_4  and  C_5
REMARK    5  A    between atoms: C_5  and  C_6
REMARK    6  A    between atoms: C_6  and  N_7
REMARK    7  A    between atoms: C_15  and  N_16
REMARK    8  A    between atoms: N_16  and  C_17
REMARK    9  A    between atoms: C_17  and  C_18
REMARK   10  A    between atoms: C_17  and  C_19
REMARK   11  A    between atoms: C_17  and  C_20
REMARK   12  A    between atoms: C_21  and  C_22
REMARK                            x       y       z     vdW  Elec       q    Type
REMARK                         _______ _______ _______ _____ _____    ______ ____
ROOT
ATOM      1  N   UNL     1       0.144  10.444  20.091  0.00  0.00    +0.000 N 
ATOM      2  C   UNL     1       0.476  11.062  18.911  0.00  0.00    +0.000 A 
ATOM      3  N   UNL     1       1.352  10.363  18.209  0.00  0.00    +0.000 NA
ATOM      4  C   UNL     1       1.551   9.242  18.959  0.00  0.00    +0.000 A 
ATOM      5  C   UNL     1       0.794   9.248  20.112  0.00  0.00    +0.000 A 
ATOM      6  N   UNL     1       0.672   8.306  21.077  0.00  0.00    +0.000 NA
ATOM      7  C   UNL     1       1.404   7.243  20.870  0.00  0.00    +0.000 A 
ATOM      8  N   UNL     1       2.297   7.087  19.797  0.00  0.00    +0.000 N 
ATOM      9  C   UNL     1       3.169   6.058  19.483  0.00  0.00    +0.000 A 
ATOM     10  C   UNL     1       3.642   6.404  18.207  0.00  0.00    +0.000 A 
ATOM     11  N   UNL     1       3.187   7.657  17.824  0.00  0.00    +0.000 NA
ATOM     12  C   UNL     1       2.382   8.031  18.790  0.00  0.00    +0.000 A 
ENDROOT
BRANCH  10  13
ATOM     13  C   UNL     1       4.569   5.647  17.360  0.00  0.00    +0.000 A 
ATOM     14  C   UNL     1       5.866   6.142  17.158  0.00  0.00    +0.000 A 
ATOM     15  C   UNL     1       6.797   5.442  16.385  0.00  0.00    +0.000 A 
ATOM     16  C   UNL     1       6.449   4.234  15.790  0.00  0.00    +0.000 A 
ATOM     17  C   UNL     1       5.158   3.736  15.955  0.00  0.00    +0.000 A 
ATOM     18  C   UNL     1       4.229   4.447  16.723  0.00  0.00    +0.000 A 
ATOM     19  F   UNL     1       2.997   3.927  16.809  0.00  0.00    +0.000 F 
ENDBRANCH  10  13
BRANCH   9  20
ATOM     20  N   UNL     1       3.376   4.926  20.223  0.00  0.00    +0.000 N 
ATOM     21  H   UNL     1       3.912   5.071  21.082  0.00  0.00    +0.000 HD
BRANCH  20  22
ATOM     22  C   UNL     1       2.637   3.654  20.269  0.00  0.00    +0.000 C 
ATOM     23  C   UNL     1       3.610   2.525  19.889  0.00  0.00    +0.000 C 
ATOM     24  C   UNL     1       2.230   3.407  21.744  0.00  0.00    +0.000 C 
ATOM     25  C   UNL     1       1.328   3.633  19.467  0.00  0.00    +0.000 C 
ENDBRANCH  20  22
ENDBRANCH   9  20
BRANCH   1  26
ATOM     26  C   UNL     1      -0.724  10.938  21.136  0.00  0.00    +0.000 C 
BRANCH  26  27
ATOM     27  C   UNL     1      -0.218  12.235  21.774  0.00  0.00    +0.000 C 
BRANCH  27  28
ATOM     28  C   UNL     1      -0.938  13.490  21.261  0.00  0.00    +0.000 C 
BRANCH  28  30
ATOM     29  C   UNL     1       1.338  14.337  21.415  0.00  0.00    +0.000 C 
ATOM     30  N   UNL     1      -0.013  14.579  20.906  0.00  0.00    +0.000 NA
ATOM     31  C   UNL     1       0.023  14.754  19.453  0.00  0.00    +0.000 C 
ENDBRANCH  28  30
ENDBRANCH  27  28
ENDBRANCH  26  27
ENDBRANCH   1  26
TORSDOF 7
ENDMDL
MODEL 7
REMARK VINA RESULT:      -7.5      1.418      1.910
REMARK  Name = 
REMARK  12 active torsions:
REMARK  status: ('A' for Active; 'I' for Inactive)
REMARK    1  A    between atoms: C_1  and  N_2
REMARK    2  A    between atoms: N_2  and  C_3
REMARK    3  A    between atoms: N_2  and  C_4
REMARK    4  A    between atoms: C_4  and  C_5
REMARK    5  A    between atoms: C_5  and  C_6
REMARK    6  A    between atoms: C_6  and  N_7
REMARK    7  A    between atoms: C_15  and  N_16
REMARK    8  A    between atoms: N_16  and  C_17
REMARK    9  A    between atoms: C_17  and  C_18
REMARK   10  A    between atoms: C_17  and  C_19
REMARK   11  A    between atoms: C_17  and  C_20
REMARK   12  A    between atoms: C_21  and  C_22
REMARK                            x       y       z     vdW  Elec       q    Type
REMARK                         _______ _______ _______ _____ _____    ______ ____
ROOT
ATOM      1  N   UNL     1       0.258  10.330  19.847  0.00  0.00    +0.000 N 
ATOM      2  C   UNL     1       0.654  10.929  18.677  0.00  0.00    +0.000 A 
ATOM      3  N   UNL     1       1.572  10.222  18.039  0.00  0.00    +0.000 NA
ATOM      4  C   UNL     1       1.732   9.116  18.819  0.00  0.00    +0.000 A 
ATOM      5  C   UNL     1       0.910   9.138  19.926  0.00  0.00    +0.000 A 
ATOM      6  N   UNL     1       0.736   8.213  20.900  0.00  0.00    +0.000 NA
ATOM      7  C   UNL     1       1.484   7.149  20.754  0.00  0.00    +0.000 A 
ATOM      8  N   UNL     1       2.437   6.979  19.737  0.00  0.00    +0.000 N 
ATOM      9  C   UNL     1       3.329   5.949  19.491  0.00  0.00    +0.000 A 
ATOM     10  C   UNL     1       3.874   6.274  18.239  0.00  0.00    +0.000 A 
ATOM     11  N   UNL     1       3.436   7.519  17.808  0.00  0.00    +0.000 NA
ATOM     12  C   UNL     1       2.576   7.906  18.719  0.00  0.00    +0.000 A 
ENDROOT
BRANCH  10  13
ATOM     13  C   UNL     1       4.850   5.508  17.460  0.00  0.00    +0.000 A 
ATOM     14  C   UNL     1       4.426   4.845  16.298  0.00  0.00    +0.000 A 
ATOM     15  C   UNL     1       5.324   4.127  15.503  0.00  0.00    +0.000 A 
ATOM     16  C   UNL     1       6.667   4.049  15.858  0.00  0.00    +0.000 A 
ATOM     17  C   UNL     1       7.106   4.675  17.022  0.00  0.00    +0.000 A 
ATOM     18  C   UNL     1       6.199   5.385  17.817  0.00  0.00    +0.000 A 
ATOM     19  F   UNL     1       6.684   5.932  18.940  0.00  0.00    +0.000 F 
ENDBRANCH  10  13
BRANCH   9  20
ATOM     20  N   UNL     1       3.498   4.831  20.262  0.00  0.00    +0.000 N 
ATOM     21  H   UNL     1       3.801   5.017  21.222  0.00  0.00    +0.000 HD
BRANCH  20  22
ATOM     22  C   UNL     1       2.929   3.479  20.140  0.00  0.00    +0.000 C 
ATOM     23  C   UNL     1       4.088   2.496  19.899  0.00  0.00    +0.000 C 
ATOM     24  C   UNL     1       2.314   3.108  21.513  0.00  0.00    +0.000 C 
ATOM     25  C   UNL     1       1.787   3.344  19.123  0.00  0.00    +0.000 C 
ENDBRANCH  20  22
ENDBRANCH   9  20
BRANCH   1  26
ATOM     26  C   UNL     1      -0.671  10.838  20.832  0.00  0.00    +0.000 C 
BRANCH  26  27
ATOM     27  C   UNL     1      -0.108  12.011  21.639  0.00  0.00    +0.000 C 
BRANCH  27  28
ATOM     28  C   UNL     1      -1.090  12.563  22.681  0.00  0.00    +0.000 C 
BRANCH  28  30
ATOM     29  C   UNL     1      -1.374  14.534  24.082  0.00  0.00    +0.000 C 
ATOM     30  N   UNL     1      -1.109  14.035  22.731  0.00  0.00    +0.000 NA
ATOM     31  C   UNL     1       0.162  14.570  22.241  0.00  0.00    +0.000 C 
ENDBRANCH  28  30
ENDBRANCH  27  28
ENDBRANCH  26  27
ENDBRANCH   1  26
TORSDOF 7
ENDMDL
MODEL 8
REMARK VINA RESULT:      -7.5      1.644      2.335
REMARK  Name = 
REMARK  12 active torsions:
REMARK  status: ('A' for Active; 'I' for Inactive)
REMARK    1  A    between atoms: C_1  and  N_2
REMARK    2  A    between atoms: N_2  and  C_3
REMARK    3  A    between atoms: N_2  and  C_4
REMARK    4  A    between atoms: C_4  and  C_5
REMARK    5  A    between atoms: C_5  and  C_6
REMARK    6  A    between atoms: C_6  and  N_7
REMARK    7  A    between atoms: C_15  and  N_16
REMARK    8  A    between atoms: N_16  and  C_17
REMARK    9  A    between atoms: C_17  and  C_18
REMARK   10  A    between atoms: C_17  and  C_19
REMARK   11  A    between atoms: C_17  and  C_20
REMARK   12  A    between atoms: C_21  and  C_22
REMARK                            x       y       z     vdW  Elec       q    Type
REMARK                         _______ _______ _______ _____ _____    ______ ____
ROOT
ATOM      1  N   UNL     1       0.378  10.080  20.025  0.00  0.00    +0.000 N 
ATOM      2  C   UNL     1       0.672  10.751  18.864  0.00  0.00    +0.000 A 
ATOM      3  N   UNL     1       1.554  10.103  18.122  0.00  0.00    +0.000 NA
ATOM      4  C   UNL     1       1.798   8.962  18.826  0.00  0.00    +0.000 A 
ATOM      5  C   UNL     1       1.061   8.903  19.990  0.00  0.00    +0.000 A 
ATOM      6  N   UNL     1       0.982   7.923  20.921  0.00  0.00    +0.000 NA
ATOM      7  C   UNL     1       1.741   6.890  20.663  0.00  0.00    +0.000 A 
ATOM      8  N   UNL     1       2.619   6.800  19.570  0.00  0.00    +0.000 N 
ATOM      9  C   UNL     1       3.513   5.808  19.203  0.00  0.00    +0.000 A 
ATOM     10  C   UNL     1       3.955   6.215  17.933  0.00  0.00    +0.000 A 
ATOM     11  N   UNL     1       3.457   7.468  17.605  0.00  0.00    +0.000 NA
ATOM     12  C   UNL     1       2.660   7.782  18.598  0.00  0.00    +0.000 A 
ENDROOT
BRANCH  10  13
ATOM     13  C   UNL     1       4.887   5.517  17.044  0.00  0.00    +0.000 A 
ATOM     14  C   UNL     1       4.497   4.298  16.468  0.00  0.00    +0.000 A 
ATOM     15  C   UNL     1       5.337   3.609  15.589  0.00  0.00    +0.000 A 
ATOM     16  C   UNL     1       6.591   4.121  15.270  0.00  0.00    +0.000 A 
ATOM     17  C   UNL     1       7.011   5.316  15.850  0.00  0.00    +0.000 A 
ATOM     18  C   UNL     1       6.167   5.995  16.737  0.00  0.00    +0.000 A 
ATOM     19  F   UNL     1       6.650   7.119  17.284  0.00  0.00    +0.000 F 
ENDBRANCH  10  13
BRANCH   9  20
ATOM     20  N   UNL     1       3.765   4.656  19.896  0.00  0.00    +0.000 N 
ATOM     21  H   UNL     1       4.396   4.768  20.694  0.00  0.00    +0.000 HD
BRANCH  20  22
ATOM     22  C   UNL     1       2.997   3.405  20.001  0.00  0.00    +0.000 C 
ATOM     23  C   UNL     1       1.877   3.445  18.947  0.00  0.00    +0.000 C 
ATOM     24  C   UNL     1       3.941   2.244  19.599  0.00  0.00    +0.000 C 
ATOM     25  C   UNL     1       2.499   3.065  21.414  0.00  0.00    +0.000 C 
ENDBRANCH  20  22
ENDBRANCH   9  20
BRANCH   1  26
ATOM     26  C   UNL     1      -0.486  10.510  21.102  0.00  0.00    +0.000 C 
BRANCH  26  27
ATOM     27  C   UNL     1      -0.987  11.946  20.932  0.00  0.00    +0.000 C 
BRANCH  27  28
ATOM     28  C   UNL     1      -0.284  12.952  21.855  0.00  0.00    +0.000 C 
BRANCH  28  30
ATOM     29  C   UNL     1       0.146  14.308  19.879  0.00  0.00    +0.000 C 
ATOM     30  N   UNL     1       0.685  13.804  21.144  0.00  0.00    +0.000 NA
ATOM     31  C   UNL     1       1.090  14.922  21.996  0.00  0.00    +0.000 C 
ENDBRANCH  28  30
ENDBRANCH  27  28
ENDBRANCH  26  27
ENDBRANCH   1  26
TORSDOF 7
ENDMDL
MODEL 9
REMARK VINA RESULT:      -7.4      1.674      2.242
REMARK  Name = 
REMARK  12 active torsions:
REMARK  status: ('A' for Active; 'I' for Inactive)
REMARK    1  A    between atoms: C_1  and  N_2
REMARK    2  A    between atoms: N_2  and  C_3
REMARK    3  A    between atoms: N_2  and  C_4
REMARK    4  A    between atoms: C_4  and  C_5
REMARK    5  A    between atoms: C_5  and  C_6
REMARK    6  A    between atoms: C_6  and  N_7
REMARK    7  A    between atoms: C_15  and  N_16
REMARK    8  A    between atoms: N_16  and  C_17
REMARK    9  A    between atoms: C_17  and  C_18
REMARK   10  A    between atoms: C_17  and  C_19
REMARK   11  A    between atoms: C_17  and  C_20
REMARK   12  A    between atoms: C_21  and  C_22
REMARK                            x       y       z     vdW  Elec       q    Type
REMARK                         _______ _______ _______ _____ _____    ______ ____
ROOT
ATOM      1  N   UNL     1       0.221  10.256  19.826  0.00  0.00    +0.000 N 
ATOM      2  C   UNL     1       0.590  10.851  18.645  0.00  0.00    +0.000 A 
ATOM      3  N   UNL     1       1.511  10.155  18.000  0.00  0.00    +0.000 NA
ATOM      4  C   UNL     1       1.703   9.059  18.788  0.00  0.00    +0.000 A 
ATOM      5  C   UNL     1       0.897   9.076  19.906  0.00  0.00    +0.000 A 
ATOM      6  N   UNL     1       0.754   8.157  20.891  0.00  0.00    +0.000 NA
ATOM      7  C   UNL     1       1.519   7.107  20.744  0.00  0.00    +0.000 A 
ATOM      8  N   UNL     1       2.460   6.945  19.714  0.00  0.00    +0.000 N 
ATOM      9  C   UNL     1       3.367   5.928  19.465  0.00  0.00    +0.000 A 
ATOM     10  C   UNL     1       3.888   6.252  18.201  0.00  0.00    +0.000 A 
ATOM     11  N   UNL     1       3.421   7.485  17.766  0.00  0.00    +0.000 NA
ATOM     12  C   UNL     1       2.567   7.864  18.686  0.00  0.00    +0.000 A 
ENDROOT
BRANCH  10  13
ATOM     13  C   UNL     1       4.867   5.496  17.415  0.00  0.00    +0.000 A 
ATOM     14  C   UNL     1       4.437   4.810  16.269  0.00  0.00    +0.000 A 
ATOM     15  C   UNL     1       5.337   4.102  15.468  0.00  0.00    +0.000 A 
ATOM     16  C   UNL     1       6.686   4.056  15.800  0.00  0.00    +0.000 A 
ATOM     17  C   UNL     1       7.132   4.706  16.948  0.00  0.00    +0.000 A 
ATOM     18  C   UNL     1       6.224   5.407  17.750  0.00  0.00    +0.000 A 
ATOM     19  F   UNL     1       6.716   5.978  18.857  0.00  0.00    +0.000 F 
ENDBRANCH  10  13
BRANCH   9  20
ATOM     20  N   UNL     1       3.568   4.821  20.242  0.00  0.00    +0.000 N 
ATOM     21  H   UNL     1       3.873   5.022  21.199  0.00  0.00    +0.000 HD
BRANCH  20  22
ATOM     22  C   UNL     1       3.031   3.455  20.135  0.00  0.00    +0.000 C 
ATOM     23  C   UNL     1       2.371   3.097  21.478  0.00  0.00    +0.000 C 
ATOM     24  C   UNL     1       1.897   3.482  19.079  0.00  0.00    +0.000 C 
ATOM     25  C   UNL     1       4.033   2.401  19.642  0.00  0.00    +0.000 C 
ENDBRANCH  20  22
ENDBRANCH   9  20
BRANCH   1  26
ATOM     26  C   UNL     1      -0.702  10.756  20.820  0.00  0.00    +0.000 C 
BRANCH  26  27
ATOM     27  C   UNL     1      -0.893  12.274  20.751  0.00  0.00    +0.000 C 
BRANCH  27  28
ATOM     28  C   UNL     1      -0.001  13.046  21.734  0.00  0.00    +0.000 C 
BRANCH  28  30
ATOM     29  C   UNL     1       1.074  15.224  21.889  0.00  0.00    +0.000 C 
ATOM     30  N   UNL     1       0.870  14.030  21.067  0.00  0.00    +0.000 NA
ATOM     31  C   UNL     1       2.159  13.420  20.742  0.00  0.00    +0.000 C 
ENDBRANCH  28  30
ENDBRANCH  27  28
ENDBRANCH  26  27
ENDBRANCH   1  26
TORSDOF 7
ENDMDL
