MODEL 1
REMARK VINA RESULT:      -7.3      0.000      0.000
REMARK  Name = 
REMARK  8 active torsions:
REMARK  status: ('A' for Active; 'I' for Inactive)
REMARK    1  A    between atoms: C_1  and  C_2
REMARK    2  A    between atoms: C_2  and  C_3
REMARK    3  A    between atoms: C_2  and  C_4
REMARK    4  A    between atoms: C_4  and  N_5
REMARK    5  A    between atoms: C_9  and  C_10
REMARK    6  A    between atoms: C_10  and  S_11
REMARK    7  A    between atoms: S_11  and  C_12
REMARK    8  A    between atoms: N_21  and  C_22
REMARK                            x       y       z     vdW  Elec       q    Type
REMARK                         _______ _______ _______ _____ _____    ______ ____
ROOT
ATOM      1  C   UNL     1       1.810   7.909  20.100  0.00  0.00    +0.000 A 
ATOM      2  N   UNL     1       1.226   8.026  21.243  0.00  0.00    +0.000 NA
ATOM      3  C   UNL     1       0.452   9.115  21.433  0.00  0.00    +0.000 A 
ATOM      4  S   UNL     1      -0.330   9.440  22.935  0.00  0.00    +0.000 S 
ATOM      5  C   UNL     1      -0.746  10.973  22.413  0.00  0.00    +0.000 A 
ATOM      6  C   UNL     1      -0.518  11.170  21.079  0.00  0.00    +0.000 A 
ATOM      7  C   UNL     1       0.208  10.102  20.500  0.00  0.00    +0.000 A 
ATOM      8  C   UNL     1       0.751   9.915  19.178  0.00  0.00    +0.000 A 
ATOM      9  O   UNL     1       0.482  10.701  18.275  0.00  0.00    +0.000 OA
ATOM     10  N   UNL     1       1.586   8.791  19.035  0.00  0.00    +0.000 N 
ATOM     11  C   UNL     1       2.152   8.587  17.714  0.00  0.00    +0.000 C 
ATOM     12  C   UNL     1      -1.063  12.461  20.623  0.00  0.00    +0.000 C 
ATOM     13  C   UNL     1      -1.359  13.197  21.969  0.00  0.00    +0.000 C 
ATOM     14  C   UNL     1      -1.362  12.124  23.106  0.00  0.00    +0.000 C 
ENDROOT
BRANCH   1  15
ATOM     15  S   UNL     1       2.876   6.520  19.853  0.00  0.00    +0.000 S 
BRANCH  15  16
ATOM     16  C   UNL     1       1.828   4.995  19.749  0.00  0.00    +0.000 C 
BRANCH  16  21
ATOM     17  N   UNL     1       4.171   3.010  18.296  0.00  0.00    +0.000 NA
ATOM     18  C   UNL     1       3.443   1.751  18.106  0.00  0.00    +0.000 C 
ATOM     19  C   UNL     1       1.945   1.867  18.460  0.00  0.00    +0.000 C 
ATOM     20  O   UNL     1       1.630   2.493  19.718  0.00  0.00    +0.000 OA
ATOM     21  C   UNL     1       2.456   3.621  20.119  0.00  0.00    +0.000 C 
ATOM     22  C   UNL     1       3.918   3.361  19.724  0.00  0.00    +0.000 C 
BRANCH  17  23
ATOM     23  C   UNL     1       3.748   4.035  17.321  0.00  0.00    +0.000 C 
BRANCH  23  25
ATOM     24  C   UNL     1       5.591   5.727  17.356  0.00  0.00    +0.000 C 
ATOM     25  C   UNL     1       4.797   4.763  16.448  0.00  0.00    +0.000 C 
ATOM     26  C   UNL     1       5.792   3.872  15.709  0.00  0.00    +0.000 C 
ENDBRANCH  23  25
ENDBRANCH  17  23
ENDBRANCH  16  21
ENDBRANCH  15  16
ENDBRANCH   1  15
TORSDOF 5
ENDMDL
MODEL 2
REMARK VINA RESULT:      -7.0      2.571      8.206
REMARK  Name = 
REMARK  8 active torsions:
REMARK  status: ('A' for Active; 'I' for Inactive)
REMARK    1  A    between atoms: C_1  and  C_2
REMARK    2  A    between atoms: C_2  and  C_3
REMARK    3  A    between atoms: C_2  and  C_4
REMARK    4  A    between atoms: C_4  and  N_5
REMARK    5  A    between atoms: C_9  and  C_10
REMARK    6  A    between atoms: C_10  and  S_11
REMARK    7  A    between atoms: S_11  and  C_12
REMARK    8  A    between atoms: N_21  and  C_22
REMARK                            x       y       z     vdW  Elec       q    Type
REMARK                         _______ _______ _______ _____ _____    ______ ____
ROOT
ATOM      1  C   UNL     1       1.576   7.771  20.537  0.00  0.00    +0.000 A 
ATOM      2  N   UNL     1       1.563   6.624  21.122  0.00  0.00    +0.000 NA
ATOM      3  C   UNL     1       1.971   5.558  20.402  0.00  0.00    +0.000 A 
ATOM      4  S   UNL     1       1.937   3.952  21.031  0.00  0.00    +0.000 S 
ATOM      5  C   UNL     1       2.269   3.327  19.516  0.00  0.00    +0.000 A 
ATOM      6  C   UNL     1       2.625   4.282  18.604  0.00  0.00    +0.000 A 
ATOM      7  C   UNL     1       2.428   5.592  19.101  0.00  0.00    +0.000 A 
ATOM      8  C   UNL     1       2.569   6.885  18.481  0.00  0.00    +0.000 A 
ATOM      9  O   UNL     1       3.070   6.993  17.365  0.00  0.00    +0.000 OA
ATOM     10  N   UNL     1       2.093   7.965  19.249  0.00  0.00    +0.000 N 
ATOM     11  C   UNL     1       2.215   9.277  18.641  0.00  0.00    +0.000 C 
ATOM     12  C   UNL     1       3.082   3.677  17.340  0.00  0.00    +0.000 C 
ATOM     13  C   UNL     1       2.618   2.192  17.489  0.00  0.00    +0.000 C 
ATOM     14  C   UNL     1       2.304   1.943  19.000  0.00  0.00    +0.000 C 
ENDROOT
BRANCH   1  15
ATOM     15  S   UNL     1       0.989   9.171  21.444  0.00  0.00    +0.000 S 
BRANCH  15  16
ATOM     16  C   UNL     1      -0.473   9.872  20.549  0.00  0.00    +0.000 C 
BRANCH  16  21
ATOM     17  N   UNL     1      -1.921  12.046  18.377  0.00  0.00    +0.000 NA
ATOM     18  C   UNL     1      -0.828  12.983  18.092  0.00  0.00    +0.000 C 
ATOM     19  C   UNL     1       0.513  12.544  18.718  0.00  0.00    +0.000 C 
ATOM     20  O   UNL     1       0.477  12.152  20.103  0.00  0.00    +0.000 OA
ATOM     21  C   UNL     1      -0.692  11.412  20.550  0.00  0.00    +0.000 C 
ATOM     22  C   UNL     1      -1.951  11.967  19.866  0.00  0.00    +0.000 C 
BRANCH  17  23
ATOM     23  C   UNL     1      -1.721  10.754  17.691  0.00  0.00    +0.000 C 
BRANCH  23  25
ATOM     24  C   UNL     1      -4.195  10.771  17.315  0.00  0.00    +0.000 C 
ATOM     25  C   UNL     1      -2.867  10.121  16.868  0.00  0.00    +0.000 C 
ATOM     26  C   UNL     1      -2.758  10.249  15.352  0.00  0.00    +0.000 C 
ENDBRANCH  23  25
ENDBRANCH  17  23
ENDBRANCH  16  21
ENDBRANCH  15  16
ENDBRANCH   1  15
TORSDOF 5
ENDMDL
MODEL 3
REMARK VINA RESULT:      -6.9      0.866      1.007
REMARK  Name = 
REMARK  8 active torsions:
REMARK  status: ('A' for Active; 'I' for Inactive)
REMARK    1  A    between atoms: C_1  and  C_2
REMARK    2  A    between atoms: C_2  and  C_3
REMARK    3  A    between atoms: C_2  and  C_4
REMARK    4  A    between atoms: C_4  and  N_5
REMARK    5  A    between atoms: C_9  and  C_10
REMARK    6  A    between atoms: C_10  and  S_11
REMARK    7  A    between atoms: S_11  and  C_12
REMARK    8  A    between atoms: N_21  and  C_22
REMARK                            x       y       z     vdW  Elec       q    Type
REMARK                         _______ _______ _______ _____ _____    ______ ____
ROOT
ATOM      1  C   UNL     1       1.692   8.008  19.871  0.00  0.00    +0.000 A 
ATOM      2  N   UNL     1       1.096   8.015  21.013  0.00  0.00    +0.000 NA
ATOM      3  C   UNL     1       0.346   9.097  21.311  0.00  0.00    +0.000 A 
ATOM      4  S   UNL     1      -0.449   9.278  22.831  0.00  0.00    +0.000 S 
ATOM      5  C   UNL     1      -0.821  10.868  22.472  0.00  0.00    +0.000 A 
ATOM      6  C   UNL     1      -0.571  11.201  21.170  0.00  0.00    +0.000 A 
ATOM      7  C   UNL     1       0.137  10.184  20.487  0.00  0.00    +0.000 A 
ATOM      8  C   UNL     1       0.693  10.127  19.159  0.00  0.00    +0.000 A 
ATOM      9  O   UNL     1       0.454  11.011  18.342  0.00  0.00    +0.000 OA
ATOM     10  N   UNL     1       1.503   9.004  18.904  0.00  0.00    +0.000 N 
ATOM     11  C   UNL     1       2.082   8.929  17.575  0.00  0.00    +0.000 C 
ATOM     12  C   UNL     1      -1.079  12.547  20.849  0.00  0.00    +0.000 C 
ATOM     13  C   UNL     1      -1.375  13.141  22.264  0.00  0.00    +0.000 C 
ATOM     14  C   UNL     1      -1.419  11.953  23.278  0.00  0.00    +0.000 C 
ENDROOT
BRANCH   1  15
ATOM     15  S   UNL     1       2.728   6.627  19.487  0.00  0.00    +0.000 S 
BRANCH  15  16
ATOM     16  C   UNL     1       2.365   5.273  20.699  0.00  0.00    +0.000 C 
BRANCH  16  21
ATOM     17  N   UNL     1       4.032   2.890  18.944  0.00  0.00    +0.000 NA
ATOM     18  C   UNL     1       3.180   2.716  17.761  0.00  0.00    +0.000 C 
ATOM     19  C   UNL     1       2.026   3.739  17.700  0.00  0.00    +0.000 C 
ATOM     20  O   UNL     1       1.257   3.912  18.905  0.00  0.00    +0.000 OA
ATOM     21  C   UNL     1       1.983   3.864  20.165  0.00  0.00    +0.000 C 
ATOM     22  C   UNL     1       3.082   2.793  20.090  0.00  0.00    +0.000 C 
BRANCH  17  23
ATOM     23  C   UNL     1       4.800   4.149  18.879  0.00  0.00    +0.000 C 
BRANCH  23  25
ATOM     24  C   UNL     1       5.164   5.684  16.938  0.00  0.00    +0.000 C 
ATOM     25  C   UNL     1       5.718   4.443  17.671  0.00  0.00    +0.000 C 
ATOM     26  C   UNL     1       7.190   4.693  17.989  0.00  0.00    +0.000 C 
ENDBRANCH  23  25
ENDBRANCH  17  23
ENDBRANCH  16  21
ENDBRANCH  15  16
ENDBRANCH   1  15
TORSDOF 5
ENDMDL
MODEL 4
REMARK VINA RESULT:      -6.8      1.240      1.623
REMARK  Name = 
REMARK  8 active torsions:
REMARK  status: ('A' for Active; 'I' for Inactive)
REMARK    1  A    between atoms: C_1  and  C_2
REMARK    2  A    between atoms: C_2  and  C_3
REMARK    3  A    between atoms: C_2  and  C_4
REMARK    4  A    between atoms: C_4  and  N_5
REMARK    5  A    between atoms: C_9  and  C_10
REMARK    6  A    between atoms: C_10  and  S_11
REMARK    7  A    between atoms: S_11  and  C_12
REMARK    8  A    between atoms: N_21  and  C_22
REMARK                            x       y       z     vdW  Elec       q    Type
REMARK                         _______ _______ _______ _____ _____    ______ ____
ROOT
ATOM      1  C   UNL     1       1.806   7.432  20.286  0.00  0.00    +0.000 A 
ATOM      2  N   UNL     1       1.047   8.053  21.122  0.00  0.00    +0.000 NA
ATOM      3  C   UNL     1       0.646   9.297  20.785  0.00  0.00    +0.000 A 
ATOM      4  S   UNL     1      -0.310  10.274  21.837  0.00  0.00    +0.000 S 
ATOM      5  C   UNL     1      -0.077  11.603  20.850  0.00  0.00    +0.000 A 
ATOM      6  C   UNL     1       0.500  11.292  19.650  0.00  0.00    +0.000 A 
ATOM      7  C   UNL     1       0.954   9.952  19.610  0.00  0.00    +0.000 A 
ATOM      8  C   UNL     1       1.693   9.218  18.615  0.00  0.00    +0.000 A 
ATOM      9  O   UNL     1       1.906   9.704  17.508  0.00  0.00    +0.000 OA
ATOM     10  N   UNL     1       2.128   7.942  19.022  0.00  0.00    +0.000 N 
ATOM     11  C   UNL     1       2.884   7.187  18.039  0.00  0.00    +0.000 C 
ATOM     12  C   UNL     1       0.522  12.453  18.743  0.00  0.00    +0.000 C 
ATOM     13  C   UNL     1       0.182  13.638  19.704  0.00  0.00    +0.000 C 
ATOM     14  C   UNL     1      -0.428  13.031  21.009  0.00  0.00    +0.000 C 
ENDROOT
BRANCH   1  15
ATOM     15  S   UNL     1       2.391   5.825  20.737  0.00  0.00    +0.000 S 
BRANCH  15  16
ATOM     16  C   UNL     1       1.312   4.562  19.915  0.00  0.00    +0.000 C 
BRANCH  16  21
ATOM     17  N   UNL     1       4.093   2.647  19.543  0.00  0.00    +0.000 NA
ATOM     18  C   UNL     1       3.646   1.624  18.591  0.00  0.00    +0.000 C 
ATOM     19  C   UNL     1       2.232   1.899  18.037  0.00  0.00    +0.000 C 
ATOM     20  O   UNL     1       1.216   2.225  19.005  0.00  0.00    +0.000 OA
ATOM     21  C   UNL     1       1.618   3.053  20.131  0.00  0.00    +0.000 C 
ATOM     22  C   UNL     1       3.030   2.656  20.589  0.00  0.00    +0.000 C 
BRANCH  17  23
ATOM     23  C   UNL     1       4.320   3.946  18.877  0.00  0.00    +0.000 C 
BRANCH  23  25
ATOM     24  C   UNL     1       5.436   4.533  16.717  0.00  0.00    +0.000 C 
ATOM     25  C   UNL     1       5.682   4.257  18.216  0.00  0.00    +0.000 C 
ATOM     26  C   UNL     1       6.459   5.435  18.798  0.00  0.00    +0.000 C 
ENDBRANCH  23  25
ENDBRANCH  17  23
ENDBRANCH  16  21
ENDBRANCH  15  16
ENDBRANCH   1  15
TORSDOF 5
ENDMDL
MODEL 5
REMARK VINA RESULT:      -6.8      2.257      8.654
REMARK  Name = 
REMARK  8 active torsions:
REMARK  status: ('A' for Active; 'I' for Inactive)
REMARK    1  A    between atoms: C_1  and  C_2
REMARK    2  A    between atoms: C_2  and  C_3
REMARK    3  A    between atoms: C_2  and  C_4
REMARK    4  A    between atoms: C_4  and  N_5
REMARK    5  A    between atoms: C_9  and  C_10
REMARK    6  A    between atoms: C_10  and  S_11
REMARK    7  A    between atoms: S_11  and  C_12
REMARK    8  A    between atoms: N_21  and  C_22
REMARK                            x       y       z     vdW  Elec       q    Type
REMARK                         _______ _______ _______ _____ _____    ______ ____
ROOT
ATOM      1  C   UNL     1       2.241   6.727  19.744  0.00  0.00    +0.000 A 
ATOM      2  N   UNL     1       2.911   7.365  18.848  0.00  0.00    +0.000 NA
ATOM      3  C   UNL     1       3.565   6.629  17.925  0.00  0.00    +0.000 A 
ATOM      4  S   UNL     1       4.560   7.343  16.711  0.00  0.00    +0.000 S 
ATOM      5  C   UNL     1       5.152   5.840  16.279  0.00  0.00    +0.000 A 
ATOM      6  C   UNL     1       4.468   4.805  16.854  0.00  0.00    +0.000 A 
ATOM      7  C   UNL     1       3.557   5.251  17.840  0.00  0.00    +0.000 A 
ATOM      8  C   UNL     1       2.707   4.535  18.757  0.00  0.00    +0.000 A 
ATOM      9  O   UNL     1       2.571   3.319  18.664  0.00  0.00    +0.000 OA
ATOM     10  N   UNL     1       2.077   5.336  19.729  0.00  0.00    +0.000 N 
ATOM     11  C   UNL     1       1.223   4.635  20.670  0.00  0.00    +0.000 C 
ATOM     12  C   UNL     1       4.899   3.504  16.310  0.00  0.00    +0.000 C 
ATOM     13  C   UNL     1       6.215   3.875  15.553  0.00  0.00    +0.000 C 
ATOM     14  C   UNL     1       6.228   5.425  15.354  0.00  0.00    +0.000 C 
ENDROOT
BRANCH   1  15
ATOM     15  S   UNL     1       1.426   7.672  20.997  0.00  0.00    +0.000 S 
BRANCH  15  16
ATOM     16  C   UNL     1       0.931   9.302  20.266  0.00  0.00    +0.000 C 
BRANCH  16  21
ATOM     17  N   UNL     1      -1.209  11.933  20.089  0.00  0.00    +0.000 NA
ATOM     18  C   UNL     1      -0.309  13.082  20.238  0.00  0.00    +0.000 C 
ATOM     19  C   UNL     1       1.180  12.678  20.244  0.00  0.00    +0.000 C 
ATOM     20  O   UNL     1       1.544  11.585  21.109  0.00  0.00    +0.000 OA
ATOM     21  C   UNL     1       0.598  10.486  21.218  0.00  0.00    +0.000 C 
ATOM     22  C   UNL     1      -0.837  11.034  21.219  0.00  0.00    +0.000 C 
BRANCH  17  23
ATOM     23  C   UNL     1      -1.096  11.324  18.749  0.00  0.00    +0.000 C 
BRANCH  23  25
ATOM     24  C   UNL     1      -3.541  11.380  18.220  0.00  0.00    +0.000 C 
ATOM     25  C   UNL     1      -2.268  10.506  18.160  0.00  0.00    +0.000 C 
ATOM     26  C   UNL     1      -2.093  10.014  16.726  0.00  0.00    +0.000 C 
ENDBRANCH  23  25
ENDBRANCH  17  23
ENDBRANCH  16  21
ENDBRANCH  15  16
ENDBRANCH   1  15
TORSDOF 5
ENDMDL
MODEL 6
REMARK VINA RESULT:      -6.6      2.373      3.797
REMARK  Name = 
REMARK  8 active torsions:
REMARK  status: ('A' for Active; 'I' for Inactive)
REMARK    1  A    between atoms: C_1  and  C_2
REMARK    2  A    between atoms: C_2  and  C_3
REMARK    3  A    between atoms: C_2  and  C_4
REMARK    4  A    between atoms: C_4  and  N_5
REMARK    5  A    between atoms: C_9  and  C_10
REMARK    6  A    between atoms: C_10  and  S_11
REMARK    7  A    between atoms: S_11  and  C_12
REMARK    8  A    between atoms: N_21  and  C_22
REMARK                            x       y       z     vdW  Elec       q    Type
REMARK                         _______ _______ _______ _____ _____    ______ ____
ROOT
ATOM      1  C   UNL     1       1.441   9.322  18.948  0.00  0.00    +0.000 A 
ATOM      2  N   UNL     1       1.487  10.468  18.363  0.00  0.00    +0.000 NA
ATOM      3  C   UNL     1       1.142  11.549  19.094  0.00  0.00    +0.000 A 
ATOM      4  S   UNL     1       1.086  13.137  18.423  0.00  0.00    +0.000 S 
ATOM      5  C   UNL     1       0.337  13.717  19.800  0.00  0.00    +0.000 A 
ATOM      6  C   UNL     1       0.330  12.819  20.831  0.00  0.00    +0.000 A 
ATOM      7  C   UNL     1       0.772  11.538  20.423  0.00  0.00    +0.000 A 
ATOM      8  C   UNL     1       0.842  10.279  21.121  0.00  0.00    +0.000 A 
ATOM      9  O   UNL     1       0.630  10.220  22.328  0.00  0.00    +0.000 OA
ATOM     10  N   UNL     1       1.164   9.171  20.313  0.00  0.00    +0.000 N 
ATOM     11  C   UNL     1       1.231   7.890  20.992  0.00  0.00    +0.000 C 
ATOM     12  C   UNL     1      -0.173  13.428  22.076  0.00  0.00    +0.000 C 
ATOM     13  C   UNL     1      -0.811  14.760  21.565  0.00  0.00    +0.000 C 
ATOM     14  C   UNL     1      -0.261  15.029  20.127  0.00  0.00    +0.000 C 
ENDROOT
BRANCH   1  15
ATOM     15  S   UNL     1       1.830   7.887  17.990  0.00  0.00    +0.000 S 
BRANCH  15  16
ATOM     16  C   UNL     1       3.611   7.464  18.274  0.00  0.00    +0.000 C 
BRANCH  16  21
ATOM     17  N   UNL     1       3.498   4.103  18.753  0.00  0.00    +0.000 NA
ATOM     18  C   UNL     1       4.918   3.755  18.881  0.00  0.00    +0.000 C 
ATOM     19  C   UNL     1       5.837   4.995  18.916  0.00  0.00    +0.000 C 
ATOM     20  O   UNL     1       5.609   5.991  17.901  0.00  0.00    +0.000 OA
ATOM     21  C   UNL     1       4.228   6.248  17.526  0.00  0.00    +0.000 C 
ATOM     22  C   UNL     1       3.439   4.929  17.512  0.00  0.00    +0.000 C 
BRANCH  17  23
ATOM     23  C   UNL     1       2.992   4.772  19.968  0.00  0.00    +0.000 C 
BRANCH  23  25
ATOM     24  C   UNL     1       0.853   3.496  19.727  0.00  0.00    +0.000 C 
ATOM     25  C   UNL     1       1.794   4.178  20.745  0.00  0.00    +0.000 C 
ATOM     26  C   UNL     1       2.133   3.167  21.836  0.00  0.00    +0.000 C 
ENDBRANCH  23  25
ENDBRANCH  17  23
ENDBRANCH  16  21
ENDBRANCH  15  16
ENDBRANCH   1  15
TORSDOF 5
ENDMDL
MODEL 7
REMARK VINA RESULT:      -6.5      2.285      3.604
REMARK  Name = 
REMARK  8 active torsions:
REMARK  status: ('A' for Active; 'I' for Inactive)
REMARK    1  A    between atoms: C_1  and  C_2
REMARK    2  A    between atoms: C_2  and  C_3
REMARK    3  A    between atoms: C_2  and  C_4
REMARK    4  A    between atoms: C_4  and  N_5
REMARK    5  A    between atoms: C_9  and  C_10
REMARK    6  A    between atoms: C_10  and  S_11
REMARK    7  A    between atoms: S_11  and  C_12
REMARK    8  A    between atoms: N_21  and  C_22
REMARK                            x       y       z     vdW  Elec       q    Type
REMARK                         _______ _______ _______ _____ _____    ______ ____
ROOT
ATOM      1  C   UNL     1       1.852   8.640  18.681  0.00  0.00    +0.000 A 
ATOM      2  N   UNL     1       1.605   9.869  18.383  0.00  0.00    +0.000 NA
ATOM      3  C   UNL     1       1.006  10.625  19.327  0.00  0.00    +0.000 A 
ATOM      4  S   UNL     1       0.549  12.264  19.043  0.00  0.00    +0.000 S 
ATOM      5  C   UNL     1      -0.313  12.295  20.475  0.00  0.00    +0.000 A 
ATOM      6  C   UNL     1      -0.088  11.203  21.266  0.00  0.00    +0.000 A 
ATOM      7  C   UNL     1       0.658  10.205  20.595  0.00  0.00    +0.000 A 
ATOM      8  C   UNL     1       1.047   8.873  20.982  0.00  0.00    +0.000 A 
ATOM      9  O   UNL     1       0.864   8.476  22.129  0.00  0.00    +0.000 OA
ATOM     10  N   UNL     1       1.630   8.104  19.957  0.00  0.00    +0.000 N 
ATOM     11  C   UNL     1       2.021   6.754  20.321  0.00  0.00    +0.000 C 
ATOM     12  C   UNL     1      -0.719  11.353  22.589  0.00  0.00    +0.000 C 
ATOM     13  C   UNL     1      -1.674  12.571  22.370  0.00  0.00    +0.000 C 
ATOM     14  C   UNL     1      -1.219  13.303  21.066  0.00  0.00    +0.000 C 
ENDROOT
BRANCH   1  15
ATOM     15  S   UNL     1       2.583   7.617  17.437  0.00  0.00    +0.000 S 
BRANCH  15  16
ATOM     16  C   UNL     1       4.302   7.187  17.975  0.00  0.00    +0.000 C 
BRANCH  16  21
ATOM     17  N   UNL     1       5.459   4.432  16.359  0.00  0.00    +0.000 NA
ATOM     18  C   UNL     1       6.889   4.451  16.687  0.00  0.00    +0.000 C 
ATOM     19  C   UNL     1       7.253   5.546  17.712  0.00  0.00    +0.000 C 
ATOM     20  O   UNL     1       6.736   6.865  17.451  0.00  0.00    +0.000 OA
ATOM     21  C   UNL     1       5.395   6.951  16.894  0.00  0.00    +0.000 C 
ATOM     22  C   UNL     1       5.180   5.817  15.880  0.00  0.00    +0.000 C 
BRANCH  17  23
ATOM     23  C   UNL     1       4.643   3.998  17.510  0.00  0.00    +0.000 C 
BRANCH  23  25
ATOM     24  C   UNL     1       3.400   1.894  18.048  0.00  0.00    +0.000 C 
ATOM     25  C   UNL     1       3.317   3.234  17.284  0.00  0.00    +0.000 C 
ATOM     26  C   UNL     1       2.043   3.954  17.717  0.00  0.00    +0.000 C 
ENDBRANCH  23  25
ENDBRANCH  17  23
ENDBRANCH  16  21
ENDBRANCH  15  16
ENDBRANCH   1  15
TORSDOF 5
ENDMDL
MODEL 8
REMARK VINA RESULT:      -6.5      1.490      2.761
REMARK  Name = 
REMARK  8 active torsions:
REMARK  status: ('A' for Active; 'I' for Inactive)
REMARK    1  A    between atoms: C_1  and  C_2
REMARK    2  A    between atoms: C_2  and  C_3
REMARK    3  A    between atoms: C_2  and  C_4
REMARK    4  A    between atoms: C_4  and  N_5
REMARK    5  A    between atoms: C_9  and  C_10
REMARK    6  A    between atoms: C_10  and  S_11
REMARK    7  A    between atoms: S_11  and  C_12
REMARK    8  A    between atoms: N_21  and  C_22
REMARK                            x       y       z     vdW  Elec       q    Type
REMARK                         _______ _______ _______ _____ _____    ______ ____
ROOT
ATOM      1  C   UNL     1       1.495   8.366  20.277  0.00  0.00    +0.000 A 
ATOM      2  N   UNL     1       0.897   8.498  21.410  0.00  0.00    +0.000 NA
ATOM      3  C   UNL     1       0.112   9.585  21.571  0.00  0.00    +0.000 A 
ATOM      4  S   UNL     1      -0.691   9.930  23.058  0.00  0.00    +0.000 S 
ATOM      5  C   UNL     1      -1.113  11.450  22.503  0.00  0.00    +0.000 A 
ATOM      6  C   UNL     1      -0.871  11.624  21.168  0.00  0.00    +0.000 A 
ATOM      7  C   UNL     1      -0.129  10.553  20.618  0.00  0.00    +0.000 A 
ATOM      8  C   UNL     1       0.430  10.346  19.306  0.00  0.00    +0.000 A 
ATOM      9  O   UNL     1       0.165  11.112  18.384  0.00  0.00    +0.000 OA
ATOM     10  N   UNL     1       1.276   9.226  19.192  0.00  0.00    +0.000 N 
ATOM     11  C   UNL     1       1.859   9.003  17.882  0.00  0.00    +0.000 C 
ATOM     12  C   UNL     1      -1.421  12.902  20.682  0.00  0.00    +0.000 C 
ATOM     13  C   UNL     1      -1.739  13.660  22.011  0.00  0.00    +0.000 C 
ATOM     14  C   UNL     1      -1.747  12.608  23.167  0.00  0.00    +0.000 C 
ENDROOT
BRANCH   1  15
ATOM     15  S   UNL     1       2.575   6.981  20.068  0.00  0.00    +0.000 S 
BRANCH  15  16
ATOM     16  C   UNL     1       2.200   6.194  18.433  0.00  0.00    +0.000 C 
BRANCH  16  21
ATOM     17  N   UNL     1       3.894   3.251  18.540  0.00  0.00    +0.000 NA
ATOM     18  C   UNL     1       5.282   3.692  18.721  0.00  0.00    +0.000 C 
ATOM     19  C   UNL     1       5.400   5.214  18.948  0.00  0.00    +0.000 C 
ATOM     20  O   UNL     1       4.675   6.058  18.034  0.00  0.00    +0.000 OA
ATOM     21  C   UNL     1       3.367   5.591  17.600  0.00  0.00    +0.000 C 
ATOM     22  C   UNL     1       3.401   4.069  17.394  0.00  0.00    +0.000 C 
BRANCH  17  23
ATOM     23  C   UNL     1       3.112   3.393  19.785  0.00  0.00    +0.000 C 
BRANCH  23  25
ATOM     24  C   UNL     1       1.459   2.686  21.524  0.00  0.00    +0.000 C 
ATOM     25  C   UNL     1       1.915   2.455  20.067  0.00  0.00    +0.000 C 
ATOM     26  C   UNL     1       0.703   2.618  19.154  0.00  0.00    +0.000 C 
ENDBRANCH  23  25
ENDBRANCH  17  23
ENDBRANCH  16  21
ENDBRANCH  15  16
ENDBRANCH   1  15
TORSDOF 5
ENDMDL
MODEL 9
REMARK VINA RESULT:      -6.5      2.221      3.610
REMARK  Name = 
REMARK  8 active torsions:
REMARK  status: ('A' for Active; 'I' for Inactive)
REMARK    1  A    between atoms: C_1  and  C_2
REMARK    2  A    between atoms: C_2  and  C_3
REMARK    3  A    between atoms: C_2  and  C_4
REMARK    4  A    between atoms: C_4  and  N_5
REMARK    5  A    between atoms: C_9  and  C_10
REMARK    6  A    between atoms: C_10  and  S_11
REMARK    7  A    between atoms: S_11  and  C_12
REMARK    8  A    between atoms: N_21  and  C_22
REMARK                            x       y       z     vdW  Elec       q    Type
REMARK                         _______ _______ _______ _____ _____    ______ ____
ROOT
ATOM      1  C   UNL     1       1.070   9.488  19.126  0.00  0.00    +0.000 A 
ATOM      2  N   UNL     1       0.652  10.671  18.834  0.00  0.00    +0.000 NA
ATOM      3  C   UNL     1      -0.041  11.333  19.785  0.00  0.00    +0.000 A 
ATOM      4  S   UNL     1      -0.724  12.893  19.510  0.00  0.00    +0.000 S 
ATOM      5  C   UNL     1      -1.573  12.800  20.948  0.00  0.00    +0.000 A 
ATOM      6  C   UNL     1      -1.192  11.747  21.733  0.00  0.00    +0.000 A 
ATOM      7  C   UNL     1      -0.318  10.866  21.053  0.00  0.00    +0.000 A 
ATOM      8  C   UNL     1       0.256   9.599  21.433  0.00  0.00    +0.000 A 
ATOM      9  O   UNL     1       0.137   9.178  22.580  0.00  0.00    +0.000 OA
ATOM     10  N   UNL     1       0.934   8.923  20.401  0.00  0.00    +0.000 N 
ATOM     11  C   UNL     1       1.512   7.640  20.757  0.00  0.00    +0.000 C 
ATOM     12  C   UNL     1      -1.829  11.804  23.060  0.00  0.00    +0.000 C 
ATOM     13  C   UNL     1      -2.947  12.877  22.852  0.00  0.00    +0.000 C 
ATOM     14  C   UNL     1      -2.607  13.669  21.548  0.00  0.00    +0.000 C 
ENDROOT
BRANCH   1  15
ATOM     15  S   UNL     1       1.929   8.582  17.874  0.00  0.00    +0.000 S 
BRANCH  15  16
ATOM     16  C   UNL     1       2.998   7.316  18.702  0.00  0.00    +0.000 C 
BRANCH  16  21
ATOM     17  N   UNL     1       3.180   3.924  18.680  0.00  0.00    +0.000 NA
ATOM     18  C   UNL     1       4.619   3.685  18.845  0.00  0.00    +0.000 C 
ATOM     19  C   UNL     1       5.413   4.979  19.119  0.00  0.00    +0.000 C 
ATOM     20  O   UNL     1       5.143   6.094  18.247  0.00  0.00    +0.000 OA
ATOM     21  C   UNL     1       3.764   6.284  17.826  0.00  0.00    +0.000 C 
ATOM     22  C   UNL     1       3.105   4.919  17.571  0.00  0.00    +0.000 C 
BRANCH  17  23
ATOM     23  C   UNL     1       2.553   4.356  19.944  0.00  0.00    +0.000 C 
BRANCH  23  25
ATOM     24  C   UNL     1       0.725   2.742  19.384  0.00  0.00    +0.000 C 
ATOM     25  C   UNL     1       1.346   3.581  20.522  0.00  0.00    +0.000 C 
ATOM     26  C   UNL     1       1.642   2.652  21.695  0.00  0.00    +0.000 C 
ENDBRANCH  23  25
ENDBRANCH  17  23
ENDBRANCH  16  21
ENDBRANCH  15  16
ENDBRANCH   1  15
TORSDOF 5
ENDMDL
