MODEL 1
REMARK VINA RESULT:      -8.5      0.000      0.000
REMARK  Name = 
REMARK  9 active torsions:
REMARK  status: ('A' for Active; 'I' for Inactive)
REMARK    1  A    between atoms: C_1  and  N_2
REMARK    2  A    between atoms: N_2  and  C_3
REMARK    3  A    between atoms: C_4  and  C_6
REMARK    4  A    between atoms: C_9  and  N_10
REMARK    5  A    between atoms: N_10  and  C_11
REMARK    6  A    between atoms: C_11  and  C_12
REMARK    7  A    between atoms: C_18  and  C_20
REMARK    8  A    between atoms: C_23  and  O_24
REMARK    9  A    between atoms: C_26  and  O_27
REMARK                            x       y       z     vdW  Elec       q    Type
REMARK                         _______ _______ _______ _____ _____    ______ ____
ROOT
ATOM      1  N   UNL     1       3.994   5.395  17.543  0.00  0.00    +0.000 N 
ATOM      2  C   UNL     1       3.799   4.023  17.878  0.00  0.00    +0.000 C 
ATOM      3  O   UNL     1       4.379   3.133  17.249  0.00  0.00    +0.000 OA
ENDROOT
BRANCH   1   7
ATOM      4  C   UNL     1       1.741   8.346  19.526  0.00  0.00    +0.000 A 
ATOM      5  C   UNL     1       2.124   7.175  20.187  0.00  0.00    +0.000 A 
ATOM      6  C   UNL     1       3.043   6.290  19.605  0.00  0.00    +0.000 A 
ATOM      7  C   UNL     1       3.442   6.476  18.278  0.00  0.00    +0.000 A 
ATOM      8  C   UNL     1       3.130   7.669  17.631  0.00  0.00    +0.000 A 
ATOM      9  C   UNL     1       2.306   8.610  18.265  0.00  0.00    +0.000 A 
BRANCH   4  13
ATOM     10  C   UNL     1      -0.729  10.344  21.685  0.00  0.00    +0.000 C 
ATOM     11  N   UNL     1       0.431   9.529  21.354  0.00  0.00    +0.000 N 
ATOM     12  C   UNL     1       1.381   9.288  22.426  0.00  0.00    +0.000 C 
ATOM     13  C   UNL     1       0.638   9.252  19.998  0.00  0.00    +0.000 C 
ATOM     14  O   UNL     1      -0.108   9.717  19.135  0.00  0.00    +0.000 OA
ENDBRANCH   4  13
ENDBRANCH   1   7
BRANCH   2  15
ATOM     15  C   UNL     1       2.940   3.591  19.045  0.00  0.00    +0.000 A 
ATOM     16  C   UNL     1       3.525   3.131  20.234  0.00  0.00    +0.000 A 
ATOM     17  C   UNL     1       2.766   2.778  21.359  0.00  0.00    +0.000 A 
ATOM     18  C   UNL     1       1.392   2.733  21.246  0.00  0.00    +0.000 A 
ATOM     19  C   UNL     1       0.776   3.028  20.036  0.00  0.00    +0.000 A 
ATOM     20  C   UNL     1       1.546   3.471  18.945  0.00  0.00    +0.000 A 
BRANCH  18  21
ATOM     21  O   UNL     1       0.610   2.351  22.297  0.00  0.00    +0.000 OA
ATOM     22  H   UNL     1       0.142   3.140  22.649  0.00  0.00    +0.000 HD
ENDBRANCH  18  21
BRANCH  20  23
ATOM     23  O   UNL     1       0.897   3.774  17.780  0.00  0.00    +0.000 OA
ATOM     24  H   UNL     1       1.317   3.293  17.048  0.00  0.00    +0.000 HD
ENDBRANCH  20  23
ENDBRANCH   2  15
BRANCH   1  25
ATOM     25  C   UNL     1       5.067   5.720  16.597  0.00  0.00    +0.000 C 
BRANCH  25  26
ATOM     26  C   UNL     1       6.326   6.321  17.193  0.00  0.00    +0.000 A 
ATOM     27  C   UNL     1       6.719   7.629  16.870  0.00  0.00    +0.000 A 
ATOM     28  C   UNL     1       7.761   8.253  17.566  0.00  0.00    +0.000 A 
ATOM     29  C   UNL     1       8.434   7.576  18.583  0.00  0.00    +0.000 A 
ATOM     30  C   UNL     1       8.089   6.259  18.876  0.00  0.00    +0.000 A 
ATOM     31  C   UNL     1       7.052   5.632  18.177  0.00  0.00    +0.000 A 
ENDBRANCH  25  26
ENDBRANCH   1  25
TORSDOF 7
ENDMDL
MODEL 2
REMARK VINA RESULT:      -8.4      3.930      9.031
REMARK  Name = 
REMARK  9 active torsions:
REMARK  status: ('A' for Active; 'I' for Inactive)
REMARK    1  A    between atoms: C_1  and  N_2
REMARK    2  A    between atoms: N_2  and  C_3
REMARK    3  A    between atoms: C_4  and  C_6
REMARK    4  A    between atoms: C_9  and  N_10
REMARK    5  A    between atoms: N_10  and  C_11
REMARK    6  A    between atoms: C_11  and  C_12
REMARK    7  A    between atoms: C_18  and  C_20
REMARK    8  A    between atoms: C_23  and  O_24
REMARK    9  A    between atoms: C_26  and  O_27
REMARK                            x       y       z     vdW  Elec       q    Type
REMARK                         _______ _______ _______ _____ _____    ______ ____
ROOT
ATOM      1  N   UNL     1      -0.400  10.934  18.945  0.00  0.00    +0.000 N 
ATOM      2  C   UNL     1      -0.243  12.346  19.074  0.00  0.00    +0.000 C 
ATOM      3  O   UNL     1      -1.228  13.090  19.077  0.00  0.00    +0.000 OA
ENDROOT
BRANCH   1   7
ATOM      4  C   UNL     1       2.298   7.705  19.050  0.00  0.00    +0.000 A 
ATOM      5  C   UNL     1       2.091   8.426  17.869  0.00  0.00    +0.000 A 
ATOM      6  C   UNL     1       1.360   9.622  17.878  0.00  0.00    +0.000 A 
ATOM      7  C   UNL     1       0.671  10.007  19.032  0.00  0.00    +0.000 A 
ATOM      8  C   UNL     1       0.921   9.345  20.230  0.00  0.00    +0.000 A 
ATOM      9  C   UNL     1       1.753   8.216  20.242  0.00  0.00    +0.000 A 
BRANCH   4  13
ATOM     10  C   UNL     1       4.364   4.556  18.296  0.00  0.00    +0.000 C 
ATOM     11  N   UNL     1       3.919   5.939  18.206  0.00  0.00    +0.000 N 
ATOM     12  C   UNL     1       4.717   6.825  17.377  0.00  0.00    +0.000 C 
ATOM     13  C   UNL     1       2.915   6.335  19.097  0.00  0.00    +0.000 C 
ATOM     14  O   UNL     1       2.469   5.553  19.938  0.00  0.00    +0.000 OA
ENDBRANCH   4  13
ENDBRANCH   1   7
BRANCH   2  15
ATOM     15  C   UNL     1       1.107  12.993  19.282  0.00  0.00    +0.000 A 
ATOM     16  C   UNL     1       1.963  13.230  18.196  0.00  0.00    +0.000 A 
ATOM     17  C   UNL     1       3.196  13.881  18.338  0.00  0.00    +0.000 A 
ATOM     18  C   UNL     1       3.657  14.161  19.607  0.00  0.00    +0.000 A 
ATOM     19  C   UNL     1       2.911  13.799  20.722  0.00  0.00    +0.000 A 
ATOM     20  C   UNL     1       1.635  13.232  20.560  0.00  0.00    +0.000 A 
BRANCH  18  21
ATOM     21  O   UNL     1       4.872  14.751  19.803  0.00  0.00    +0.000 OA
ATOM     22  H   UNL     1       4.757  15.728  19.798  0.00  0.00    +0.000 HD
ENDBRANCH  18  21
BRANCH  20  23
ATOM     23  O   UNL     1       0.924  12.913  21.683  0.00  0.00    +0.000 OA
ATOM     24  H   UNL     1       0.997  11.958  21.845  0.00  0.00    +0.000 HD
ENDBRANCH  20  23
ENDBRANCH   2  15
BRANCH   1  25
ATOM     25  C   UNL     1      -1.757  10.387  19.048  0.00  0.00    +0.000 C 
BRANCH  25  26
ATOM     26  C   UNL     1      -2.583  10.399  17.775  0.00  0.00    +0.000 A 
ATOM     27  C   UNL     1      -3.770  11.143  17.696  0.00  0.00    +0.000 A 
ATOM     28  C   UNL     1      -4.423  11.316  16.471  0.00  0.00    +0.000 A 
ATOM     29  C   UNL     1      -3.909  10.738  15.310  0.00  0.00    +0.000 A 
ATOM     30  C   UNL     1      -2.761   9.954  15.384  0.00  0.00    +0.000 A 
ATOM     31  C   UNL     1      -2.110   9.775  16.610  0.00  0.00    +0.000 A 
ENDBRANCH  25  26
ENDBRANCH   1  25
TORSDOF 7
ENDMDL
MODEL 3
REMARK VINA RESULT:      -8.3      0.993      1.515
REMARK  Name = 
REMARK  9 active torsions:
REMARK  status: ('A' for Active; 'I' for Inactive)
REMARK    1  A    between atoms: C_1  and  N_2
REMARK    2  A    between atoms: N_2  and  C_3
REMARK    3  A    between atoms: C_4  and  C_6
REMARK    4  A    between atoms: C_9  and  N_10
REMARK    5  A    between atoms: N_10  and  C_11
REMARK    6  A    between atoms: C_11  and  C_12
REMARK    7  A    between atoms: C_18  and  C_20
REMARK    8  A    between atoms: C_23  and  O_24
REMARK    9  A    between atoms: C_26  and  O_27
REMARK                            x       y       z     vdW  Elec       q    Type
REMARK                         _______ _______ _______ _____ _____    ______ ____
ROOT
ATOM      1  N   UNL     1       3.655   5.675  17.680  0.00  0.00    +0.000 N 
ATOM      2  C   UNL     1       3.543   4.274  17.923  0.00  0.00    +0.000 C 
ATOM      3  O   UNL     1       4.108   3.461  17.187  0.00  0.00    +0.000 OA
ENDROOT
BRANCH   1   7
ATOM      4  C   UNL     1       1.479   8.262  20.187  0.00  0.00    +0.000 A 
ATOM      5  C   UNL     1       2.236   7.216  20.724  0.00  0.00    +0.000 A 
ATOM      6  C   UNL     1       3.123   6.486  19.919  0.00  0.00    +0.000 A 
ATOM      7  C   UNL     1       3.118   6.673  18.534  0.00  0.00    +0.000 A 
ATOM      8  C   UNL     1       2.427   7.753  17.992  0.00  0.00    +0.000 A 
ATOM      9  C   UNL     1       1.634   8.559  18.821  0.00  0.00    +0.000 A 
BRANCH   4  13
ATOM     10  C   UNL     1      -0.689  10.917  21.921  0.00  0.00    +0.000 C 
ATOM     11  N   UNL     1       0.374  10.363  21.095  0.00  0.00    +0.000 N 
ATOM     12  C   UNL     1       1.163  11.313  20.330  0.00  0.00    +0.000 C 
ATOM     13  C   UNL     1       0.386   8.973  20.935  0.00  0.00    +0.000 C 
ATOM     14  O   UNL     1      -0.491   8.269  21.440  0.00  0.00    +0.000 OA
ENDBRANCH   4  13
ENDBRANCH   1   7
BRANCH   2  15
ATOM     15  C   UNL     1       2.797   3.720  19.115  0.00  0.00    +0.000 A 
ATOM     16  C   UNL     1       1.431   3.987  19.294  0.00  0.00    +0.000 A 
ATOM     17  C   UNL     1       0.690   3.443  20.352  0.00  0.00    +0.000 A 
ATOM     18  C   UNL     1       1.355   2.745  21.339  0.00  0.00    +0.000 A 
ATOM     19  C   UNL     1       2.735   2.591  21.284  0.00  0.00    +0.000 A 
ATOM     20  C   UNL     1       3.450   3.062  20.168  0.00  0.00    +0.000 A 
BRANCH  18  21
ATOM     21  O   UNL     1       0.687   2.235  22.415  0.00  0.00    +0.000 OA
ATOM     22  H   UNL     1       1.289   1.633  22.907  0.00  0.00    +0.000 HD
ENDBRANCH  18  21
BRANCH  20  23
ATOM     23  O   UNL     1       4.803   2.868  20.142  0.00  0.00    +0.000 OA
ATOM     24  H   UNL     1       5.155   3.196  19.298  0.00  0.00    +0.000 HD
ENDBRANCH  20  23
ENDBRANCH   2  15
BRANCH   1  25
ATOM     25  C   UNL     1       4.636   6.117  16.683  0.00  0.00    +0.000 C 
BRANCH  25  26
ATOM     26  C   UNL     1       5.994   6.533  17.219  0.00  0.00    +0.000 A 
ATOM     27  C   UNL     1       6.512   7.809  16.949  0.00  0.00    +0.000 A 
ATOM     28  C   UNL     1       7.663   8.265  17.601  0.00  0.00    +0.000 A 
ATOM     29  C   UNL     1       8.321   7.448  18.521  0.00  0.00    +0.000 A 
ATOM     30  C   UNL     1       7.848   6.160  18.758  0.00  0.00    +0.000 A 
ATOM     31  C   UNL     1       6.700   5.701  18.102  0.00  0.00    +0.000 A 
ENDBRANCH  25  26
ENDBRANCH   1  25
TORSDOF 7
ENDMDL
MODEL 4
REMARK VINA RESULT:      -8.2      3.943      8.921
REMARK  Name = 
REMARK  9 active torsions:
REMARK  status: ('A' for Active; 'I' for Inactive)
REMARK    1  A    between atoms: C_1  and  N_2
REMARK    2  A    between atoms: N_2  and  C_3
REMARK    3  A    between atoms: C_4  and  C_6
REMARK    4  A    between atoms: C_9  and  N_10
REMARK    5  A    between atoms: N_10  and  C_11
REMARK    6  A    between atoms: C_11  and  C_12
REMARK    7  A    between atoms: C_18  and  C_20
REMARK    8  A    between atoms: C_23  and  O_24
REMARK    9  A    between atoms: C_26  and  O_27
REMARK                            x       y       z     vdW  Elec       q    Type
REMARK                         _______ _______ _______ _____ _____    ______ ____
ROOT
ATOM      1  N   UNL     1      -0.381  10.822  18.921  0.00  0.00    +0.000 N 
ATOM      2  C   UNL     1      -0.262  12.235  19.072  0.00  0.00    +0.000 C 
ATOM      3  O   UNL     1      -1.265  12.954  19.078  0.00  0.00    +0.000 OA
ENDROOT
BRANCH   1   7
ATOM      4  C   UNL     1       2.395   7.660  19.009  0.00  0.00    +0.000 A 
ATOM      5  C   UNL     1       2.168   8.378  17.831  0.00  0.00    +0.000 A 
ATOM      6  C   UNL     1       1.407   9.557  17.845  0.00  0.00    +0.000 A 
ATOM      7  C   UNL     1       0.713   9.921  19.002  0.00  0.00    +0.000 A 
ATOM      8  C   UNL     1       0.983   9.262  20.198  0.00  0.00    +0.000 A 
ATOM      9  C   UNL     1       1.841   8.154  20.204  0.00  0.00    +0.000 A 
BRANCH   4  13
ATOM     10  C   UNL     1       3.336   4.038  19.876  0.00  0.00    +0.000 C 
ATOM     11  N   UNL     1       2.559   5.269  19.855  0.00  0.00    +0.000 N 
ATOM     12  C   UNL     1       1.245   5.217  20.470  0.00  0.00    +0.000 C 
ATOM     13  C   UNL     1       3.046   6.305  19.051  0.00  0.00    +0.000 C 
ATOM     14  O   UNL     1       4.061   6.155  18.368  0.00  0.00    +0.000 OA
ENDBRANCH   4  13
ENDBRANCH   1   7
BRANCH   2  15
ATOM     15  C   UNL     1       1.070  12.913  19.301  0.00  0.00    +0.000 A 
ATOM     16  C   UNL     1       1.937  13.171  18.228  0.00  0.00    +0.000 A 
ATOM     17  C   UNL     1       3.152  13.850  18.389  0.00  0.00    +0.000 A 
ATOM     18  C   UNL     1       3.588  14.140  19.665  0.00  0.00    +0.000 A 
ATOM     19  C   UNL     1       2.834  13.759  20.769  0.00  0.00    +0.000 A 
ATOM     20  C   UNL     1       1.573  13.163  20.586  0.00  0.00    +0.000 A 
BRANCH  18  21
ATOM     21  O   UNL     1       4.786  14.758  19.880  0.00  0.00    +0.000 OA
ATOM     22  H   UNL     1       4.973  14.764  20.845  0.00  0.00    +0.000 HD
ENDBRANCH  18  21
BRANCH  20  23
ATOM     23  O   UNL     1       0.853  12.826  21.699  0.00  0.00    +0.000 OA
ATOM     24  H   UNL     1       1.349  12.166  22.210  0.00  0.00    +0.000 HD
ENDBRANCH  20  23
ENDBRANCH   2  15
BRANCH   1  25
ATOM     25  C   UNL     1      -1.724  10.239  19.004  0.00  0.00    +0.000 C 
BRANCH  25  26
ATOM     26  C   UNL     1      -2.563  10.305  17.741  0.00  0.00    +0.000 A 
ATOM     27  C   UNL     1      -3.767  11.026  17.715  0.00  0.00    +0.000 A 
ATOM     28  C   UNL     1      -4.436  11.254  16.508  0.00  0.00    +0.000 A 
ATOM     29  C   UNL     1      -3.921  10.753  15.312  0.00  0.00    +0.000 A 
ATOM     30  C   UNL     1      -2.756   9.991  15.331  0.00  0.00    +0.000 A 
ATOM     31  C   UNL     1      -2.089   9.757  16.538  0.00  0.00    +0.000 A 
ENDBRANCH  25  26
ENDBRANCH   1  25
TORSDOF 7
ENDMDL
MODEL 5
REMARK VINA RESULT:      -8.1      2.117      5.531
REMARK  Name = 
REMARK  9 active torsions:
REMARK  status: ('A' for Active; 'I' for Inactive)
REMARK    1  A    between atoms: C_1  and  N_2
REMARK    2  A    between atoms: N_2  and  C_3
REMARK    3  A    between atoms: C_4  and  C_6
REMARK    4  A    between atoms: C_9  and  N_10
REMARK    5  A    between atoms: N_10  and  C_11
REMARK    6  A    between atoms: C_11  and  C_12
REMARK    7  A    between atoms: C_18  and  C_20
REMARK    8  A    between atoms: C_23  and  O_24
REMARK    9  A    between atoms: C_26  and  O_27
REMARK                            x       y       z     vdW  Elec       q    Type
REMARK                         _______ _______ _______ _____ _____    ______ ____
ROOT
ATOM      1  N   UNL     1       4.483   5.342  17.582  0.00  0.00    +0.000 N 
ATOM      2  C   UNL     1       5.898   5.264  17.420  0.00  0.00    +0.000 C 
ATOM      3  O   UNL     1       6.414   4.298  16.850  0.00  0.00    +0.000 OA
ENDROOT
BRANCH   1   7
ATOM      4  C   UNL     1       1.913   8.382  18.948  0.00  0.00    +0.000 A 
ATOM      5  C   UNL     1       2.190   7.267  19.747  0.00  0.00    +0.000 A 
ATOM      6  C   UNL     1       3.199   6.362  19.389  0.00  0.00    +0.000 A 
ATOM      7  C   UNL     1       3.810   6.461  18.136  0.00  0.00    +0.000 A 
ATOM      8  C   UNL     1       3.600   7.599  17.362  0.00  0.00    +0.000 A 
ATOM      9  C   UNL     1       2.676   8.566  17.781  0.00  0.00    +0.000 A 
BRANCH   4  13
ATOM     10  C   UNL     1      -0.869  10.511  20.523  0.00  0.00    +0.000 C 
ATOM     11  N   UNL     1       0.338   9.702  20.444  0.00  0.00    +0.000 N 
ATOM     12  C   UNL     1       1.130   9.598  21.657  0.00  0.00    +0.000 C 
ATOM     13  C   UNL     1       0.740   9.297  19.166  0.00  0.00    +0.000 C 
ATOM     14  O   UNL     1       0.118   9.651  18.163  0.00  0.00    +0.000 OA
ENDBRANCH   4  13
ENDBRANCH   1   7
BRANCH   2  15
ATOM     15  C   UNL     1       6.824   6.372  17.866  0.00  0.00    +0.000 A 
ATOM     16  C   UNL     1       6.946   7.551  17.115  0.00  0.00    +0.000 A 
ATOM     17  C   UNL     1       7.747   8.626  17.525  0.00  0.00    +0.000 A 
ATOM     18  C   UNL     1       8.564   8.464  18.624  0.00  0.00    +0.000 A 
ATOM     19  C   UNL     1       8.593   7.254  19.306  0.00  0.00    +0.000 A 
ATOM     20  C   UNL     1       7.715   6.218  18.939  0.00  0.00    +0.000 A 
BRANCH  18  21
ATOM     21  O   UNL     1       9.398   9.462  19.037  0.00  0.00    +0.000 OA
ATOM     22  H   UNL     1       8.912  10.316  19.006  0.00  0.00    +0.000 HD
ENDBRANCH  18  21
BRANCH  20  23
ATOM     23  O   UNL     1       7.760   5.053  19.652  0.00  0.00    +0.000 OA
ATOM     24  H   UNL     1       7.613   4.305  19.049  0.00  0.00    +0.000 HD
ENDBRANCH  20  23
ENDBRANCH   2  15
BRANCH   1  25
ATOM     25  C   UNL     1       3.660   4.368  16.858  0.00  0.00    +0.000 C 
BRANCH  25  26
ATOM     26  C   UNL     1       2.801   3.451  17.709  0.00  0.00    +0.000 A 
ATOM     27  C   UNL     1       3.387   2.470  18.524  0.00  0.00    +0.000 A 
ATOM     28  C   UNL     1       2.617   1.763  19.454  0.00  0.00    +0.000 A 
ATOM     29  C   UNL     1       1.250   2.014  19.574  0.00  0.00    +0.000 A 
ATOM     30  C   UNL     1       0.647   2.946  18.734  0.00  0.00    +0.000 A 
ATOM     31  C   UNL     1       1.414   3.650  17.799  0.00  0.00    +0.000 A 
ENDBRANCH  25  26
ENDBRANCH   1  25
TORSDOF 7
ENDMDL
MODEL 6
REMARK VINA RESULT:      -8.0      3.886      8.986
REMARK  Name = 
REMARK  9 active torsions:
REMARK  status: ('A' for Active; 'I' for Inactive)
REMARK    1  A    between atoms: C_1  and  N_2
REMARK    2  A    between atoms: N_2  and  C_3
REMARK    3  A    between atoms: C_4  and  C_6
REMARK    4  A    between atoms: C_9  and  N_10
REMARK    5  A    between atoms: N_10  and  C_11
REMARK    6  A    between atoms: C_11  and  C_12
REMARK    7  A    between atoms: C_18  and  C_20
REMARK    8  A    between atoms: C_23  and  O_24
REMARK    9  A    between atoms: C_26  and  O_27
REMARK                            x       y       z     vdW  Elec       q    Type
REMARK                         _______ _______ _______ _____ _____    ______ ____
ROOT
ATOM      1  N   UNL     1      -0.353  11.043  19.187  0.00  0.00    +0.000 N 
ATOM      2  C   UNL     1      -0.160  12.438  19.413  0.00  0.00    +0.000 C 
ATOM      3  O   UNL     1      -1.124  13.206  19.468  0.00  0.00    +0.000 OA
ENDROOT
BRANCH   1   7
ATOM      4  C   UNL     1       2.253   7.740  19.091  0.00  0.00    +0.000 A 
ATOM      5  C   UNL     1       2.038   8.514  17.946  0.00  0.00    +0.000 A 
ATOM      6  C   UNL     1       1.342   9.729  18.023  0.00  0.00    +0.000 A 
ATOM      7  C   UNL     1       0.692  10.084  19.209  0.00  0.00    +0.000 A 
ATOM      8  C   UNL     1       0.953   9.366  20.372  0.00  0.00    +0.000 A 
ATOM      9  C   UNL     1       1.752   8.215  20.316  0.00  0.00    +0.000 A 
BRANCH   4  13
ATOM     10  C   UNL     1       4.201   4.565  18.150  0.00  0.00    +0.000 C 
ATOM     11  N   UNL     1       3.793   5.963  18.126  0.00  0.00    +0.000 N 
ATOM     12  C   UNL     1       4.586   6.856  17.301  0.00  0.00    +0.000 C 
ATOM     13  C   UNL     1       2.832   6.352  19.066  0.00  0.00    +0.000 C 
ATOM     14  O   UNL     1       2.394   5.553  19.895  0.00  0.00    +0.000 OA
ENDBRANCH   4  13
ENDBRANCH   1   7
BRANCH   2  15
ATOM     15  C   UNL     1       1.207  13.033  19.663  0.00  0.00    +0.000 A 
ATOM     16  C   UNL     1       1.582  13.454  20.948  0.00  0.00    +0.000 A 
ATOM     17  C   UNL     1       2.860  13.955  21.232  0.00  0.00    +0.000 A 
ATOM     18  C   UNL     1       3.730  14.188  20.188  0.00  0.00    +0.000 A 
ATOM     19  C   UNL     1       3.341  13.933  18.878  0.00  0.00    +0.000 A 
ATOM     20  C   UNL     1       2.091  13.343  18.619  0.00  0.00    +0.000 A 
BRANCH  18  21
ATOM     21  O   UNL     1       4.969  14.718  20.406  0.00  0.00    +0.000 OA
ATOM     22  H   UNL     1       4.893  15.444  21.065  0.00  0.00    +0.000 HD
ENDBRANCH  18  21
BRANCH  20  23
ATOM     23  O   UNL     1       1.758  13.087  17.317  0.00  0.00    +0.000 OA
ATOM     24  H   UNL     1       1.161  13.784  16.999  0.00  0.00    +0.000 HD
ENDBRANCH  20  23
ENDBRANCH   2  15
BRANCH   1  25
ATOM     25  C   UNL     1      -1.724  10.526  19.254  0.00  0.00    +0.000 C 
BRANCH  25  26
ATOM     26  C   UNL     1      -2.499  10.511  17.949  0.00  0.00    +0.000 A 
ATOM     27  C   UNL     1      -3.641  11.309  17.782  0.00  0.00    +0.000 A 
ATOM     28  C   UNL     1      -4.237  11.448  16.524  0.00  0.00    +0.000 A 
ATOM     29  C   UNL     1      -3.710  10.782  15.417  0.00  0.00    +0.000 A 
ATOM     30  C   UNL     1      -2.610   9.945  15.580  0.00  0.00    +0.000 A 
ATOM     31  C   UNL     1      -2.016   9.800  16.839  0.00  0.00    +0.000 A 
ENDBRANCH  25  26
ENDBRANCH   1  25
TORSDOF 7
ENDMDL
MODEL 7
REMARK VINA RESULT:      -7.8      3.949      8.886
REMARK  Name = 
REMARK  9 active torsions:
REMARK  status: ('A' for Active; 'I' for Inactive)
REMARK    1  A    between atoms: C_1  and  N_2
REMARK    2  A    between atoms: N_2  and  C_3
REMARK    3  A    between atoms: C_4  and  C_6
REMARK    4  A    between atoms: C_9  and  N_10
REMARK    5  A    between atoms: N_10  and  C_11
REMARK    6  A    between atoms: C_11  and  C_12
REMARK    7  A    between atoms: C_18  and  C_20
REMARK    8  A    between atoms: C_23  and  O_24
REMARK    9  A    between atoms: C_26  and  O_27
REMARK                            x       y       z     vdW  Elec       q    Type
REMARK                         _______ _______ _______ _____ _____    ______ ____
ROOT
ATOM      1  N   UNL     1      -0.275  10.887  18.997  0.00  0.00    +0.000 N 
ATOM      2  C   UNL     1      -0.132  12.285  19.239  0.00  0.00    +0.000 C 
ATOM      3  O   UNL     1      -1.116  13.030  19.223  0.00  0.00    +0.000 OA
ENDROOT
BRANCH   1   7
ATOM      4  C   UNL     1       2.406   7.644  19.100  0.00  0.00    +0.000 A 
ATOM      5  C   UNL     1       2.250   8.406  17.937  0.00  0.00    +0.000 A 
ATOM      6  C   UNL     1       1.523   9.605  17.958  0.00  0.00    +0.000 A 
ATOM      7  C   UNL     1       0.788   9.953  19.095  0.00  0.00    +0.000 A 
ATOM      8  C   UNL     1       0.988   9.248  20.279  0.00  0.00    +0.000 A 
ATOM      9  C   UNL     1       1.815   8.116  20.285  0.00  0.00    +0.000 A 
BRANCH   4  13
ATOM     10  C   UNL     1       3.201   3.967  19.877  0.00  0.00    +0.000 C 
ATOM     11  N   UNL     1       2.459   5.220  19.861  0.00  0.00    +0.000 N 
ATOM     12  C   UNL     1       1.113   5.184  20.404  0.00  0.00    +0.000 C 
ATOM     13  C   UNL     1       3.017   6.271  19.124  0.00  0.00    +0.000 C 
ATOM     14  O   UNL     1       4.063   6.116  18.491  0.00  0.00    +0.000 OA
ENDBRANCH   4  13
ENDBRANCH   1   7
BRANCH   2  15
ATOM     15  C   UNL     1       1.198  12.911  19.592  0.00  0.00    +0.000 A 
ATOM     16  C   UNL     1       1.470  13.327  20.904  0.00  0.00    +0.000 A 
ATOM     17  C   UNL     1       2.711  13.856  21.283  0.00  0.00    +0.000 A 
ATOM     18  C   UNL     1       3.647  14.123  20.306  0.00  0.00    +0.000 A 
ATOM     19  C   UNL     1       3.359  13.873  18.970  0.00  0.00    +0.000 A 
ATOM     20  C   UNL     1       2.146  13.255  18.616  0.00  0.00    +0.000 A 
BRANCH  18  21
ATOM     21  O   UNL     1       4.853  14.681  20.617  0.00  0.00    +0.000 OA
ATOM     22  H   UNL     1       5.310  14.108  21.272  0.00  0.00    +0.000 HD
ENDBRANCH  18  21
BRANCH  20  23
ATOM     23  O   UNL     1       1.913  13.005  17.292  0.00  0.00    +0.000 OA
ATOM     24  H   UNL     1       2.336  13.698  16.759  0.00  0.00    +0.000 HD
ENDBRANCH  20  23
ENDBRANCH   2  15
BRANCH   1  25
ATOM     25  C   UNL     1      -1.635  10.338  18.960  0.00  0.00    +0.000 C 
BRANCH  25  26
ATOM     26  C   UNL     1      -2.390  10.504  17.654  0.00  0.00    +0.000 A 
ATOM     27  C   UNL     1      -1.990   9.813  16.500  0.00  0.00    +0.000 A 
ATOM     28  C   UNL     1      -2.795   9.809  15.356  0.00  0.00    +0.000 A 
ATOM     29  C   UNL     1      -4.004  10.506  15.343  0.00  0.00    +0.000 A 
ATOM     30  C   UNL     1      -4.386  11.239  16.463  0.00  0.00    +0.000 A 
ATOM     31  C   UNL     1      -3.579  11.249  17.605  0.00  0.00    +0.000 A 
ENDBRANCH  25  26
ENDBRANCH   1  25
TORSDOF 7
ENDMDL
MODEL 8
REMARK VINA RESULT:      -7.7      1.070      1.790
REMARK  Name = 
REMARK  9 active torsions:
REMARK  status: ('A' for Active; 'I' for Inactive)
REMARK    1  A    between atoms: C_1  and  N_2
REMARK    2  A    between atoms: N_2  and  C_3
REMARK    3  A    between atoms: C_4  and  C_6
REMARK    4  A    between atoms: C_9  and  N_10
REMARK    5  A    between atoms: N_10  and  C_11
REMARK    6  A    between atoms: C_11  and  C_12
REMARK    7  A    between atoms: C_18  and  C_20
REMARK    8  A    between atoms: C_23  and  O_24
REMARK    9  A    between atoms: C_26  and  O_27
REMARK                            x       y       z     vdW  Elec       q    Type
REMARK                         _______ _______ _______ _____ _____    ______ ____
ROOT
ATOM      1  N   UNL     1       3.545   5.810  17.718  0.00  0.00    +0.000 N 
ATOM      2  C   UNL     1       3.692   4.454  18.135  0.00  0.00    +0.000 C 
ATOM      3  O   UNL     1       4.551   3.729  17.626  0.00  0.00    +0.000 OA
ENDROOT
BRANCH   1   7
ATOM      4  C   UNL     1       1.464   8.911  19.660  0.00  0.00    +0.000 A 
ATOM      5  C   UNL     1       1.688   8.955  18.280  0.00  0.00    +0.000 A 
ATOM      6  C   UNL     1       2.191   7.837  17.599  0.00  0.00    +0.000 A 
ATOM      7  C   UNL     1       2.651   6.732  18.321  0.00  0.00    +0.000 A 
ATOM      8  C   UNL     1       2.372   6.641  19.682  0.00  0.00    +0.000 A 
ATOM      9  C   UNL     1       1.757   7.716  20.340  0.00  0.00    +0.000 A 
BRANCH   4  13
ATOM     10  C   UNL     1       0.024  12.258  20.877  0.00  0.00    +0.000 C 
ATOM     11  N   UNL     1       0.223  11.100  20.017  0.00  0.00    +0.000 N 
ATOM     12  C   UNL     1      -0.675  10.972  18.883  0.00  0.00    +0.000 C 
ATOM     13  C   UNL     1       1.095  10.112  20.486  0.00  0.00    +0.000 C 
ATOM     14  O   UNL     1       1.628  10.209  21.593  0.00  0.00    +0.000 OA
ENDBRANCH   4  13
ENDBRANCH   1   7
BRANCH   2  15
ATOM     15  C   UNL     1       2.866   3.860  19.253  0.00  0.00    +0.000 A 
ATOM     16  C   UNL     1       3.445   3.573  20.498  0.00  0.00    +0.000 A 
ATOM     17  C   UNL     1       2.701   3.077  21.578  0.00  0.00    +0.000 A 
ATOM     18  C   UNL     1       1.387   2.713  21.368  0.00  0.00    +0.000 A 
ATOM     19  C   UNL     1       0.817   2.832  20.106  0.00  0.00    +0.000 A 
ATOM     20  C   UNL     1       1.548   3.418  19.058  0.00  0.00    +0.000 A 
BRANCH  18  21
ATOM     21  O   UNL     1       0.632   2.182  22.374  0.00  0.00    +0.000 OA
ATOM     22  H   UNL     1       0.182   2.912  22.854  0.00  0.00    +0.000 HD
ENDBRANCH  18  21
BRANCH  20  23
ATOM     23  O   UNL     1       0.941   3.539  17.838  0.00  0.00    +0.000 OA
ATOM     24  H   UNL     1       0.907   4.478  17.592  0.00  0.00    +0.000 HD
ENDBRANCH  20  23
ENDBRANCH   2  15
BRANCH   1  25
ATOM     25  C   UNL     1       4.582   6.371  16.846  0.00  0.00    +0.000 C 
BRANCH  25  26
ATOM     26  C   UNL     1       5.862   6.817  17.529  0.00  0.00    +0.000 A 
ATOM     27  C   UNL     1       6.556   5.953  18.389  0.00  0.00    +0.000 A 
ATOM     28  C   UNL     1       7.832   6.286  18.859  0.00  0.00    +0.000 A 
ATOM     29  C   UNL     1       8.426   7.493  18.488  0.00  0.00    +0.000 A 
ATOM     30  C   UNL     1       7.725   8.383  17.678  0.00  0.00    +0.000 A 
ATOM     31  C   UNL     1       6.448   8.054  17.213  0.00  0.00    +0.000 A 
ENDBRANCH  25  26
ENDBRANCH   1  25
TORSDOF 7
ENDMDL
MODEL 9
REMARK VINA RESULT:      -7.7      2.119      5.626
REMARK  Name = 
REMARK  9 active torsions:
REMARK  status: ('A' for Active; 'I' for Inactive)
REMARK    1  A    between atoms: C_1  and  N_2
REMARK    2  A    between atoms: N_2  and  C_3
REMARK    3  A    between atoms: C_4  and  C_6
REMARK    4  A    between atoms: C_9  and  N_10
REMARK    5  A    between atoms: N_10  and  C_11
REMARK    6  A    between atoms: C_11  and  C_12
REMARK    7  A    between atoms: C_18  and  C_20
REMARK    8  A    between atoms: C_23  and  O_24
REMARK    9  A    between atoms: C_26  and  O_27
REMARK                            x       y       z     vdW  Elec       q    Type
REMARK                         _______ _______ _______ _____ _____    ______ ____
ROOT
ATOM      1  N   UNL     1       4.521   5.265  17.505  0.00  0.00    +0.000 N 
ATOM      2  C   UNL     1       5.910   5.310  17.185  0.00  0.00    +0.000 C 
ATOM      3  O   UNL     1       6.404   4.485  16.412  0.00  0.00    +0.000 OA
ENDROOT
BRANCH   1   7
ATOM      4  C   UNL     1       1.977   7.818  19.679  0.00  0.00    +0.000 A 
ATOM      5  C   UNL     1       2.516   6.672  20.272  0.00  0.00    +0.000 A 
ATOM      6  C   UNL     1       3.521   5.936  19.628  0.00  0.00    +0.000 A 
ATOM      7  C   UNL     1       3.860   6.234  18.305  0.00  0.00    +0.000 A 
ATOM      8  C   UNL     1       3.389   7.409  17.726  0.00  0.00    +0.000 A 
ATOM      9  C   UNL     1       2.474   8.210  18.423  0.00  0.00    +0.000 A 
BRANCH   4  13
ATOM     10  C   UNL     1      -0.786  10.410  20.315  0.00  0.00    +0.000 C 
ATOM     11  N   UNL     1       0.318   9.743  19.639  0.00  0.00    +0.000 N 
ATOM     12  C   UNL     1       0.663  10.236  18.317  0.00  0.00    +0.000 C 
ATOM     13  C   UNL     1       0.785   8.558  20.219  0.00  0.00    +0.000 C 
ATOM     14  O   UNL     1       0.251   8.091  21.226  0.00  0.00    +0.000 OA
ENDBRANCH   4  13
ENDBRANCH   1   7
BRANCH   2  15
ATOM     15  C   UNL     1       6.825   6.393  17.711  0.00  0.00    +0.000 A 
ATOM     16  C   UNL     1       6.956   7.613  17.030  0.00  0.00    +0.000 A 
ATOM     17  C   UNL     1       7.747   8.664  17.516  0.00  0.00    +0.000 A 
ATOM     18  C   UNL     1       8.545   8.440  18.618  0.00  0.00    +0.000 A 
ATOM     19  C   UNL     1       8.566   7.193  19.230  0.00  0.00    +0.000 A 
ATOM     20  C   UNL     1       7.698   6.179  18.788  0.00  0.00    +0.000 A 
BRANCH  18  21
ATOM     21  O   UNL     1       9.369   9.415  19.102  0.00  0.00    +0.000 OA
ATOM     22  H   UNL     1       9.308   9.425  20.084  0.00  0.00    +0.000 HD
ENDBRANCH  18  21
BRANCH  20  23
ATOM     23  O   UNL     1       7.733   4.974  19.434  0.00  0.00    +0.000 OA
ATOM     24  H   UNL     1       7.117   4.362  18.998  0.00  0.00    +0.000 HD
ENDBRANCH  20  23
ENDBRANCH   2  15
BRANCH   1  25
ATOM     25  C   UNL     1       3.669   4.367  16.719  0.00  0.00    +0.000 C 
BRANCH  25  26
ATOM     26  C   UNL     1       2.742   3.460  17.508  0.00  0.00    +0.000 A 
ATOM     27  C   UNL     1       3.221   2.281  18.097  0.00  0.00    +0.000 A 
ATOM     28  C   UNL     1       2.423   1.552  18.986  0.00  0.00    +0.000 A 
ATOM     29  C   UNL     1       1.131   1.983  19.287  0.00  0.00    +0.000 A 
ATOM     30  C   UNL     1       0.624   3.122  18.668  0.00  0.00    +0.000 A 
ATOM     31  C   UNL     1       1.420   3.849  17.775  0.00  0.00    +0.000 A 
ENDBRANCH  25  26
ENDBRANCH   1  25
TORSDOF 7
ENDMDL
