MODEL 1
REMARK VINA RESULT:      -7.7      0.000      0.000
REMARK  Name = 
REMARK  6 active torsions:
REMARK  status: ('A' for Active; 'I' for Inactive)
REMARK    1  A    between atoms: C_1  and  C_2
REMARK    2  A    between atoms: C_2  and  S_3
REMARK    3  A    between atoms: C_2  and  C_15
REMARK    4  A    between atoms: S_3  and  C_4
REMARK    5  A    between atoms: C_7  and  C_8
REMARK    6  A    between atoms: N_17  and  C_18
REMARK                            x       y       z     vdW  Elec       q    Type
REMARK                         _______ _______ _______ _____ _____    ______ ____
ROOT
ATOM      1  S   UNL     1       5.695   7.410  17.140  0.00  0.00    +0.000 S 
ENDROOT
BRANCH   1   2
ATOM      2  C   UNL     1       4.211   6.892  17.878  0.00  0.00    +0.000 A 
ATOM      3  N   UNL     1       3.099   7.598  17.817  0.00  0.00    +0.000 NA
ATOM      4  N   UNL     1       2.141   6.882  18.502  0.00  0.00    +0.000 NA
ATOM      5  C   UNL     1       2.732   5.792  18.946  0.00  0.00    +0.000 A 
ATOM      6  O   UNL     1       4.054   5.734  18.593  0.00  0.00    +0.000 OA
BRANCH   5   7
ATOM      7  C   UNL     1       2.187   4.705  19.734  0.00  0.00    +0.000 A 
ATOM      8  C   UNL     1       1.233   3.800  19.255  0.00  0.00    +0.000 A 
ATOM      9  C   UNL     1       0.779   2.768  20.082  0.00  0.00    +0.000 A 
ATOM     10  C   UNL     1       1.292   2.675  21.366  0.00  0.00    +0.000 A 
ATOM     11  N   UNL     1       2.202   3.532  21.870  0.00  0.00    +0.000 NA
ATOM     12  C   UNL     1       2.624   4.523  21.045  0.00  0.00    +0.000 A 
ENDBRANCH   5   7
ENDBRANCH   1   2
BRANCH   1  14
ATOM     13  C   UNL     1       8.119   6.913  18.419  0.00  0.00    +0.000 C 
ATOM     14  C   UNL     1       6.907   6.220  17.802  0.00  0.00    +0.000 C 
BRANCH  14  15
ATOM     15  C   UNL     1       7.304   5.194  16.740  0.00  0.00    +0.000 C 
ATOM     16  O   UNL     1       8.001   4.213  16.986  0.00  0.00    +0.000 OA
ATOM     17  N   UNL     1       6.766   5.428  15.488  0.00  0.00    +0.000 N 
ATOM     18  H   UNL     1       6.410   6.357  15.292  0.00  0.00    +0.000 HD
BRANCH  17  19
ATOM     19  C   UNL     1       7.068   4.556  14.373  0.00  0.00    +0.000 C 
ATOM     20  C   UNL     1       5.823   3.901  13.791  0.00  0.00    +0.000 C 
ATOM     21  C   UNL     1       6.275   3.434  12.417  0.00  0.00    +0.000 C 
ATOM     22  C   UNL     1       7.343   4.431  11.967  0.00  0.00    +0.000 C 
ATOM     23  C   UNL     1       7.671   5.298  13.183  0.00  0.00    +0.000 C 
ENDBRANCH  17  19
ENDBRANCH  14  15
ENDBRANCH   1  14
TORSDOF 5
ENDMDL
MODEL 2
REMARK VINA RESULT:      -7.6      0.989      1.245
REMARK  Name = 
REMARK  6 active torsions:
REMARK  status: ('A' for Active; 'I' for Inactive)
REMARK    1  A    between atoms: C_1  and  C_2
REMARK    2  A    between atoms: C_2  and  S_3
REMARK    3  A    between atoms: C_2  and  C_15
REMARK    4  A    between atoms: S_3  and  C_4
REMARK    5  A    between atoms: C_7  and  C_8
REMARK    6  A    between atoms: N_17  and  C_18
REMARK                            x       y       z     vdW  Elec       q    Type
REMARK                         _______ _______ _______ _____ _____    ______ ____
ROOT
ATOM      1  S   UNL     1       5.707   7.564  16.991  0.00  0.00    +0.000 S 
ENDROOT
BRANCH   1   2
ATOM      2  C   UNL     1       4.169   7.034  17.596  0.00  0.00    +0.000 A 
ATOM      3  N   UNL     1       3.134   7.841  17.721  0.00  0.00    +0.000 NA
ATOM      4  N   UNL     1       2.099   7.079  18.221  0.00  0.00    +0.000 NA
ATOM      5  C   UNL     1       2.572   5.861  18.379  0.00  0.00    +0.000 A 
ATOM      6  O   UNL     1       3.887   5.758  18.009  0.00  0.00    +0.000 OA
BRANCH   5   7
ATOM      7  C   UNL     1       1.910   4.674  18.885  0.00  0.00    +0.000 A 
ATOM      8  C   UNL     1       1.613   4.468  20.237  0.00  0.00    +0.000 A 
ATOM      9  C   UNL     1       0.952   3.300  20.631  0.00  0.00    +0.000 A 
ATOM     10  C   UNL     1       0.612   2.373  19.660  0.00  0.00    +0.000 A 
ATOM     11  N   UNL     1       0.890   2.528  18.350  0.00  0.00    +0.000 NA
ATOM     12  C   UNL     1       1.531   3.670  17.997  0.00  0.00    +0.000 A 
ENDBRANCH   5   7
ENDBRANCH   1   2
BRANCH   1  14
ATOM     13  C   UNL     1       8.079   7.014  18.343  0.00  0.00    +0.000 C 
ATOM     14  C   UNL     1       6.860   6.349  17.710  0.00  0.00    +0.000 C 
BRANCH  14  15
ATOM     15  C   UNL     1       7.248   5.287  16.681  0.00  0.00    +0.000 C 
ATOM     16  O   UNL     1       8.021   4.365  16.930  0.00  0.00    +0.000 OA
ATOM     17  N   UNL     1       6.613   5.414  15.459  0.00  0.00    +0.000 N 
ATOM     18  H   UNL     1       6.186   6.307  15.238  0.00  0.00    +0.000 HD
BRANCH  17  19
ATOM     19  C   UNL     1       6.893   4.496  14.375  0.00  0.00    +0.000 C 
ATOM     20  C   UNL     1       5.627   3.931  13.747  0.00  0.00    +0.000 C 
ATOM     21  C   UNL     1       6.102   3.399  12.404  0.00  0.00    +0.000 C 
ATOM     22  C   UNL     1       7.266   4.297  11.987  0.00  0.00    +0.000 C 
ATOM     23  C   UNL     1       7.608   5.161  13.202  0.00  0.00    +0.000 C 
ENDBRANCH  17  19
ENDBRANCH  14  15
ENDBRANCH   1  14
TORSDOF 5
ENDMDL
MODEL 3
REMARK VINA RESULT:      -7.4      1.253      1.267
REMARK  Name = 
REMARK  6 active torsions:
REMARK  status: ('A' for Active; 'I' for Inactive)
REMARK    1  A    between atoms: C_1  and  C_2
REMARK    2  A    between atoms: C_2  and  S_3
REMARK    3  A    between atoms: C_2  and  C_15
REMARK    4  A    between atoms: S_3  and  C_4
REMARK    5  A    between atoms: C_7  and  C_8
REMARK    6  A    between atoms: N_17  and  C_18
REMARK                            x       y       z     vdW  Elec       q    Type
REMARK                         _______ _______ _______ _____ _____    ______ ____
ROOT
ATOM      1  S   UNL     1       5.329   7.247  17.237  0.00  0.00    +0.000 S 
ENDROOT
BRANCH   1   2
ATOM      2  C   UNL     1       4.411   5.821  17.608  0.00  0.00    +0.000 A 
ATOM      3  N   UNL     1       4.116   4.906  16.706  0.00  0.00    +0.000 NA
ATOM      4  N   UNL     1       3.390   3.931  17.357  0.00  0.00    +0.000 NA
ATOM      5  C   UNL     1       3.279   4.320  18.610  0.00  0.00    +0.000 A 
ATOM      6  O   UNL     1       3.898   5.519  18.842  0.00  0.00    +0.000 OA
BRANCH   5   7
ATOM      7  C   UNL     1       2.604   3.673  19.718  0.00  0.00    +0.000 A 
ATOM      8  C   UNL     1       1.212   3.594  19.839  0.00  0.00    +0.000 A 
ATOM      9  C   UNL     1       0.649   2.930  20.933  0.00  0.00    +0.000 A 
ATOM     10  C   UNL     1       1.495   2.369  21.876  0.00  0.00    +0.000 A 
ATOM     11  N   UNL     1       2.841   2.433  21.802  0.00  0.00    +0.000 NA
ATOM     12  C   UNL     1       3.359   3.083  20.730  0.00  0.00    +0.000 A 
ENDBRANCH   5   7
ENDBRANCH   1   2
BRANCH   1  14
ATOM     13  C   UNL     1       8.049   7.835  17.364  0.00  0.00    +0.000 C 
ATOM     14  C   UNL     1       7.048   6.687  17.470  0.00  0.00    +0.000 C 
BRANCH  14  15
ATOM     15  C   UNL     1       7.384   5.536  16.521  0.00  0.00    +0.000 C 
ATOM     16  O   UNL     1       7.962   4.516  16.885  0.00  0.00    +0.000 OA
ATOM     17  N   UNL     1       6.931   5.712  15.226  0.00  0.00    +0.000 N 
ATOM     18  H   UNL     1       6.684   6.651  14.934  0.00  0.00    +0.000 HD
BRANCH  17  19
ATOM     19  C   UNL     1       7.191   4.719  14.206  0.00  0.00    +0.000 C 
ATOM     20  C   UNL     1       5.927   4.000  13.756  0.00  0.00    +0.000 C 
ATOM     21  C   UNL     1       6.323   3.380  12.425  0.00  0.00    +0.000 C 
ATOM     22  C   UNL     1       7.365   4.320  11.820  0.00  0.00    +0.000 C 
ATOM     23  C   UNL     1       7.739   5.320  12.915  0.00  0.00    +0.000 C 
ENDBRANCH  17  19
ENDBRANCH  14  15
ENDBRANCH   1  14
TORSDOF 5
ENDMDL
MODEL 4
REMARK VINA RESULT:      -7.4      3.524      7.618
REMARK  Name = 
REMARK  6 active torsions:
REMARK  status: ('A' for Active; 'I' for Inactive)
REMARK    1  A    between atoms: C_1  and  C_2
REMARK    2  A    between atoms: C_2  and  S_3
REMARK    3  A    between atoms: C_2  and  C_15
REMARK    4  A    between atoms: S_3  and  C_4
REMARK    5  A    between atoms: C_7  and  C_8
REMARK    6  A    between atoms: N_17  and  C_18
REMARK                            x       y       z     vdW  Elec       q    Type
REMARK                         _______ _______ _______ _____ _____    ______ ____
ROOT
ATOM      1  S   UNL     1       5.715   6.419  16.529  0.00  0.00    +0.000 S 
ENDROOT
BRANCH   1   2
ATOM      2  C   UNL     1       6.938   7.273  17.416  0.00  0.00    +0.000 A 
ATOM      3  N   UNL     1       7.739   6.681  18.280  0.00  0.00    +0.000 NA
ATOM      4  N   UNL     1       8.571   7.661  18.779  0.00  0.00    +0.000 NA
ATOM      5  C   UNL     1       8.218   8.787  18.197  0.00  0.00    +0.000 A 
ATOM      6  O   UNL     1       7.178   8.619  17.321  0.00  0.00    +0.000 OA
BRANCH   5   7
ATOM      7  C   UNL     1       8.757  10.122  18.370  0.00  0.00    +0.000 A 
ATOM      8  C   UNL     1       8.366  11.222  17.599  0.00  0.00    +0.000 A 
ATOM      9  C   UNL     1       8.926  12.479  17.851  0.00  0.00    +0.000 A 
ATOM     10  C   UNL     1       9.862  12.595  18.866  0.00  0.00    +0.000 A 
ATOM     11  N   UNL     1      10.274  11.558  19.623  0.00  0.00    +0.000 NA
ATOM     12  C   UNL     1       9.714  10.352  19.356  0.00  0.00    +0.000 A 
ENDBRANCH   5   7
ENDBRANCH   1   2
BRANCH   1  14
ATOM     13  C   UNL     1       5.927   3.764  15.714  0.00  0.00    +0.000 C 
ATOM     14  C   UNL     1       6.074   4.677  16.928  0.00  0.00    +0.000 C 
BRANCH  14  15
ATOM     15  C   UNL     1       5.235   4.202  18.115  0.00  0.00    +0.000 C 
ATOM     16  O   UNL     1       5.689   4.084  19.250  0.00  0.00    +0.000 OA
ATOM     17  N   UNL     1       3.905   3.971  17.819  0.00  0.00    +0.000 N 
ATOM     18  H   UNL     1       3.650   3.853  16.845  0.00  0.00    +0.000 HD
BRANCH  17  19
ATOM     19  C   UNL     1       2.988   3.496  18.834  0.00  0.00    +0.000 C 
ATOM     20  C   UNL     1       2.094   4.601  19.377  0.00  0.00    +0.000 C 
ATOM     21  C   UNL     1       0.953   3.845  20.039  0.00  0.00    +0.000 C 
ATOM     22  C   UNL     1       0.792   2.551  19.242  0.00  0.00    +0.000 C 
ATOM     23  C   UNL     1       1.997   2.462  18.305  0.00  0.00    +0.000 C 
ENDBRANCH  17  19
ENDBRANCH  14  15
ENDBRANCH   1  14
TORSDOF 5
ENDMDL
MODEL 5
REMARK VINA RESULT:      -7.3      3.416      7.686
REMARK  Name = 
REMARK  6 active torsions:
REMARK  status: ('A' for Active; 'I' for Inactive)
REMARK    1  A    between atoms: C_1  and  C_2
REMARK    2  A    between atoms: C_2  and  S_3
REMARK    3  A    between atoms: C_2  and  C_15
REMARK    4  A    between atoms: S_3  and  C_4
REMARK    5  A    between atoms: C_7  and  C_8
REMARK    6  A    between atoms: N_17  and  C_18
REMARK                            x       y       z     vdW  Elec       q    Type
REMARK                         _______ _______ _______ _____ _____    ______ ____
ROOT
ATOM      1  S   UNL     1       5.659   6.395  16.562  0.00  0.00    +0.000 S 
ENDROOT
BRANCH   1   2
ATOM      2  C   UNL     1       6.893   7.250  17.433  0.00  0.00    +0.000 A 
ATOM      3  N   UNL     1       7.688   6.663  18.307  0.00  0.00    +0.000 NA
ATOM      4  N   UNL     1       8.532   7.640  18.790  0.00  0.00    +0.000 NA
ATOM      5  C   UNL     1       8.192   8.761  18.188  0.00  0.00    +0.000 A 
ATOM      6  O   UNL     1       7.150   8.590  17.316  0.00  0.00    +0.000 OA
BRANCH   5   7
ATOM      7  C   UNL     1       8.747  10.091  18.338  0.00  0.00    +0.000 A 
ATOM      8  C   UNL     1       9.812  10.396  19.194  0.00  0.00    +0.000 A 
ATOM      9  C   UNL     1      10.297  11.707  19.257  0.00  0.00    +0.000 A 
ATOM     10  C   UNL     1       9.699  12.673  18.464  0.00  0.00    +0.000 A 
ATOM     11  N   UNL     1       8.664  12.423  17.636  0.00  0.00    +0.000 NA
ATOM     12  C   UNL     1       8.215  11.143  17.595  0.00  0.00    +0.000 A 
ENDBRANCH   5   7
ENDBRANCH   1   2
BRANCH   1  14
ATOM     13  C   UNL     1       5.885   3.740  15.750  0.00  0.00    +0.000 C 
ATOM     14  C   UNL     1       6.017   4.654  16.966  0.00  0.00    +0.000 C 
BRANCH  14  15
ATOM     15  C   UNL     1       5.165   4.179  18.143  0.00  0.00    +0.000 C 
ATOM     16  O   UNL     1       5.589   4.119  19.294  0.00  0.00    +0.000 OA
ATOM     17  N   UNL     1       3.856   3.874  17.817  0.00  0.00    +0.000 N 
ATOM     18  H   UNL     1       3.637   3.712  16.840  0.00  0.00    +0.000 HD
BRANCH  17  19
ATOM     19  C   UNL     1       2.932   3.389  18.820  0.00  0.00    +0.000 C 
ATOM     20  C   UNL     1       2.149   4.512  19.485  0.00  0.00    +0.000 C 
ATOM     21  C   UNL     1       0.968   3.796  20.121  0.00  0.00    +0.000 C 
ATOM     22  C   UNL     1       0.678   2.592  19.226  0.00  0.00    +0.000 C 
ATOM     23  C   UNL     1       1.844   2.488  18.242  0.00  0.00    +0.000 C 
ENDBRANCH  17  19
ENDBRANCH  14  15
ENDBRANCH   1  14
TORSDOF 5
ENDMDL
MODEL 6
REMARK VINA RESULT:      -7.3      3.875      5.377
REMARK  Name = 
REMARK  6 active torsions:
REMARK  status: ('A' for Active; 'I' for Inactive)
REMARK    1  A    between atoms: C_1  and  C_2
REMARK    2  A    between atoms: C_2  and  S_3
REMARK    3  A    between atoms: C_2  and  C_15
REMARK    4  A    between atoms: S_3  and  C_4
REMARK    5  A    between atoms: C_7  and  C_8
REMARK    6  A    between atoms: N_17  and  C_18
REMARK                            x       y       z     vdW  Elec       q    Type
REMARK                         _______ _______ _______ _____ _____    ______ ____
ROOT
ATOM      1  S   UNL     1       2.026   4.164  20.618  0.00  0.00    +0.000 S 
ENDROOT
BRANCH   1   2
ATOM      2  C   UNL     1       1.862   5.882  20.428  0.00  0.00    +0.000 A 
ATOM      3  N   UNL     1       2.505   6.563  19.500  0.00  0.00    +0.000 NA
ATOM      4  N   UNL     1       2.129   7.881  19.648  0.00  0.00    +0.000 NA
ATOM      5  C   UNL     1       1.290   7.921  20.663  0.00  0.00    +0.000 A 
ATOM      6  O   UNL     1       1.079   6.685  21.214  0.00  0.00    +0.000 OA
BRANCH   5   7
ATOM      7  C   UNL     1       0.607   9.057  21.248  0.00  0.00    +0.000 A 
ATOM      8  C   UNL     1      -0.068  10.027  20.500  0.00  0.00    +0.000 A 
ATOM      9  C   UNL     1      -0.718  11.079  21.153  0.00  0.00    +0.000 A 
ATOM     10  C   UNL     1      -0.669  11.130  22.537  0.00  0.00    +0.000 A 
ATOM     11  N   UNL     1      -0.019  10.222  23.294  0.00  0.00    +0.000 NA
ATOM     12  C   UNL     1       0.601   9.214  22.633  0.00  0.00    +0.000 A 
ENDBRANCH   5   7
ENDBRANCH   1   2
BRANCH   1  14
ATOM     13  C   UNL     1       0.665   2.440  18.905  0.00  0.00    +0.000 C 
ATOM     14  C   UNL     1       1.720   3.544  18.932  0.00  0.00    +0.000 C 
BRANCH  14  15
ATOM     15  C   UNL     1       3.025   3.115  18.260  0.00  0.00    +0.000 C 
ATOM     16  O   UNL     1       3.304   1.941  18.030  0.00  0.00    +0.000 OA
ATOM     17  N   UNL     1       3.844   4.161  17.879  0.00  0.00    +0.000 N 
ATOM     18  H   UNL     1       3.680   5.069  18.301  0.00  0.00    +0.000 HD
BRANCH  17  19
ATOM     19  C   UNL     1       5.124   3.915  17.250  0.00  0.00    +0.000 C 
ATOM     20  C   UNL     1       5.202   4.486  15.841  0.00  0.00    +0.000 C 
ATOM     21  C   UNL     1       6.695   4.536  15.559  0.00  0.00    +0.000 C 
ATOM     22  C   UNL     1       7.368   4.768  16.911  0.00  0.00    +0.000 C 
ATOM     23  C   UNL     1       6.284   4.591  17.975  0.00  0.00    +0.000 C 
ENDBRANCH  17  19
ENDBRANCH  14  15
ENDBRANCH   1  14
TORSDOF 5
ENDMDL
MODEL 7
REMARK VINA RESULT:      -7.2      3.124      6.958
REMARK  Name = 
REMARK  6 active torsions:
REMARK  status: ('A' for Active; 'I' for Inactive)
REMARK    1  A    between atoms: C_1  and  C_2
REMARK    2  A    between atoms: C_2  and  S_3
REMARK    3  A    between atoms: C_2  and  C_15
REMARK    4  A    between atoms: S_3  and  C_4
REMARK    5  A    between atoms: C_7  and  C_8
REMARK    6  A    between atoms: N_17  and  C_18
REMARK                            x       y       z     vdW  Elec       q    Type
REMARK                         _______ _______ _______ _____ _____    ______ ____
ROOT
ATOM      1  S   UNL     1       3.362   2.125  19.649  0.00  0.00    +0.000 S 
ENDROOT
BRANCH   1   2
ATOM      2  C   UNL     1       4.188   3.228  18.593  0.00  0.00    +0.000 A 
ATOM      3  N   UNL     1       4.066   3.187  17.281  0.00  0.00    +0.000 NA
ATOM      4  N   UNL     1       4.854   4.203  16.781  0.00  0.00    +0.000 NA
ATOM      5  C   UNL     1       5.413   4.790  17.819  0.00  0.00    +0.000 A 
ATOM      6  O   UNL     1       5.041   4.217  19.006  0.00  0.00    +0.000 OA
BRANCH   5   7
ATOM      7  C   UNL     1       6.339   5.904  17.858  0.00  0.00    +0.000 A 
ATOM      8  C   UNL     1       7.419   5.986  18.745  0.00  0.00    +0.000 A 
ATOM      9  C   UNL     1       8.274   7.091  18.696  0.00  0.00    +0.000 A 
ATOM     10  C   UNL     1       8.021   8.083  17.763  0.00  0.00    +0.000 A 
ATOM     11  N   UNL     1       6.985   8.048  16.899  0.00  0.00    +0.000 NA
ATOM     12  C   UNL     1       6.173   6.964  16.969  0.00  0.00    +0.000 A 
ENDBRANCH   5   7
ENDBRANCH   1   2
BRANCH   1  14
ATOM     13  C   UNL     1       1.888   2.468  21.987  0.00  0.00    +0.000 C 
ATOM     14  C   UNL     1       2.662   3.232  20.916  0.00  0.00    +0.000 C 
BRANCH  14  15
ATOM     15  C   UNL     1       1.824   4.339  20.275  0.00  0.00    +0.000 C 
ATOM     16  O   UNL     1       0.638   4.199  19.988  0.00  0.00    +0.000 OA
ATOM     17  N   UNL     1       2.495   5.534  20.096  0.00  0.00    +0.000 N 
ATOM     18  H   UNL     1       3.508   5.517  20.124  0.00  0.00    +0.000 HD
BRANCH  17  19
ATOM     19  C   UNL     1       1.842   6.670  19.480  0.00  0.00    +0.000 C 
ATOM     20  C   UNL     1       1.819   7.892  20.387  0.00  0.00    +0.000 C 
ATOM     21  C   UNL     1       1.537   9.041  19.431  0.00  0.00    +0.000 C 
ATOM     22  C   UNL     1       2.160   8.635  18.096  0.00  0.00    +0.000 C 
ATOM     23  C   UNL     1       2.562   7.166  18.229  0.00  0.00    +0.000 C 
ENDBRANCH  17  19
ENDBRANCH  14  15
ENDBRANCH   1  14
TORSDOF 5
ENDMDL
MODEL 8
REMARK VINA RESULT:      -7.1      3.958      5.557
REMARK  Name = 
REMARK  6 active torsions:
REMARK  status: ('A' for Active; 'I' for Inactive)
REMARK    1  A    between atoms: C_1  and  C_2
REMARK    2  A    between atoms: C_2  and  S_3
REMARK    3  A    between atoms: C_2  and  C_15
REMARK    4  A    between atoms: S_3  and  C_4
REMARK    5  A    between atoms: C_7  and  C_8
REMARK    6  A    between atoms: N_17  and  C_18
REMARK                            x       y       z     vdW  Elec       q    Type
REMARK                         _______ _______ _______ _____ _____    ______ ____
ROOT
ATOM      1  S   UNL     1       2.216   4.549  20.603  0.00  0.00    +0.000 S 
ENDROOT
BRANCH   1   2
ATOM      2  C   UNL     1       1.908   6.248  20.424  0.00  0.00    +0.000 A 
ATOM      3  N   UNL     1       2.397   6.962  19.430  0.00  0.00    +0.000 NA
ATOM      4  N   UNL     1       1.945   8.252  19.611  0.00  0.00    +0.000 NA
ATOM      5  C   UNL     1       1.219   8.244  20.710  0.00  0.00    +0.000 A 
ATOM      6  O   UNL     1       1.158   7.003  21.287  0.00  0.00    +0.000 OA
BRANCH   5   7
ATOM      7  C   UNL     1       0.522   9.336  21.361  0.00  0.00    +0.000 A 
ATOM      8  C   UNL     1      -0.248   9.184  22.519  0.00  0.00    +0.000 A 
ATOM      9  C   UNL     1      -0.868  10.300  23.091  0.00  0.00    +0.000 A 
ATOM     10  C   UNL     1      -0.701  11.534  22.483  0.00  0.00    +0.000 A 
ATOM     11  N   UNL     1       0.024  11.721  21.360  0.00  0.00    +0.000 NA
ATOM     12  C   UNL     1       0.613  10.620  20.829  0.00  0.00    +0.000 A 
ENDBRANCH   5   7
ENDBRANCH   1   2
BRANCH   1  14
ATOM     13  C   UNL     1       0.587   2.745  19.244  0.00  0.00    +0.000 C 
ATOM     14  C   UNL     1       1.602   3.864  19.030  0.00  0.00    +0.000 C 
BRANCH  14  15
ATOM     15  C   UNL     1       2.761   3.430  18.131  0.00  0.00    +0.000 C 
ATOM     16  O   UNL     1       2.706   2.449  17.395  0.00  0.00    +0.000 OA
ATOM     17  N   UNL     1       3.861   4.268  18.171  0.00  0.00    +0.000 N 
ATOM     18  H   UNL     1       3.942   4.906  18.955  0.00  0.00    +0.000 HD
BRANCH  17  19
ATOM     19  C   UNL     1       5.046   3.979  17.392  0.00  0.00    +0.000 C 
ATOM     20  C   UNL     1       5.026   4.651  16.027  0.00  0.00    +0.000 C 
ATOM     21  C   UNL     1       6.482   4.614  15.590  0.00  0.00    +0.000 C 
ATOM     22  C   UNL     1       7.306   4.690  16.875  0.00  0.00    +0.000 C 
ATOM     23  C   UNL     1       6.325   4.510  18.034  0.00  0.00    +0.000 C 
ENDBRANCH  17  19
ENDBRANCH  14  15
ENDBRANCH   1  14
TORSDOF 5
ENDMDL
MODEL 9
REMARK VINA RESULT:      -7.1      3.209      6.861
REMARK  Name = 
REMARK  6 active torsions:
REMARK  status: ('A' for Active; 'I' for Inactive)
REMARK    1  A    between atoms: C_1  and  C_2
REMARK    2  A    between atoms: C_2  and  S_3
REMARK    3  A    between atoms: C_2  and  C_15
REMARK    4  A    between atoms: S_3  and  C_4
REMARK    5  A    between atoms: C_7  and  C_8
REMARK    6  A    between atoms: N_17  and  C_18
REMARK                            x       y       z     vdW  Elec       q    Type
REMARK                         _______ _______ _______ _____ _____    ______ ____
ROOT
ATOM      1  S   UNL     1       3.639   2.173  20.099  0.00  0.00    +0.000 S 
ENDROOT
BRANCH   1   2
ATOM      2  C   UNL     1       4.418   3.242  18.976  0.00  0.00    +0.000 A 
ATOM      3  N   UNL     1       4.269   3.138  17.670  0.00  0.00    +0.000 NA
ATOM      4  N   UNL     1       5.023   4.146  17.106  0.00  0.00    +0.000 NA
ATOM      5  C   UNL     1       5.591   4.792  18.103  0.00  0.00    +0.000 A 
ATOM      6  O   UNL     1       5.257   4.268  19.323  0.00  0.00    +0.000 OA
BRANCH   5   7
ATOM      7  C   UNL     1       6.493   5.926  18.069  0.00  0.00    +0.000 A 
ATOM      8  C   UNL     1       6.356   7.000  17.183  0.00  0.00    +0.000 A 
ATOM      9  C   UNL     1       7.263   8.064  17.237  0.00  0.00    +0.000 A 
ATOM     10  C   UNL     1       8.282   8.018  18.176  0.00  0.00    +0.000 A 
ATOM     11  N   UNL     1       8.455   6.996  19.040  0.00  0.00    +0.000 NA
ATOM     12  C   UNL     1       7.560   5.979  18.964  0.00  0.00    +0.000 A 
ENDBRANCH   5   7
ENDBRANCH   1   2
BRANCH   1  14
ATOM     13  C   UNL     1       1.572   2.554  21.928  0.00  0.00    +0.000 C 
ATOM     14  C   UNL     1       2.579   3.303  21.059  0.00  0.00    +0.000 C 
BRANCH  14  15
ATOM     15  C   UNL     1       1.905   4.330  20.147  0.00  0.00    +0.000 C 
ATOM     16  O   UNL     1       0.952   4.057  19.423  0.00  0.00    +0.000 OA
ATOM     17  N   UNL     1       2.421   5.609  20.246  0.00  0.00    +0.000 N 
ATOM     18  H   UNL     1       3.338   5.719  20.665  0.00  0.00    +0.000 HD
BRANCH  17  19
ATOM     19  C   UNL     1       1.903   6.686  19.430  0.00  0.00    +0.000 C 
ATOM     20  C   UNL     1       1.753   7.986  20.207  0.00  0.00    +0.000 C 
ATOM     21  C   UNL     1       1.657   9.044  19.118  0.00  0.00    +0.000 C 
ATOM     22  C   UNL     1       2.488   8.515  17.949  0.00  0.00    +0.000 C 
ATOM     23  C   UNL     1       2.832   7.063  18.279  0.00  0.00    +0.000 C 
ENDBRANCH  17  19
ENDBRANCH  14  15
ENDBRANCH   1  14
TORSDOF 5
ENDMDL
