MODEL 1
REMARK VINA RESULT:      -9.7      0.000      0.000
REMARK  Name = 
REMARK  8 active torsions:
REMARK  status: ('A' for Active; 'I' for Inactive)
REMARK    1  A    between atoms: C_2  and  C_3
REMARK    2  A    between atoms: C_9  and  N_10
REMARK    3  A    between atoms: N_10  and  C_11
REMARK    4  A    between atoms: N_14  and  C_15
REMARK    5  A    between atoms: C_18  and  N_19
REMARK    6  A    between atoms: N_19  and  C_20
REMARK    7  A    between atoms: C_21  and  C_23
REMARK    8  A    between atoms: C_23  and  C_24
REMARK                            x       y       z     vdW  Elec       q    Type
REMARK                         _______ _______ _______ _____ _____    ______ ____
ROOT
ATOM      1  C   UNL     1       4.069   4.326  19.429  0.00  0.00    +0.000 A 
ATOM      2  N   UNL     1       3.891   5.571  18.893  0.00  0.00    +0.000 NA
ATOM      3  C   UNL     1       2.685   6.171  18.951  0.00  0.00    +0.000 A 
ATOM      4  N   UNL     1       2.612   7.467  18.416  0.00  0.00    +0.000 N 
ATOM      5  N   UNL     1       1.574   5.636  19.481  0.00  0.00    +0.000 NA
ATOM      6  C   UNL     1       1.787   4.445  20.026  0.00  0.00    +0.000 A 
ATOM      7  N   UNL     1       0.857   3.673  20.662  0.00  0.00    +0.000 N 
ATOM      8  C   UNL     1       1.487   2.535  21.069  0.00  0.00    +0.000 A 
ATOM      9  N   UNL     1       2.767   2.536  20.737  0.00  0.00    +0.000 NA
ATOM     10  C   UNL     1       2.963   3.733  20.073  0.00  0.00    +0.000 A 
ATOM     11  H   UNL     1       3.560   7.770  18.223  0.00  0.00    +0.000 HD
ATOM     12  H   UNL     1      -0.113   3.918  20.787  0.00  0.00    +0.000 HD
ENDROOT
BRANCH   4  13
ATOM     13  C   UNL     1       1.795   8.498  18.921  0.00  0.00    +0.000 A 
ATOM     14  C   UNL     1       1.491   8.613  20.277  0.00  0.00    +0.000 A 
ATOM     15  C   UNL     1       0.721   9.675  20.763  0.00  0.00    +0.000 A 
ATOM     16  C   UNL     1       0.255  10.694  19.924  0.00  0.00    +0.000 A 
ATOM     17  C   UNL     1       0.555  10.565  18.557  0.00  0.00    +0.000 A 
ATOM     18  C   UNL     1       1.326   9.493  18.068  0.00  0.00    +0.000 A 
BRANCH  16  19
ATOM     19  N   UNL     1      -0.477  11.824  20.451  0.00  0.00    +0.000 N 
ATOM     20  C   UNL     1      -1.900  11.952  20.143  0.00  0.00    +0.000 C 
ATOM     21  C   UNL     1       0.171  12.836  21.199  0.00  0.00    +0.000 C 
ATOM     22  O   UNL     1       1.374  12.856  21.469  0.00  0.00    +0.000 OA
BRANCH  21  23
ATOM     23  C   UNL     1      -0.699  14.011  21.642  0.00  0.00    +0.000 C 
ATOM     24  C   UNL     1      -1.016  13.957  23.131  0.00  0.00    +0.000 C 
ENDBRANCH  21  23
ENDBRANCH  16  19
ENDBRANCH   4  13
BRANCH   1  25
ATOM     25  N   UNL     1       5.304   3.669  19.327  0.00  0.00    +0.000 N 
ATOM     26  H   UNL     1       5.651   3.548  20.275  0.00  0.00    +0.000 HD
BRANCH  25  33
ATOM     27  C   UNL     1       6.959   4.967  14.930  0.00  0.00    +0.000 C 
ATOM     28  O   UNL     1       7.866   5.559  14.349  0.00  0.00    +0.000 OA
ATOM     29  N   UNL     1       6.469   5.359  16.165  0.00  0.00    +0.000 N 
ATOM     30  C   UNL     1       6.939   6.619  16.732  0.00  0.00    +0.000 C 
ATOM     31  C   UNL     1       7.685   6.373  18.034  0.00  0.00    +0.000 C 
ATOM     32  C   UNL     1       6.812   5.607  19.023  0.00  0.00    +0.000 C 
ATOM     33  C   UNL     1       6.288   4.284  18.422  0.00  0.00    +0.000 C 
ATOM     34  C   UNL     1       5.609   4.569  17.055  0.00  0.00    +0.000 C 
BRANCH  27  36
ATOM     35  C   UNL     1       5.541   3.952  13.202  0.00  0.00    +0.000 C 
ATOM     36  C   UNL     1       6.313   3.793  14.285  0.00  0.00    +0.000 C 
ENDBRANCH  27  36
ENDBRANCH  25  33
ENDBRANCH   1  25
TORSDOF 6
ENDMDL
MODEL 2
REMARK VINA RESULT:      -9.6      0.978      1.305
REMARK  Name = 
REMARK  8 active torsions:
REMARK  status: ('A' for Active; 'I' for Inactive)
REMARK    1  A    between atoms: C_2  and  C_3
REMARK    2  A    between atoms: C_9  and  N_10
REMARK    3  A    between atoms: N_10  and  C_11
REMARK    4  A    between atoms: N_14  and  C_15
REMARK    5  A    between atoms: C_18  and  N_19
REMARK    6  A    between atoms: N_19  and  C_20
REMARK    7  A    between atoms: C_21  and  C_23
REMARK    8  A    between atoms: C_23  and  C_24
REMARK                            x       y       z     vdW  Elec       q    Type
REMARK                         _______ _______ _______ _____ _____    ______ ____
ROOT
ATOM      1  C   UNL     1       4.069   4.352  19.431  0.00  0.00    +0.000 A 
ATOM      2  N   UNL     1       3.893   5.594  18.887  0.00  0.00    +0.000 NA
ATOM      3  C   UNL     1       2.686   6.194  18.935  0.00  0.00    +0.000 A 
ATOM      4  N   UNL     1       2.615   7.487  18.393  0.00  0.00    +0.000 N 
ATOM      5  N   UNL     1       1.572   5.661  19.462  0.00  0.00    +0.000 NA
ATOM      6  C   UNL     1       1.783   4.473  20.016  0.00  0.00    +0.000 A 
ATOM      7  N   UNL     1       0.850   3.705  20.651  0.00  0.00    +0.000 N 
ATOM      8  C   UNL     1       1.479   2.569  21.067  0.00  0.00    +0.000 A 
ATOM      9  N   UNL     1       2.760   2.569  20.743  0.00  0.00    +0.000 NA
ATOM     10  C   UNL     1       2.959   3.763  20.073  0.00  0.00    +0.000 A 
ATOM     11  H   UNL     1       3.564   7.789  18.204  0.00  0.00    +0.000 HD
ATOM     12  H   UNL     1      -0.120   3.949  20.769  0.00  0.00    +0.000 HD
ENDROOT
BRANCH   4  13
ATOM     13  C   UNL     1       1.795   8.520  18.887  0.00  0.00    +0.000 A 
ATOM     14  C   UNL     1       1.407   8.590  20.225  0.00  0.00    +0.000 A 
ATOM     15  C   UNL     1       0.636   9.654  20.705  0.00  0.00    +0.000 A 
ATOM     16  C   UNL     1       0.251  10.717  19.881  0.00  0.00    +0.000 A 
ATOM     17  C   UNL     1       0.634  10.634  18.531  0.00  0.00    +0.000 A 
ATOM     18  C   UNL     1       1.407   9.561  18.047  0.00  0.00    +0.000 A 
BRANCH  16  19
ATOM     19  N   UNL     1      -0.483  11.847  20.407  0.00  0.00    +0.000 N 
ATOM     20  C   UNL     1       0.145  12.690  21.421  0.00  0.00    +0.000 C 
ATOM     21  C   UNL     1      -1.816  12.107  20.007  0.00  0.00    +0.000 C 
ATOM     22  O   UNL     1      -2.459  11.429  19.203  0.00  0.00    +0.000 OA
BRANCH  21  23
ATOM     23  C   UNL     1      -2.506  13.289  20.685  0.00  0.00    +0.000 C 
ATOM     24  C   UNL     1      -4.014  13.272  20.467  0.00  0.00    +0.000 C 
ENDBRANCH  21  23
ENDBRANCH  16  19
ENDBRANCH   4  13
BRANCH   1  25
ATOM     25  N   UNL     1       5.305   3.696  19.340  0.00  0.00    +0.000 N 
ATOM     26  H   UNL     1       5.653   3.593  20.290  0.00  0.00    +0.000 HD
BRANCH  25  33
ATOM     27  C   UNL     1       6.895   5.023  14.928  0.00  0.00    +0.000 C 
ATOM     28  O   UNL     1       7.807   5.595  14.336  0.00  0.00    +0.000 OA
ATOM     29  N   UNL     1       6.448   5.407  16.181  0.00  0.00    +0.000 N 
ATOM     30  C   UNL     1       6.973   6.640  16.760  0.00  0.00    +0.000 C 
ATOM     31  C   UNL     1       7.742   6.345  18.039  0.00  0.00    +0.000 C 
ATOM     32  C   UNL     1       6.869   5.589  19.034  0.00  0.00    +0.000 C 
ATOM     33  C   UNL     1       6.287   4.295  18.423  0.00  0.00    +0.000 C 
ATOM     34  C   UNL     1       5.584   4.629  17.078  0.00  0.00    +0.000 C 
BRANCH  27  36
ATOM     35  C   UNL     1       6.300   3.685  12.957  0.00  0.00    +0.000 C 
ATOM     36  C   UNL     1       6.195   3.883  14.278  0.00  0.00    +0.000 C 
ENDBRANCH  27  36
ENDBRANCH  25  33
ENDBRANCH   1  25
TORSDOF 6
ENDMDL
MODEL 3
REMARK VINA RESULT:      -9.1      4.247      7.709
REMARK  Name = 
REMARK  8 active torsions:
REMARK  status: ('A' for Active; 'I' for Inactive)
REMARK    1  A    between atoms: C_2  and  C_3
REMARK    2  A    between atoms: C_9  and  N_10
REMARK    3  A    between atoms: N_10  and  C_11
REMARK    4  A    between atoms: N_14  and  C_15
REMARK    5  A    between atoms: C_18  and  N_19
REMARK    6  A    between atoms: N_19  and  C_20
REMARK    7  A    between atoms: C_21  and  C_23
REMARK    8  A    between atoms: C_23  and  C_24
REMARK                            x       y       z     vdW  Elec       q    Type
REMARK                         _______ _______ _______ _____ _____    ______ ____
ROOT
ATOM      1  C   UNL     1       6.083   4.513  17.815  0.00  0.00    +0.000 A 
ATOM      2  N   UNL     1       6.732   5.423  18.604  0.00  0.00    +0.000 NA
ATOM      3  C   UNL     1       7.567   6.327  18.055  0.00  0.00    +0.000 A 
ATOM      4  N   UNL     1       8.149   7.250  18.938  0.00  0.00    +0.000 N 
ATOM      5  N   UNL     1       7.868   6.416  16.749  0.00  0.00    +0.000 NA
ATOM      6  C   UNL     1       7.195   5.547  16.006  0.00  0.00    +0.000 A 
ATOM      7  N   UNL     1       7.271   5.420  14.648  0.00  0.00    +0.000 N 
ATOM      8  C   UNL     1       6.424   4.414  14.289  0.00  0.00    +0.000 A 
ATOM      9  N   UNL     1       5.806   3.895  15.335  0.00  0.00    +0.000 NA
ATOM     10  C   UNL     1       6.291   4.598  16.422  0.00  0.00    +0.000 A 
ATOM     11  H   UNL     1       7.685   7.146  19.833  0.00  0.00    +0.000 HD
ATOM     12  H   UNL     1       7.859   5.975  14.046  0.00  0.00    +0.000 HD
ENDROOT
BRANCH   4  13
ATOM     13  C   UNL     1       8.443   8.590  18.620  0.00  0.00    +0.000 A 
ATOM     14  C   UNL     1       7.822   9.260  17.566  0.00  0.00    +0.000 A 
ATOM     15  C   UNL     1       8.091  10.607  17.301  0.00  0.00    +0.000 A 
ATOM     16  C   UNL     1       8.959  11.358  18.100  0.00  0.00    +0.000 A 
ATOM     17  C   UNL     1       9.591  10.673  19.153  0.00  0.00    +0.000 A 
ATOM     18  C   UNL     1       9.324   9.316  19.416  0.00  0.00    +0.000 A 
BRANCH  16  19
ATOM     19  N   UNL     1       9.171  12.768  17.860  0.00  0.00    +0.000 N 
ATOM     20  C   UNL     1       8.026  13.674  17.900  0.00  0.00    +0.000 C 
ATOM     21  C   UNL     1      10.450  13.272  17.521  0.00  0.00    +0.000 C 
ATOM     22  O   UNL     1      11.471  12.591  17.405  0.00  0.00    +0.000 OA
BRANCH  21  23
ATOM     23  C   UNL     1      10.531  14.768  17.225  0.00  0.00    +0.000 C 
ATOM     24  C   UNL     1      11.395  15.506  18.239  0.00  0.00    +0.000 C 
ENDBRANCH  21  23
ENDBRANCH  16  19
ENDBRANCH   4  13
BRANCH   1  25
ATOM     25  N   UNL     1       5.254   3.534  18.381  0.00  0.00    +0.000 N 
ATOM     26  H   UNL     1       4.809   3.044  17.609  0.00  0.00    +0.000 HD
BRANCH  25  33
ATOM     27  C   UNL     1       1.859   6.591  20.080  0.00  0.00    +0.000 C 
ATOM     28  O   UNL     1       1.097   6.800  21.020  0.00  0.00    +0.000 OA
ATOM     29  N   UNL     1       2.179   5.321  19.631  0.00  0.00    +0.000 N 
ATOM     30  C   UNL     1       1.460   4.182  20.195  0.00  0.00    +0.000 C 
ATOM     31  C   UNL     1       2.416   3.260  20.935  0.00  0.00    +0.000 C 
ATOM     32  C   UNL     1       3.549   2.807  20.020  0.00  0.00    +0.000 C 
ATOM     33  C   UNL     1       4.300   4.005  19.397  0.00  0.00    +0.000 C 
ATOM     34  C   UNL     1       3.278   4.963  18.726  0.00  0.00    +0.000 C 
BRANCH  27  36
ATOM     35  C   UNL     1       1.869   8.216  18.238  0.00  0.00    +0.000 C 
ATOM     36  C   UNL     1       2.455   7.740  19.345  0.00  0.00    +0.000 C 
ENDBRANCH  27  36
ENDBRANCH  25  33
ENDBRANCH   1  25
TORSDOF 6
ENDMDL
MODEL 4
REMARK VINA RESULT:      -9.1      1.107      1.214
REMARK  Name = 
REMARK  8 active torsions:
REMARK  status: ('A' for Active; 'I' for Inactive)
REMARK    1  A    between atoms: C_2  and  C_3
REMARK    2  A    between atoms: C_9  and  N_10
REMARK    3  A    between atoms: N_10  and  C_11
REMARK    4  A    between atoms: N_14  and  C_15
REMARK    5  A    between atoms: C_18  and  N_19
REMARK    6  A    between atoms: N_19  and  C_20
REMARK    7  A    between atoms: C_21  and  C_23
REMARK    8  A    between atoms: C_23  and  C_24
REMARK                            x       y       z     vdW  Elec       q    Type
REMARK                         _______ _______ _______ _____ _____    ______ ____
ROOT
ATOM      1  C   UNL     1       3.992   4.234  19.459  0.00  0.00    +0.000 A 
ATOM      2  N   UNL     1       3.860   5.585  19.291  0.00  0.00    +0.000 NA
ATOM      3  C   UNL     1       2.640   6.157  19.306  0.00  0.00    +0.000 A 
ATOM      4  N   UNL     1       2.608   7.554  19.174  0.00  0.00    +0.000 N 
ATOM      5  N   UNL     1       1.475   5.503  19.446  0.00  0.00    +0.000 NA
ATOM      6  C   UNL     1       1.638   4.201  19.645  0.00  0.00    +0.000 A 
ATOM      7  N   UNL     1       0.643   3.287  19.847  0.00  0.00    +0.000 N 
ATOM      8  C   UNL     1       1.238   2.071  20.006  0.00  0.00    +0.000 A 
ATOM      9  N   UNL     1       2.555   2.154  19.926  0.00  0.00    +0.000 NA
ATOM     10  C   UNL     1       2.815   3.491  19.691  0.00  0.00    +0.000 A 
ATOM     11  H   UNL     1       3.563   7.887  19.252  0.00  0.00    +0.000 HD
ATOM     12  H   UNL     1      -0.343   3.497  19.863  0.00  0.00    +0.000 HD
ENDROOT
BRANCH   4  13
ATOM     13  C   UNL     1       1.674   8.399  19.804  0.00  0.00    +0.000 A 
ATOM     14  C   UNL     1       1.530   8.448  21.191  0.00  0.00    +0.000 A 
ATOM     15  C   UNL     1       0.632   9.333  21.798  0.00  0.00    +0.000 A 
ATOM     16  C   UNL     1      -0.131  10.238  21.053  0.00  0.00    +0.000 A 
ATOM     17  C   UNL     1       0.011  10.175  19.655  0.00  0.00    +0.000 A 
ATOM     18  C   UNL     1       0.910   9.280  19.044  0.00  0.00    +0.000 A 
BRANCH  16  19
ATOM     19  N   UNL     1      -0.999  11.198  21.698  0.00  0.00    +0.000 N 
ATOM     20  C   UNL     1      -1.311  11.030  23.115  0.00  0.00    +0.000 C 
ATOM     21  C   UNL     1      -1.602  12.250  20.968  0.00  0.00    +0.000 C 
ATOM     22  O   UNL     1      -1.453  12.451  19.761  0.00  0.00    +0.000 OA
BRANCH  21  23
ATOM     23  C   UNL     1      -2.552  13.156  21.750  0.00  0.00    +0.000 C 
ATOM     24  C   UNL     1      -2.296  14.631  21.468  0.00  0.00    +0.000 C 
ENDBRANCH  21  23
ENDBRANCH  16  19
ENDBRANCH   4  13
BRANCH   1  25
ATOM     25  N   UNL     1       5.252   3.621  19.392  0.00  0.00    +0.000 N 
ATOM     26  H   UNL     1       5.595   3.551  20.347  0.00  0.00    +0.000 HD
BRANCH  25  33
ATOM     27  C   UNL     1       6.779   5.018  14.979  0.00  0.00    +0.000 C 
ATOM     28  O   UNL     1       7.681   5.601  14.383  0.00  0.00    +0.000 OA
ATOM     29  N   UNL     1       6.349   5.382  16.244  0.00  0.00    +0.000 N 
ATOM     30  C   UNL     1       6.879   6.607  16.835  0.00  0.00    +0.000 C 
ATOM     31  C   UNL     1       7.666   6.294  18.098  0.00  0.00    +0.000 C 
ATOM     32  C   UNL     1       6.808   5.521  19.093  0.00  0.00    +0.000 C 
ATOM     33  C   UNL     1       6.220   4.236  18.470  0.00  0.00    +0.000 C 
ATOM     34  C   UNL     1       5.499   4.589  17.141  0.00  0.00    +0.000 C 
BRANCH  27  36
ATOM     35  C   UNL     1       6.273   3.621  13.024  0.00  0.00    +0.000 C 
ATOM     36  C   UNL     1       6.071   3.887  14.322  0.00  0.00    +0.000 C 
ENDBRANCH  27  36
ENDBRANCH  25  33
ENDBRANCH   1  25
TORSDOF 6
ENDMDL
MODEL 5
REMARK VINA RESULT:      -8.7      4.153      7.388
REMARK  Name = 
REMARK  8 active torsions:
REMARK  status: ('A' for Active; 'I' for Inactive)
REMARK    1  A    between atoms: C_2  and  C_3
REMARK    2  A    between atoms: C_9  and  N_10
REMARK    3  A    between atoms: N_10  and  C_11
REMARK    4  A    between atoms: N_14  and  C_15
REMARK    5  A    between atoms: C_18  and  N_19
REMARK    6  A    between atoms: N_19  and  C_20
REMARK    7  A    between atoms: C_21  and  C_23
REMARK    8  A    between atoms: C_23  and  C_24
REMARK                            x       y       z     vdW  Elec       q    Type
REMARK                         _______ _______ _______ _____ _____    ______ ____
ROOT
ATOM      1  C   UNL     1       6.158   4.680  18.044  0.00  0.00    +0.000 A 
ATOM      2  N   UNL     1       6.857   5.581  18.799  0.00  0.00    +0.000 NA
ATOM      3  C   UNL     1       7.672   6.477  18.208  0.00  0.00    +0.000 A 
ATOM      4  N   UNL     1       8.310   7.391  19.060  0.00  0.00    +0.000 N 
ATOM      5  N   UNL     1       7.905   6.565  16.888  0.00  0.00    +0.000 NA
ATOM      6  C   UNL     1       7.184   5.705  16.180  0.00  0.00    +0.000 A 
ATOM      7  N   UNL     1       7.187   5.581  14.820  0.00  0.00    +0.000 N 
ATOM      8  C   UNL     1       6.311   4.584  14.504  0.00  0.00    +0.000 A 
ATOM      9  N   UNL     1       5.743   4.070  15.581  0.00  0.00    +0.000 NA
ATOM     10  C   UNL     1       6.293   4.765  16.642  0.00  0.00    +0.000 A 
ATOM     11  H   UNL     1       7.893   7.291  19.979  0.00  0.00    +0.000 HD
ATOM     12  H   UNL     1       7.748   6.130  14.188  0.00  0.00    +0.000 HD
ENDROOT
BRANCH   4  13
ATOM     13  C   UNL     1       8.602   8.729  18.729  0.00  0.00    +0.000 A 
ATOM     14  C   UNL     1       7.952   9.400  17.693  0.00  0.00    +0.000 A 
ATOM     15  C   UNL     1       8.220  10.745  17.417  0.00  0.00    +0.000 A 
ATOM     16  C   UNL     1       9.118  11.492  18.186  0.00  0.00    +0.000 A 
ATOM     17  C   UNL     1       9.778  10.807  19.220  0.00  0.00    +0.000 A 
ATOM     18  C   UNL     1       9.512   9.452  19.496  0.00  0.00    +0.000 A 
BRANCH  16  19
ATOM     19  N   UNL     1       9.331  12.900  17.935  0.00  0.00    +0.000 N 
ATOM     20  C   UNL     1      10.359  13.302  16.977  0.00  0.00    +0.000 C 
ATOM     21  C   UNL     1       8.611  13.891  18.645  0.00  0.00    +0.000 C 
ATOM     22  O   UNL     1       7.763  13.666  19.511  0.00  0.00    +0.000 OA
BRANCH  21  23
ATOM     23  C   UNL     1       8.975  15.342  18.336  0.00  0.00    +0.000 C 
ATOM     24  C   UNL     1       7.739  16.213  18.144  0.00  0.00    +0.000 C 
ENDBRANCH  21  23
ENDBRANCH  16  19
ENDBRANCH   4  13
BRANCH   1  25
ATOM     25  N   UNL     1       5.349   3.709  18.651  0.00  0.00    +0.000 N 
ATOM     26  H   UNL     1       4.950   3.148  17.902  0.00  0.00    +0.000 HD
BRANCH  25  33
ATOM     27  C   UNL     1       1.825   6.774  20.047  0.00  0.00    +0.000 C 
ATOM     28  O   UNL     1       1.019   7.012  20.943  0.00  0.00    +0.000 OA
ATOM     29  N   UNL     1       2.188   5.490  19.677  0.00  0.00    +0.000 N 
ATOM     30  C   UNL     1       1.467   4.365  20.266  0.00  0.00    +0.000 C 
ATOM     31  C   UNL     1       2.408   3.501  21.092  0.00  0.00    +0.000 C 
ATOM     32  C   UNL     1       3.588   3.028  20.250  0.00  0.00    +0.000 C 
ATOM     33  C   UNL     1       4.342   4.209  19.600  0.00  0.00    +0.000 C 
ATOM     34  C   UNL     1       3.333   5.111  18.839  0.00  0.00    +0.000 C 
BRANCH  27  36
ATOM     35  C   UNL     1       1.802   8.410  18.216  0.00  0.00    +0.000 C 
ATOM     36  C   UNL     1       2.431   7.897  19.281  0.00  0.00    +0.000 C 
ENDBRANCH  27  36
ENDBRANCH  25  33
ENDBRANCH   1  25
TORSDOF 6
ENDMDL
MODEL 6
REMARK VINA RESULT:      -8.6      3.503     11.046
REMARK  Name = 
REMARK  8 active torsions:
REMARK  status: ('A' for Active; 'I' for Inactive)
REMARK    1  A    between atoms: C_2  and  C_3
REMARK    2  A    between atoms: C_9  and  N_10
REMARK    3  A    between atoms: N_10  and  C_11
REMARK    4  A    between atoms: N_14  and  C_15
REMARK    5  A    between atoms: C_18  and  N_19
REMARK    6  A    between atoms: N_19  and  C_20
REMARK    7  A    between atoms: C_21  and  C_23
REMARK    8  A    between atoms: C_23  and  C_24
REMARK                            x       y       z     vdW  Elec       q    Type
REMARK                         _______ _______ _______ _____ _____    ______ ____
ROOT
ATOM      1  C   UNL     1      -1.656  11.789  19.237  0.00  0.00    +0.000 A 
ATOM      2  N   UNL     1      -0.763  11.128  18.440  0.00  0.00    +0.000 NA
ATOM      3  C   UNL     1       0.331  10.550  18.976  0.00  0.00    +0.000 A 
ATOM      4  N   UNL     1       1.163   9.854  18.086  0.00  0.00    +0.000 N 
ATOM      5  N   UNL     1       0.671  10.583  20.275  0.00  0.00    +0.000 NA
ATOM      6  C   UNL     1      -0.233  11.198  21.027  0.00  0.00    +0.000 A 
ATOM      7  N   UNL     1      -0.175  11.362  22.381  0.00  0.00    +0.000 N 
ATOM      8  C   UNL     1      -1.295  12.045  22.753  0.00  0.00    +0.000 A 
ATOM      9  N   UNL     1      -2.069  12.320  21.718  0.00  0.00    +0.000 NA
ATOM     10  C   UNL     1      -1.404  11.796  20.625  0.00  0.00    +0.000 A 
ATOM     11  H   UNL     1       0.673   9.789  17.200  0.00  0.00    +0.000 HD
ATOM     12  H   UNL     1       0.573  11.037  22.974  0.00  0.00    +0.000 HD
ENDROOT
BRANCH   4  13
ATOM     13  C   UNL     1       1.882   8.686  18.406  0.00  0.00    +0.000 A 
ATOM     14  C   UNL     1       1.679   7.988  19.597  0.00  0.00    +0.000 A 
ATOM     15  C   UNL     1       2.367   6.800  19.870  0.00  0.00    +0.000 A 
ATOM     16  C   UNL     1       3.257   6.234  18.952  0.00  0.00    +0.000 A 
ATOM     17  C   UNL     1       3.467   6.950  17.761  0.00  0.00    +0.000 A 
ATOM     18  C   UNL     1       2.779   8.147  17.487  0.00  0.00    +0.000 A 
BRANCH  16  19
ATOM     19  N   UNL     1       3.906   4.969  19.217  0.00  0.00    +0.000 N 
ATOM     20  C   UNL     1       5.366   4.914  19.245  0.00  0.00    +0.000 C 
ATOM     21  C   UNL     1       3.157   3.780  19.383  0.00  0.00    +0.000 C 
ATOM     22  O   UNL     1       1.928   3.703  19.324  0.00  0.00    +0.000 OA
BRANCH  21  23
ATOM     23  C   UNL     1       3.962   2.498  19.591  0.00  0.00    +0.000 C 
ATOM     24  C   UNL     1       3.696   1.473  18.496  0.00  0.00    +0.000 C 
ENDBRANCH  21  23
ENDBRANCH  16  19
ENDBRANCH   4  13
BRANCH   1  25
ATOM     25  N   UNL     1      -2.769  12.438  18.684  0.00  0.00    +0.000 N 
ATOM     26  H   UNL     1      -2.630  13.435  18.829  0.00  0.00    +0.000 HD
BRANCH  25  33
ATOM     27  C   UNL     1      -6.828  12.769  21.361  0.00  0.00    +0.000 C 
ATOM     28  O   UNL     1      -7.915  12.238  21.582  0.00  0.00    +0.000 OA
ATOM     29  N   UNL     1      -6.241  12.800  20.108  0.00  0.00    +0.000 N 
ATOM     30  C   UNL     1      -7.013  12.321  18.965  0.00  0.00    +0.000 C 
ATOM     31  C   UNL     1      -6.342  11.110  18.336  0.00  0.00    +0.000 C 
ATOM     32  C   UNL     1      -4.904  11.431  17.943  0.00  0.00    +0.000 C 
ATOM     33  C   UNL     1      -4.085  11.963  19.140  0.00  0.00    +0.000 C 
ATOM     34  C   UNL     1      -4.846  13.143  19.804  0.00  0.00    +0.000 C 
BRANCH  27  36
ATOM     35  C   UNL     1      -5.871  12.812  23.622  0.00  0.00    +0.000 C 
ATOM     36  C   UNL     1      -6.103  13.450  22.468  0.00  0.00    +0.000 C 
ENDBRANCH  27  36
ENDBRANCH  25  33
ENDBRANCH   1  25
TORSDOF 6
ENDMDL
MODEL 7
REMARK VINA RESULT:      -8.5      0.969      1.367
REMARK  Name = 
REMARK  8 active torsions:
REMARK  status: ('A' for Active; 'I' for Inactive)
REMARK    1  A    between atoms: C_2  and  C_3
REMARK    2  A    between atoms: C_9  and  N_10
REMARK    3  A    between atoms: N_10  and  C_11
REMARK    4  A    between atoms: N_14  and  C_15
REMARK    5  A    between atoms: C_18  and  N_19
REMARK    6  A    between atoms: N_19  and  C_20
REMARK    7  A    between atoms: C_21  and  C_23
REMARK    8  A    between atoms: C_23  and  C_24
REMARK                            x       y       z     vdW  Elec       q    Type
REMARK                         _______ _______ _______ _____ _____    ______ ____
ROOT
ATOM      1  C   UNL     1       3.741   3.875  18.694  0.00  0.00    +0.000 A 
ATOM      2  N   UNL     1       3.358   5.062  18.135  0.00  0.00    +0.000 NA
ATOM      3  C   UNL     1       2.420   5.825  18.731  0.00  0.00    +0.000 A 
ATOM      4  N   UNL     1       2.128   7.048  18.108  0.00  0.00    +0.000 N 
ATOM      5  N   UNL     1       1.764   5.511  19.860  0.00  0.00    +0.000 NA
ATOM      6  C   UNL     1       2.183   4.373  20.399  0.00  0.00    +0.000 A 
ATOM      7  N   UNL     1       1.725   3.814  21.557  0.00  0.00    +0.000 N 
ATOM      8  C   UNL     1       2.416   2.654  21.747  0.00  0.00    +0.000 A 
ATOM      9  N   UNL     1       3.295   2.443  20.783  0.00  0.00    +0.000 NA
ATOM     10  C   UNL     1       3.150   3.517  19.924  0.00  0.00    +0.000 A 
ATOM     11  H   UNL     1       2.824   7.194  17.385  0.00  0.00    +0.000 HD
ATOM     12  H   UNL     1       1.002   4.202  22.142  0.00  0.00    +0.000 HD
ENDROOT
BRANCH   4  13
ATOM     13  C   UNL     1       1.782   8.233  18.788  0.00  0.00    +0.000 A 
ATOM     14  C   UNL     1       1.552   9.436  18.120  0.00  0.00    +0.000 A 
ATOM     15  C   UNL     1       1.158  10.587  18.811  0.00  0.00    +0.000 A 
ATOM     16  C   UNL     1       0.935  10.580  20.192  0.00  0.00    +0.000 A 
ATOM     17  C   UNL     1       1.181   9.367  20.860  0.00  0.00    +0.000 A 
ATOM     18  C   UNL     1       1.582   8.210  20.166  0.00  0.00    +0.000 A 
BRANCH  16  19
ATOM     19  N   UNL     1       0.458  11.758  20.882  0.00  0.00    +0.000 N 
ATOM     20  C   UNL     1      -0.886  11.747  21.456  0.00  0.00    +0.000 C 
ATOM     21  C   UNL     1       1.239  12.936  20.951  0.00  0.00    +0.000 C 
ATOM     22  O   UNL     1       2.359  13.073  20.454  0.00  0.00    +0.000 OA
BRANCH  21  23
ATOM     23  C   UNL     1       0.596  14.133  21.649  0.00  0.00    +0.000 C 
ATOM     24  C   UNL     1       0.158  15.205  20.658  0.00  0.00    +0.000 C 
ENDBRANCH  21  23
ENDBRANCH  16  19
ENDBRANCH   4  13
BRANCH   1  25
ATOM     25  N   UNL     1       4.677   3.048  18.056  0.00  0.00    +0.000 N 
ATOM     26  H   UNL     1       4.966   2.351  18.737  0.00  0.00    +0.000 HD
BRANCH  25  33
ATOM     27  C   UNL     1       6.997   4.938  14.208  0.00  0.00    +0.000 C 
ATOM     28  O   UNL     1       8.004   5.552  13.863  0.00  0.00    +0.000 OA
ATOM     29  N   UNL     1       6.356   5.152  15.417  0.00  0.00    +0.000 N 
ATOM     30  C   UNL     1       6.799   6.265  16.252  0.00  0.00    +0.000 C 
ATOM     31  C   UNL     1       7.341   5.754  17.578  0.00  0.00    +0.000 C 
ATOM     32  C   UNL     1       6.302   4.898  18.294  0.00  0.00    +0.000 C 
ATOM     33  C   UNL     1       5.807   3.733  17.409  0.00  0.00    +0.000 C 
ATOM     34  C   UNL     1       5.342   4.289  16.035  0.00  0.00    +0.000 C 
BRANCH  27  36
ATOM     35  C   UNL     1       6.964   3.667  12.107  0.00  0.00    +0.000 C 
ATOM     36  C   UNL     1       6.393   3.935  13.289  0.00  0.00    +0.000 C 
ENDBRANCH  27  36
ENDBRANCH  25  33
ENDBRANCH   1  25
TORSDOF 6
ENDMDL
MODEL 8
REMARK VINA RESULT:      -8.5      3.060      5.564
REMARK  Name = 
REMARK  8 active torsions:
REMARK  status: ('A' for Active; 'I' for Inactive)
REMARK    1  A    between atoms: C_2  and  C_3
REMARK    2  A    between atoms: C_9  and  N_10
REMARK    3  A    between atoms: N_10  and  C_11
REMARK    4  A    between atoms: N_14  and  C_15
REMARK    5  A    between atoms: C_18  and  N_19
REMARK    6  A    between atoms: N_19  and  C_20
REMARK    7  A    between atoms: C_21  and  C_23
REMARK    8  A    between atoms: C_23  and  C_24
REMARK                            x       y       z     vdW  Elec       q    Type
REMARK                         _______ _______ _______ _____ _____    ______ ____
ROOT
ATOM      1  C   UNL     1       1.496   7.962  20.761  0.00  0.00    +0.000 A 
ATOM      2  N   UNL     1       0.856   8.690  21.725  0.00  0.00    +0.000 NA
ATOM      3  C   UNL     1       0.404   9.931  21.455  0.00  0.00    +0.000 A 
ATOM      4  N   UNL     1      -0.283  10.581  22.492  0.00  0.00    +0.000 N 
ATOM      5  N   UNL     1       0.551  10.575  20.285  0.00  0.00    +0.000 NA
ATOM      6  C   UNL     1       1.142   9.830  19.359  0.00  0.00    +0.000 A 
ATOM      7  N   UNL     1       1.402  10.203  18.072  0.00  0.00    +0.000 N 
ATOM      8  C   UNL     1       2.017   9.150  17.463  0.00  0.00    +0.000 A 
ATOM      9  N   UNL     1       2.160   8.123  18.282  0.00  0.00    +0.000 NA
ATOM     10  C   UNL     1       1.618   8.545  19.482  0.00  0.00    +0.000 A 
ATOM     11  H   UNL     1      -0.446   9.896  23.222  0.00  0.00    +0.000 HD
ATOM     12  H   UNL     1       1.178  11.100  17.671  0.00  0.00    +0.000 HD
ENDROOT
BRANCH   4  13
ATOM     13  C   UNL     1      -1.366  11.462  22.308  0.00  0.00    +0.000 A 
ATOM     14  C   UNL     1      -1.647  12.052  21.075  0.00  0.00    +0.000 A 
ATOM     15  C   UNL     1      -2.760  12.883  20.904  0.00  0.00    +0.000 A 
ATOM     16  C   UNL     1      -3.664  13.130  21.942  0.00  0.00    +0.000 A 
ATOM     17  C   UNL     1      -3.367  12.544  23.184  0.00  0.00    +0.000 A 
ATOM     18  C   UNL     1      -2.245  11.711  23.359  0.00  0.00    +0.000 A 
BRANCH  16  19
ATOM     19  N   UNL     1      -4.849  13.932  21.731  0.00  0.00    +0.000 N 
ATOM     20  C   UNL     1      -4.737  15.388  21.780  0.00  0.00    +0.000 C 
ATOM     21  C   UNL     1      -6.118  13.334  21.545  0.00  0.00    +0.000 C 
ATOM     22  O   UNL     1      -6.335  12.121  21.541  0.00  0.00    +0.000 OA
BRANCH  21  23
ATOM     23  C   UNL     1      -7.301  14.290  21.399  0.00  0.00    +0.000 C 
ATOM     24  C   UNL     1      -7.914  14.231  20.006  0.00  0.00    +0.000 C 
ENDBRANCH  21  23
ENDBRANCH  16  19
ENDBRANCH   4  13
BRANCH   1  25
ATOM     25  N   UNL     1       2.017   6.692  21.047  0.00  0.00    +0.000 N 
ATOM     26  H   UNL     1       2.913   6.838  21.505  0.00  0.00    +0.000 HD
BRANCH  25  33
ATOM     27  C   UNL     1       4.361   4.384  17.450  0.00  0.00    +0.000 C 
ATOM     28  O   UNL     1       4.232   3.538  16.567  0.00  0.00    +0.000 OA
ATOM     29  N   UNL     1       3.716   4.306  18.673  0.00  0.00    +0.000 N 
ATOM     30  C   UNL     1       2.974   3.090  18.993  0.00  0.00    +0.000 C 
ATOM     31  C   UNL     1       1.495   3.398  19.169  0.00  0.00    +0.000 C 
ATOM     32  C   UNL     1       1.288   4.474  20.229  0.00  0.00    +0.000 C 
ATOM     33  C   UNL     1       2.090   5.755  19.914  0.00  0.00    +0.000 C 
ATOM     34  C   UNL     1       3.576   5.385  19.658  0.00  0.00    +0.000 C 
BRANCH  27  36
ATOM     35  C   UNL     1       4.973   6.486  16.339  0.00  0.00    +0.000 C 
ATOM     36  C   UNL     1       5.274   5.539  17.237  0.00  0.00    +0.000 C 
ENDBRANCH  27  36
ENDBRANCH  25  33
ENDBRANCH   1  25
TORSDOF 6
ENDMDL
MODEL 9
REMARK VINA RESULT:      -8.4      2.863      9.843
REMARK  Name = 
REMARK  8 active torsions:
REMARK  status: ('A' for Active; 'I' for Inactive)
REMARK    1  A    between atoms: C_2  and  C_3
REMARK    2  A    between atoms: C_9  and  N_10
REMARK    3  A    between atoms: N_10  and  C_11
REMARK    4  A    between atoms: N_14  and  C_15
REMARK    5  A    between atoms: C_18  and  N_19
REMARK    6  A    between atoms: N_19  and  C_20
REMARK    7  A    between atoms: C_21  and  C_23
REMARK    8  A    between atoms: C_23  and  C_24
REMARK                            x       y       z     vdW  Elec       q    Type
REMARK                         _______ _______ _______ _____ _____    ______ ____
ROOT
ATOM      1  C   UNL     1      -1.654  12.317  19.180  0.00  0.00    +0.000 A 
ATOM      2  N   UNL     1      -0.555  11.679  19.684  0.00  0.00    +0.000 NA
ATOM      3  C   UNL     1      -0.358  10.368  19.442  0.00  0.00    +0.000 A 
ATOM      4  N   UNL     1       0.822   9.812  19.961  0.00  0.00    +0.000 N 
ATOM      5  N   UNL     1      -1.185   9.571  18.745  0.00  0.00    +0.000 NA
ATOM      6  C   UNL     1      -2.221  10.227  18.237  0.00  0.00    +0.000 A 
ATOM      7  N   UNL     1      -3.211   9.691  17.463  0.00  0.00    +0.000 N 
ATOM      8  C   UNL     1      -4.075  10.701  17.156  0.00  0.00    +0.000 A 
ATOM      9  N   UNL     1      -3.692  11.852  17.681  0.00  0.00    +0.000 NA
ATOM     10  C   UNL     1      -2.528  11.561  18.370  0.00  0.00    +0.000 A 
ATOM     11  H   UNL     1       1.394  10.578  20.299  0.00  0.00    +0.000 HD
ATOM     12  H   UNL     1      -3.274   8.723  17.190  0.00  0.00    +0.000 HD
ENDROOT
BRANCH   4  13
ATOM     13  C   UNL     1       1.572   8.795  19.339  0.00  0.00    +0.000 A 
ATOM     14  C   UNL     1       2.105   8.938  18.058  0.00  0.00    +0.000 A 
ATOM     15  C   UNL     1       2.891   7.935  17.481  0.00  0.00    +0.000 A 
ATOM     16  C   UNL     1       3.215   6.762  18.170  0.00  0.00    +0.000 A 
ATOM     17  C   UNL     1       2.664   6.618  19.455  0.00  0.00    +0.000 A 
ATOM     18  C   UNL     1       1.869   7.626  20.035  0.00  0.00    +0.000 A 
BRANCH  16  19
ATOM     19  N   UNL     1       4.088   5.767  17.589  0.00  0.00    +0.000 N 
ATOM     20  C   UNL     1       3.605   4.395  17.449  0.00  0.00    +0.000 C 
ATOM     21  C   UNL     1       5.417   6.081  17.218  0.00  0.00    +0.000 C 
ATOM     22  O   UNL     1       5.944   7.188  17.344  0.00  0.00    +0.000 OA
BRANCH  21  23
ATOM     23  C   UNL     1       6.260   4.927  16.679  0.00  0.00    +0.000 C 
ATOM     24  C   UNL     1       7.468   4.640  17.561  0.00  0.00    +0.000 C 
ENDBRANCH  21  23
ENDBRANCH  16  19
ENDBRANCH   4  13
BRANCH   1  25
ATOM     25  N   UNL     1      -1.898  13.667  19.469  0.00  0.00    +0.000 N 
ATOM     26  H   UNL     1      -2.234  14.096  18.611  0.00  0.00    +0.000 HD
BRANCH  25  33
ATOM     27  C   UNL     1       2.361  16.034  19.348  0.00  0.00    +0.000 C 
ATOM     28  O   UNL     1       3.166  16.660  20.034  0.00  0.00    +0.000 OA
ATOM     29  N   UNL     1       0.992  16.087  19.548  0.00  0.00    +0.000 N 
ATOM     30  C   UNL     1       0.467  17.047  20.514  0.00  0.00    +0.000 C 
ATOM     31  C   UNL     1      -0.230  16.327  21.658  0.00  0.00    +0.000 C 
ATOM     32  C   UNL     1      -1.326  15.407  21.133  0.00  0.00    +0.000 C 
ATOM     33  C   UNL     1      -0.786  14.404  20.090  0.00  0.00    +0.000 C 
ATOM     34  C   UNL     1      -0.010  15.174  18.986  0.00  0.00    +0.000 C 
BRANCH  27  36
ATOM     35  C   UNL     1       3.591  15.743  17.242  0.00  0.00    +0.000 C 
ATOM     36  C   UNL     1       2.849  15.200  18.216  0.00  0.00    +0.000 C 
ENDBRANCH  27  36
ENDBRANCH  25  33
ENDBRANCH   1  25
TORSDOF 6
ENDMDL
