MODEL 1
REMARK VINA RESULT:      -6.8      0.000      0.000
REMARK  Name = 
REMARK  7 active torsions:
REMARK  status: ('A' for Active; 'I' for Inactive)
REMARK    1  A    between atoms: C_2  and  O_3
REMARK    2  A    between atoms: C_2  and  C_4
REMARK    3  A    between atoms: C_4  and  C_5
REMARK    4  A    between atoms: C_5  and  C_6
REMARK    5  A    between atoms: C_9  and  C_10
REMARK    6  A    between atoms: C_9  and  S_18
REMARK    7  A    between atoms: S_18  and  C_21
REMARK                            x       y       z     vdW  Elec       q    Type
REMARK                         _______ _______ _______ _____ _____    ______ ____
ROOT
ATOM      1  C   UNL     1      -1.017  10.759  18.077  0.00  0.00    +0.000 C 
ATOM      2  C   UNL     1      -1.641  11.767  19.034  0.00  0.00    +0.000 C 
ATOM      3  C   UNL     1      -0.832  13.046  18.978  0.00  0.00    +0.000 C 
ATOM      4  C   UNL     1       0.682  12.913  19.294  0.00  0.00    +0.000 C 
ATOM      5  C   UNL     1       1.262  11.598  18.639  0.00  0.00    +0.000 C 
ATOM      6  C   UNL     1       0.335  10.360  18.665  0.00  0.00    +0.000 C 
ENDROOT
BRANCH   4   7
ATOM      7  C   UNL     1       1.438  14.187  18.820  0.00  0.00    +0.000 A 
ATOM      8  C   UNL     1       2.731  14.120  18.267  0.00  0.00    +0.000 A 
ATOM      9  C   UNL     1       3.384  15.270  17.815  0.00  0.00    +0.000 A 
ATOM     10  F   UNL     1       4.607  15.163  17.285  0.00  0.00    +0.000 F 
ATOM     11  C   UNL     1       2.791  16.522  17.901  0.00  0.00    +0.000 A 
ATOM     12  C   UNL     1       1.525  16.623  18.456  0.00  0.00    +0.000 A 
ATOM     13  C   UNL     1       0.868  15.477  18.906  0.00  0.00    +0.000 A 
ATOM     14  F   UNL     1      -0.339  15.664  19.449  0.00  0.00    +0.000 F 
ENDBRANCH   4   7
BRANCH   4  15
ATOM     15  S   UNL     1       0.988  12.774  21.115  0.00  0.00    +0.000 S 
ATOM     16  O   UNL     1       1.370  11.410  21.436  0.00  0.00    +0.000 OA
ATOM     17  O   UNL     1       1.864  13.859  21.531  0.00  0.00    +0.000 OA
BRANCH  15  18
ATOM     18  C   UNL     1      -0.571  13.041  21.937  0.00  0.00    +0.000 A 
ATOM     19  C   UNL     1      -1.266  11.947  22.468  0.00  0.00    +0.000 A 
ATOM     20  C   UNL     1      -2.475  12.155  23.131  0.00  0.00    +0.000 A 
ATOM     21  C   UNL     1      -2.966  13.453  23.284  0.00  0.00    +0.000 A 
ATOM     22 CL   UNL     1      -4.460  13.706  24.098  0.00  0.00    +0.000 Cl
ATOM     23  C   UNL     1      -2.251  14.545  22.792  0.00  0.00    +0.000 A 
ATOM     24  C   UNL     1      -1.041  14.344  22.126  0.00  0.00    +0.000 A 
ENDBRANCH  15  18
ENDBRANCH   4  15
BRANCH   1  25
ATOM     25  C   UNL     1      -1.982   9.616  17.740  0.00  0.00    +0.000 C 
BRANCH  25  26
ATOM     26  C   UNL     1      -3.276  10.133  17.082  0.00  0.00    +0.000 C 
BRANCH  26  28
ATOM     27  O   UNL     1      -2.688   9.758  14.766  0.00  0.00    +0.000 OA
ATOM     28  C   UNL     1      -3.100  10.518  15.628  0.00  0.00    +0.000 C 
BRANCH  28  29
ATOM     29  O   UNL     1      -3.490  11.783  15.356  0.00  0.00    +0.000 OA
ATOM     30  H   UNL     1      -4.457  11.907  15.363  0.00  0.00    +0.000 HD
ENDBRANCH  28  29
ENDBRANCH  26  28
ENDBRANCH  25  26
ENDBRANCH   1  25
TORSDOF 7
ENDMDL
MODEL 2
REMARK VINA RESULT:      -6.7      3.991      6.129
REMARK  Name = 
REMARK  7 active torsions:
REMARK  status: ('A' for Active; 'I' for Inactive)
REMARK    1  A    between atoms: C_2  and  O_3
REMARK    2  A    between atoms: C_2  and  C_4
REMARK    3  A    between atoms: C_4  and  C_5
REMARK    4  A    between atoms: C_5  and  C_6
REMARK    5  A    between atoms: C_9  and  C_10
REMARK    6  A    between atoms: C_9  and  S_18
REMARK    7  A    between atoms: S_18  and  C_21
REMARK                            x       y       z     vdW  Elec       q    Type
REMARK                         _______ _______ _______ _____ _____    ______ ____
ROOT
ATOM      1  C   UNL     1      -4.304  12.718  21.830  0.00  0.00    +0.000 C 
ATOM      2  C   UNL     1      -3.490  13.406  20.741  0.00  0.00    +0.000 C 
ATOM      3  C   UNL     1      -2.316  12.517  20.384  0.00  0.00    +0.000 C 
ATOM      4  C   UNL     1      -1.374  12.126  21.554  0.00  0.00    +0.000 C 
ATOM      5  C   UNL     1      -2.218  11.814  22.852  0.00  0.00    +0.000 C 
ATOM      6  C   UNL     1      -3.449  12.717  23.096  0.00  0.00    +0.000 C 
ENDROOT
BRANCH   4   7
ATOM      7  C   UNL     1      -0.477  10.926  21.135  0.00  0.00    +0.000 A 
ATOM      8  C   UNL     1      -0.190  10.650  19.785  0.00  0.00    +0.000 A 
ATOM      9  C   UNL     1       0.645   9.587  19.426  0.00  0.00    +0.000 A 
ATOM     10  F   UNL     1       0.902   9.365  18.133  0.00  0.00    +0.000 F 
ATOM     11  C   UNL     1       1.215   8.759  20.382  0.00  0.00    +0.000 A 
ATOM     12  C   UNL     1       0.939   8.995  21.719  0.00  0.00    +0.000 A 
ATOM     13  C   UNL     1       0.109  10.056  22.082  0.00  0.00    +0.000 A 
ATOM     14  F   UNL     1      -0.126  10.201  23.390  0.00  0.00    +0.000 F 
ENDBRANCH   4   7
BRANCH   4  15
ATOM     15  S   UNL     1      -0.221  13.507  21.993  0.00  0.00    +0.000 S 
ATOM     16  O   UNL     1      -0.559  14.014  23.312  0.00  0.00    +0.000 OA
ATOM     17  O   UNL     1       1.145  13.080  21.740  0.00  0.00    +0.000 OA
BRANCH  15  18
ATOM     18  C   UNL     1      -0.548  14.849  20.866  0.00  0.00    +0.000 A 
ATOM     19  C   UNL     1      -0.063  14.779  19.554  0.00  0.00    +0.000 A 
ATOM     20  C   UNL     1      -0.336  15.817  18.663  0.00  0.00    +0.000 A 
ATOM     21  C   UNL     1      -1.112  16.900  19.079  0.00  0.00    +0.000 A 
ATOM     22 CL   UNL     1      -1.442  18.182  17.980  0.00  0.00    +0.000 Cl
ATOM     23  C   UNL     1      -1.629  16.948  20.374  0.00  0.00    +0.000 A 
ATOM     24  C   UNL     1      -1.359  15.914  21.270  0.00  0.00    +0.000 A 
ENDBRANCH  15  18
ENDBRANCH   4  15
BRANCH   1  25
ATOM     25  C   UNL     1      -5.712  13.310  21.953  0.00  0.00    +0.000 C 
BRANCH  25  26
ATOM     26  C   UNL     1      -6.052  13.685  23.409  0.00  0.00    +0.000 C 
BRANCH  26  28
ATOM     27  O   UNL     1      -7.431  11.718  23.691  0.00  0.00    +0.000 OA
ATOM     28  C   UNL     1      -7.196  12.879  23.987  0.00  0.00    +0.000 C 
BRANCH  28  29
ATOM     29  O   UNL     1      -7.916  13.555  24.909  0.00  0.00    +0.000 OA
ATOM     30  H   UNL     1      -7.847  13.187  25.810  0.00  0.00    +0.000 HD
ENDBRANCH  28  29
ENDBRANCH  26  28
ENDBRANCH  25  26
ENDBRANCH   1  25
TORSDOF 7
ENDMDL
MODEL 3
REMARK VINA RESULT:      -6.7      0.888      1.573
REMARK  Name = 
REMARK  7 active torsions:
REMARK  status: ('A' for Active; 'I' for Inactive)
REMARK    1  A    between atoms: C_2  and  O_3
REMARK    2  A    between atoms: C_2  and  C_4
REMARK    3  A    between atoms: C_4  and  C_5
REMARK    4  A    between atoms: C_5  and  C_6
REMARK    5  A    between atoms: C_9  and  C_10
REMARK    6  A    between atoms: C_9  and  S_18
REMARK    7  A    between atoms: S_18  and  C_21
REMARK                            x       y       z     vdW  Elec       q    Type
REMARK                         _______ _______ _______ _____ _____    ______ ____
ROOT
ATOM      1  C   UNL     1      -1.490  11.056  18.100  0.00  0.00    +0.000 C 
ATOM      2  C   UNL     1      -1.898  12.071  19.160  0.00  0.00    +0.000 C 
ATOM      3  C   UNL     1      -0.934  13.239  19.102  0.00  0.00    +0.000 C 
ATOM      4  C   UNL     1       0.569  12.895  19.278  0.00  0.00    +0.000 C 
ATOM      5  C   UNL     1       0.917  11.562  18.505  0.00  0.00    +0.000 C 
ATOM      6  C   UNL     1      -0.159  10.452  18.545  0.00  0.00    +0.000 C 
ENDROOT
BRANCH   4   7
ATOM      7  C   UNL     1       1.446  14.091  18.809  0.00  0.00    +0.000 A 
ATOM      8  C   UNL     1       0.996  15.421  18.899  0.00  0.00    +0.000 A 
ATOM      9  C   UNL     1       1.809  16.488  18.504  0.00  0.00    +0.000 A 
ATOM     10  F   UNL     1       1.348  17.738  18.616  0.00  0.00    +0.000 F 
ATOM     11  C   UNL     1       3.085  16.279  18.001  0.00  0.00    +0.000 A 
ATOM     12  C   UNL     1       3.551  14.980  17.885  0.00  0.00    +0.000 A 
ATOM     13  C   UNL     1       2.745  13.912  18.281  0.00  0.00    +0.000 A 
ATOM     14  F   UNL     1       3.260  12.690  18.114  0.00  0.00    +0.000 F 
ENDBRANCH   4   7
BRANCH   4  15
ATOM     15  S   UNL     1       0.998  12.601  21.056  0.00  0.00    +0.000 S 
ATOM     16  O   UNL     1       1.360  11.206  21.238  0.00  0.00    +0.000 OA
ATOM     17  O   UNL     1       1.933  13.627  21.491  0.00  0.00    +0.000 OA
BRANCH  15  18
ATOM     18  C   UNL     1      -0.490  12.839  22.007  0.00  0.00    +0.000 A 
ATOM     19  C   UNL     1      -1.208  11.722  22.453  0.00  0.00    +0.000 A 
ATOM     20  C   UNL     1      -2.361  11.905  23.216  0.00  0.00    +0.000 A 
ATOM     21  C   UNL     1      -2.772  13.196  23.552  0.00  0.00    +0.000 A 
ATOM     22 CL   UNL     1      -4.197  13.418  24.489  0.00  0.00    +0.000 Cl
ATOM     23  C   UNL     1      -2.032  14.305  23.143  0.00  0.00    +0.000 A 
ATOM     24  C   UNL     1      -0.878  14.130  22.377  0.00  0.00    +0.000 A 
ENDBRANCH  15  18
ENDBRANCH   4  15
BRANCH   1  25
ATOM     25  C   UNL     1      -2.620  10.069  17.787  0.00  0.00    +0.000 C 
BRANCH  25  26
ATOM     26  C   UNL     1      -2.577   9.592  16.322  0.00  0.00    +0.000 C 
BRANCH  26  28
ATOM     27  O   UNL     1      -3.454  10.287  14.177  0.00  0.00    +0.000 OA
ATOM     28  C   UNL     1      -3.301  10.517  15.366  0.00  0.00    +0.000 C 
BRANCH  28  29
ATOM     29  O   UNL     1      -3.812  11.616  15.966  0.00  0.00    +0.000 OA
ATOM     30  H   UNL     1      -3.881  11.539  16.936  0.00  0.00    +0.000 HD
ENDBRANCH  28  29
ENDBRANCH  26  28
ENDBRANCH  25  26
ENDBRANCH   1  25
TORSDOF 7
ENDMDL
MODEL 4
REMARK VINA RESULT:      -6.7      0.876      1.025
REMARK  Name = 
REMARK  7 active torsions:
REMARK  status: ('A' for Active; 'I' for Inactive)
REMARK    1  A    between atoms: C_2  and  O_3
REMARK    2  A    between atoms: C_2  and  C_4
REMARK    3  A    between atoms: C_4  and  C_5
REMARK    4  A    between atoms: C_5  and  C_6
REMARK    5  A    between atoms: C_9  and  C_10
REMARK    6  A    between atoms: C_9  and  S_18
REMARK    7  A    between atoms: S_18  and  C_21
REMARK                            x       y       z     vdW  Elec       q    Type
REMARK                         _______ _______ _______ _____ _____    ______ ____
ROOT
ATOM      1  C   UNL     1      -1.323  10.982  18.179  0.00  0.00    +0.000 C 
ATOM      2  C   UNL     1      -1.824  11.984  19.211  0.00  0.00    +0.000 C 
ATOM      3  C   UNL     1      -0.950  13.219  19.145  0.00  0.00    +0.000 C 
ATOM      4  C   UNL     1       0.572  12.992  19.351  0.00  0.00    +0.000 C 
ATOM      5  C   UNL     1       1.031  11.675  18.611  0.00  0.00    +0.000 C 
ATOM      6  C   UNL     1       0.041  10.488  18.658  0.00  0.00    +0.000 C 
ENDROOT
BRANCH   4   7
ATOM      7  C   UNL     1       1.365  14.242  18.871  0.00  0.00    +0.000 A 
ATOM      8  C   UNL     1       2.618  14.128  18.240  0.00  0.00    +0.000 A 
ATOM      9  C   UNL     1       3.303  15.258  17.785  0.00  0.00    +0.000 A 
ATOM     10  F   UNL     1       4.486  15.107  17.180  0.00  0.00    +0.000 F 
ATOM     11  C   UNL     1       2.782  16.535  17.944  0.00  0.00    +0.000 A 
ATOM     12  C   UNL     1       1.558  16.681  18.576  0.00  0.00    +0.000 A 
ATOM     13  C   UNL     1       0.869  15.556  19.029  0.00  0.00    +0.000 A 
ATOM     14  F   UNL     1      -0.293  15.785  19.649  0.00  0.00    +0.000 F 
ENDBRANCH   4   7
BRANCH   4  15
ATOM     15  S   UNL     1       0.992  12.766  21.141  0.00  0.00    +0.000 S 
ATOM     16  O   UNL     1       1.504  11.423  21.347  0.00  0.00    +0.000 OA
ATOM     17  O   UNL     1       1.795  13.895  21.583  0.00  0.00    +0.000 OA
BRANCH  15  18
ATOM     18  C   UNL     1      -0.535  12.844  22.057  0.00  0.00    +0.000 A 
ATOM     19  C   UNL     1      -1.125  11.658  22.513  0.00  0.00    +0.000 A 
ATOM     20  C   UNL     1      -2.308  11.717  23.250  0.00  0.00    +0.000 A 
ATOM     21  C   UNL     1      -2.876  12.956  23.549  0.00  0.00    +0.000 A 
ATOM     22 CL   UNL     1      -4.338  13.025  24.454  0.00  0.00    +0.000 Cl
ATOM     23  C   UNL     1      -2.264  14.138  23.131  0.00  0.00    +0.000 A 
ATOM     24  C   UNL     1      -1.081  14.086  22.392  0.00  0.00    +0.000 A 
ENDBRANCH  15  18
ENDBRANCH   4  15
BRANCH   1  25
ATOM     25  C   UNL     1      -2.371   9.907  17.869  0.00  0.00    +0.000 C 
BRANCH  25  26
ATOM     26  C   UNL     1      -3.334  10.349  16.750  0.00  0.00    +0.000 C 
BRANCH  26  28
ATOM     27  O   UNL     1      -5.309  10.645  18.115  0.00  0.00    +0.000 OA
ATOM     28  C   UNL     1      -4.555  11.085  17.262  0.00  0.00    +0.000 C 
BRANCH  28  29
ATOM     29  O   UNL     1      -4.713  12.310  16.713  0.00  0.00    +0.000 OA
ATOM     30  H   UNL     1      -5.378  12.861  17.166  0.00  0.00    +0.000 HD
ENDBRANCH  28  29
ENDBRANCH  26  28
ENDBRANCH  25  26
ENDBRANCH   1  25
TORSDOF 7
ENDMDL
MODEL 5
REMARK VINA RESULT:      -6.6      8.071     10.298
REMARK  Name = 
REMARK  7 active torsions:
REMARK  status: ('A' for Active; 'I' for Inactive)
REMARK    1  A    between atoms: C_2  and  O_3
REMARK    2  A    between atoms: C_2  and  C_4
REMARK    3  A    between atoms: C_4  and  C_5
REMARK    4  A    between atoms: C_5  and  C_6
REMARK    5  A    between atoms: C_9  and  C_10
REMARK    6  A    between atoms: C_9  and  S_18
REMARK    7  A    between atoms: S_18  and  C_21
REMARK                            x       y       z     vdW  Elec       q    Type
REMARK                         _______ _______ _______ _____ _____    ______ ____
ROOT
ATOM      1  C   UNL     1       2.692   2.760  18.319  0.00  0.00    +0.000 C 
ATOM      2  C   UNL     1       2.289   4.109  17.738  0.00  0.00    +0.000 C 
ATOM      3  C   UNL     1       3.146   4.382  16.519  0.00  0.00    +0.000 C 
ATOM      4  C   UNL     1       4.682   4.363  16.743  0.00  0.00    +0.000 C 
ATOM      5  C   UNL     1       5.074   3.186  17.721  0.00  0.00    +0.000 C 
ATOM      6  C   UNL     1       4.100   2.921  18.892  0.00  0.00    +0.000 C 
ENDROOT
BRANCH   4   7
ATOM      7  C   UNL     1       5.417   4.260  15.376  0.00  0.00    +0.000 A 
ATOM      8  C   UNL     1       4.719   4.052  14.172  0.00  0.00    +0.000 A 
ATOM      9  C   UNL     1       5.391   3.995  12.947  0.00  0.00    +0.000 A 
ATOM     10  F   UNL     1       4.690   3.807  11.824  0.00  0.00    +0.000 F 
ATOM     11  C   UNL     1       6.770   4.132  12.870  0.00  0.00    +0.000 A 
ATOM     12  C   UNL     1       7.487   4.322  14.040  0.00  0.00    +0.000 A 
ATOM     13  C   UNL     1       6.820   4.382  15.264  0.00  0.00    +0.000 A 
ATOM     14  F   UNL     1       7.588   4.544  16.347  0.00  0.00    +0.000 F 
ENDBRANCH   4   7
BRANCH   4  15
ATOM     15  S   UNL     1       5.275   5.927  17.536  0.00  0.00    +0.000 S 
ATOM     16  O   UNL     1       6.086   5.600  18.696  0.00  0.00    +0.000 OA
ATOM     17  O   UNL     1       5.841   6.791  16.511  0.00  0.00    +0.000 OA
BRANCH  15  18
ATOM     18  C   UNL     1       3.843   6.774  18.175  0.00  0.00    +0.000 A 
ATOM     19  C   UNL     1       3.362   6.448  19.450  0.00  0.00    +0.000 A 
ATOM     20  C   UNL     1       2.255   7.125  19.962  0.00  0.00    +0.000 A 
ATOM     21  C   UNL     1       1.656   8.138  19.213  0.00  0.00    +0.000 A 
ATOM     22 CL   UNL     1       0.287   8.967  19.845  0.00  0.00    +0.000 Cl
ATOM     23  C   UNL     1       2.162   8.490  17.961  0.00  0.00    +0.000 A 
ATOM     24  C   UNL     1       3.268   7.816  17.442  0.00  0.00    +0.000 A 
ENDBRANCH  15  18
ENDBRANCH   4  15
BRANCH   1  25
ATOM     25  C   UNL     1       1.625   2.204  19.269  0.00  0.00    +0.000 C 
BRANCH  25  26
ATOM     26  C   UNL     1       1.058   3.295  20.197  0.00  0.00    +0.000 C 
BRANCH  26  28
ATOM     27  O   UNL     1       2.469   4.211  21.935  0.00  0.00    +0.000 OA
ATOM     28  C   UNL     1       1.714   3.327  21.561  0.00  0.00    +0.000 C 
BRANCH  28  29
ATOM     29  O   UNL     1       1.349   2.298  22.357  0.00  0.00    +0.000 OA
ATOM     30  H   UNL     1       0.571   1.807  22.033  0.00  0.00    +0.000 HD
ENDBRANCH  28  29
ENDBRANCH  26  28
ENDBRANCH  25  26
ENDBRANCH   1  25
TORSDOF 7
ENDMDL
MODEL 6
REMARK VINA RESULT:      -6.6      8.368     10.530
REMARK  Name = 
REMARK  7 active torsions:
REMARK  status: ('A' for Active; 'I' for Inactive)
REMARK    1  A    between atoms: C_2  and  O_3
REMARK    2  A    between atoms: C_2  and  C_4
REMARK    3  A    between atoms: C_4  and  C_5
REMARK    4  A    between atoms: C_5  and  C_6
REMARK    5  A    between atoms: C_9  and  C_10
REMARK    6  A    between atoms: C_9  and  S_18
REMARK    7  A    between atoms: S_18  and  C_21
REMARK                            x       y       z     vdW  Elec       q    Type
REMARK                         _______ _______ _______ _____ _____    ______ ____
ROOT
ATOM      1  C   UNL     1       3.885   2.832  18.305  0.00  0.00    +0.000 C 
ATOM      2  C   UNL     1       3.030   3.853  17.565  0.00  0.00    +0.000 C 
ATOM      3  C   UNL     1       3.639   4.091  16.199  0.00  0.00    +0.000 C 
ATOM      4  C   UNL     1       5.120   4.558  16.182  0.00  0.00    +0.000 C 
ATOM      5  C   UNL     1       5.949   3.780  17.278  0.00  0.00    +0.000 C 
ATOM      6  C   UNL     1       5.221   3.505  18.614  0.00  0.00    +0.000 C 
ENDROOT
BRANCH   4   7
ATOM      7  C   UNL     1       5.717   4.379  14.757  0.00  0.00    +0.000 A 
ATOM      8  C   UNL     1       4.980   3.792  13.712  0.00  0.00    +0.000 A 
ATOM      9  C   UNL     1       5.518   3.668  12.428  0.00  0.00    +0.000 A 
ATOM     10  F   UNL     1       4.781   3.115  11.459  0.00  0.00    +0.000 F 
ATOM     11  C   UNL     1       6.801   4.109  12.134  0.00  0.00    +0.000 A 
ATOM     12  C   UNL     1       7.558   4.677  13.146  0.00  0.00    +0.000 A 
ATOM     13  C   UNL     1       7.024   4.805  14.428  0.00  0.00    +0.000 A 
ATOM     14  F   UNL     1       7.828   5.342  15.352  0.00  0.00    +0.000 F 
ENDBRANCH   4   7
BRANCH   4  15
ATOM     15  S   UNL     1       5.271   6.359  16.586  0.00  0.00    +0.000 S 
ATOM     16  O   UNL     1       6.524   6.591  17.284  0.00  0.00    +0.000 OA
ATOM     17  O   UNL     1       4.985   7.137  15.391  0.00  0.00    +0.000 OA
BRANCH  15  18
ATOM     18  C   UNL     1       3.989   6.749  17.761  0.00  0.00    +0.000 A 
ATOM     19  C   UNL     1       4.089   6.271  19.074  0.00  0.00    +0.000 A 
ATOM     20  C   UNL     1       3.099   6.593  20.002  0.00  0.00    +0.000 A 
ATOM     21  C   UNL     1       2.033   7.410  19.621  0.00  0.00    +0.000 A 
ATOM     22 CL   UNL     1       0.810   7.801  20.766  0.00  0.00    +0.000 Cl
ATOM     23  C   UNL     1       1.957   7.919  18.324  0.00  0.00    +0.000 A 
ATOM     24  C   UNL     1       2.944   7.600  17.391  0.00  0.00    +0.000 A 
ENDBRANCH  15  18
ENDBRANCH   4  15
BRANCH   1  25
ATOM     25  C   UNL     1       3.139   2.211  19.491  0.00  0.00    +0.000 C 
BRANCH  25  26
ATOM     26  C   UNL     1       2.849   3.249  20.593  0.00  0.00    +0.000 C 
BRANCH  26  28
ATOM     27  O   UNL     1       1.264   2.595  22.300  0.00  0.00    +0.000 OA
ATOM     28  C   UNL     1       1.473   3.104  21.210  0.00  0.00    +0.000 C 
BRANCH  28  29
ATOM     29  O   UNL     1       0.488   3.638  20.456  0.00  0.00    +0.000 OA
ATOM     30  H   UNL     1       0.125   4.470  20.813  0.00  0.00    +0.000 HD
ENDBRANCH  28  29
ENDBRANCH  26  28
ENDBRANCH  25  26
ENDBRANCH   1  25
TORSDOF 7
ENDMDL
MODEL 7
REMARK VINA RESULT:      -6.6      0.994      1.959
REMARK  Name = 
REMARK  7 active torsions:
REMARK  status: ('A' for Active; 'I' for Inactive)
REMARK    1  A    between atoms: C_2  and  O_3
REMARK    2  A    between atoms: C_2  and  C_4
REMARK    3  A    between atoms: C_4  and  C_5
REMARK    4  A    between atoms: C_5  and  C_6
REMARK    5  A    between atoms: C_9  and  C_10
REMARK    6  A    between atoms: C_9  and  S_18
REMARK    7  A    between atoms: S_18  and  C_21
REMARK                            x       y       z     vdW  Elec       q    Type
REMARK                         _______ _______ _______ _____ _____    ______ ____
ROOT
ATOM      1  C   UNL     1      -1.572  10.709  17.897  0.00  0.00    +0.000 C 
ATOM      2  C   UNL     1      -1.980  11.634  19.037  0.00  0.00    +0.000 C 
ATOM      3  C   UNL     1      -1.043  12.825  19.047  0.00  0.00    +0.000 C 
ATOM      4  C   UNL     1       0.471  12.503  19.168  0.00  0.00    +0.000 C 
ATOM      5  C   UNL     1       0.831  11.239  18.293  0.00  0.00    +0.000 C 
ATOM      6  C   UNL     1      -0.220  10.105  18.272  0.00  0.00    +0.000 C 
ENDROOT
BRANCH   4   7
ATOM      7  C   UNL     1       1.312  13.750  18.772  0.00  0.00    +0.000 A 
ATOM      8  C   UNL     1       0.821  15.059  18.933  0.00  0.00    +0.000 A 
ATOM      9  C   UNL     1       1.602  16.171  18.604  0.00  0.00    +0.000 A 
ATOM     10  F   UNL     1       1.102  17.398  18.782  0.00  0.00    +0.000 F 
ATOM     11  C   UNL     1       2.886  16.029  18.097  0.00  0.00    +0.000 A 
ATOM     12  C   UNL     1       3.392  14.753  17.911  0.00  0.00    +0.000 A 
ATOM     13  C   UNL     1       2.617  13.641  18.241  0.00  0.00    +0.000 A 
ATOM     14  F   UNL     1       3.171  12.446  18.010  0.00  0.00    +0.000 F 
ENDBRANCH   4   7
BRANCH   4  15
ATOM     15  S   UNL     1       0.942  12.091  20.911  0.00  0.00    +0.000 S 
ATOM     16  O   UNL     1       0.981  10.647  21.069  0.00  0.00    +0.000 OA
ATOM     17  O   UNL     1       2.119  12.863  21.277  0.00  0.00    +0.000 OA
BRANCH  15  18
ATOM     18  C   UNL     1      -0.379  12.654  21.966  0.00  0.00    +0.000 A 
ATOM     19  C   UNL     1      -0.526  14.025  22.213  0.00  0.00    +0.000 A 
ATOM     20  C   UNL     1      -1.572  14.470  23.020  0.00  0.00    +0.000 A 
ATOM     21  C   UNL     1      -2.478  13.550  23.550  0.00  0.00    +0.000 A 
ATOM     22 CL   UNL     1      -3.765  14.102  24.550  0.00  0.00    +0.000 Cl
ATOM     23  C   UNL     1      -2.355  12.189  23.268  0.00  0.00    +0.000 A 
ATOM     24  C   UNL     1      -1.310  11.737  22.463  0.00  0.00    +0.000 A 
ENDBRANCH  15  18
ENDBRANCH   4  15
BRANCH   1  25
ATOM     25  C   UNL     1      -2.688   9.722  17.534  0.00  0.00    +0.000 C 
BRANCH  25  26
ATOM     26  C   UNL     1      -2.756   9.466  16.016  0.00  0.00    +0.000 C 
BRANCH  26  28
ATOM     27  O   UNL     1      -4.219  11.382  15.815  0.00  0.00    +0.000 OA
ATOM     28  C   UNL     1      -3.631  10.457  15.278  0.00  0.00    +0.000 C 
BRANCH  28  29
ATOM     29  O   UNL     1      -3.668  10.250  13.943  0.00  0.00    +0.000 OA
ATOM     30  H   UNL     1      -3.930  11.037  13.429  0.00  0.00    +0.000 HD
ENDBRANCH  28  29
ENDBRANCH  26  28
ENDBRANCH  25  26
ENDBRANCH   1  25
TORSDOF 7
ENDMDL
MODEL 8
REMARK VINA RESULT:      -6.5      3.453      5.502
REMARK  Name = 
REMARK  7 active torsions:
REMARK  status: ('A' for Active; 'I' for Inactive)
REMARK    1  A    between atoms: C_2  and  O_3
REMARK    2  A    between atoms: C_2  and  C_4
REMARK    3  A    between atoms: C_4  and  C_5
REMARK    4  A    between atoms: C_5  and  C_6
REMARK    5  A    between atoms: C_9  and  C_10
REMARK    6  A    between atoms: C_9  and  S_18
REMARK    7  A    between atoms: S_18  and  C_21
REMARK                            x       y       z     vdW  Elec       q    Type
REMARK                         _______ _______ _______ _____ _____    ______ ____
ROOT
ATOM      1  C   UNL     1      -2.324  10.619  17.455  0.00  0.00    +0.000 C 
ATOM      2  C   UNL     1      -1.610   9.746  18.480  0.00  0.00    +0.000 C 
ATOM      3  C   UNL     1      -1.629  10.461  19.816  0.00  0.00    +0.000 C 
ATOM      4  C   UNL     1      -1.010  11.884  19.839  0.00  0.00    +0.000 C 
ATOM      5  C   UNL     1      -1.409  12.673  18.530  0.00  0.00    +0.000 C 
ATOM      6  C   UNL     1      -1.446  11.847  17.223  0.00  0.00    +0.000 C 
ENDROOT
BRANCH   4   7
ATOM      7  C   UNL     1      -1.447  12.632  21.131  0.00  0.00    +0.000 A 
ATOM      8  C   UNL     1      -2.214  12.004  22.129  0.00  0.00    +0.000 A 
ATOM      9  C   UNL     1      -2.571  12.679  23.300  0.00  0.00    +0.000 A 
ATOM     10  F   UNL     1      -3.291  12.043  24.229  0.00  0.00    +0.000 F 
ATOM     11  C   UNL     1      -2.192  13.996  23.521  0.00  0.00    +0.000 A 
ATOM     12  C   UNL     1      -1.450  14.648  22.550  0.00  0.00    +0.000 A 
ATOM     13  C   UNL     1      -1.089  13.976  21.381  0.00  0.00    +0.000 A 
ATOM     14  F   UNL     1      -0.393  14.684  20.485  0.00  0.00    +0.000 F 
ENDBRANCH   4   7
BRANCH   4  15
ATOM     15  S   UNL     1       0.840  11.822  19.875  0.00  0.00    +0.000 S 
ATOM     16  O   UNL     1       1.370  12.688  18.835  0.00  0.00    +0.000 OA
ATOM     17  O   UNL     1       1.293  12.019  21.243  0.00  0.00    +0.000 OA
BRANCH  15  18
ATOM     18  C   UNL     1       1.325  10.169  19.416  0.00  0.00    +0.000 A 
ATOM     19  C   UNL     1       1.740   9.913  18.103  0.00  0.00    +0.000 A 
ATOM     20  C   UNL     1       2.141   8.626  17.746  0.00  0.00    +0.000 A 
ATOM     21  C   UNL     1       2.152   7.613  18.707  0.00  0.00    +0.000 A 
ATOM     22 CL   UNL     1       2.642   6.025  18.263  0.00  0.00    +0.000 Cl
ATOM     23  C   UNL     1       1.778   7.880  20.024  0.00  0.00    +0.000 A 
ATOM     24  C   UNL     1       1.374   9.166  20.387  0.00  0.00    +0.000 A 
ENDBRANCH  15  18
ENDBRANCH   4  15
BRANCH   1  25
ATOM     25  C   UNL     1      -2.732   9.823  16.210  0.00  0.00    +0.000 C 
BRANCH  25  26
ATOM     26  C   UNL     1      -3.089  10.746  15.029  0.00  0.00    +0.000 C 
BRANCH  26  28
ATOM     27  O   UNL     1      -4.563   9.682  13.435  0.00  0.00    +0.000 OA
ATOM     28  C   UNL     1      -3.429   9.996  13.759  0.00  0.00    +0.000 C 
BRANCH  28  29
ATOM     29  O   UNL     1      -2.354   9.741  12.982  0.00  0.00    +0.000 OA
ATOM     30  H   UNL     1      -2.021  10.522  12.501  0.00  0.00    +0.000 HD
ENDBRANCH  28  29
ENDBRANCH  26  28
ENDBRANCH  25  26
ENDBRANCH   1  25
TORSDOF 7
ENDMDL
MODEL 9
REMARK VINA RESULT:      -6.5      0.937      1.921
REMARK  Name = 
REMARK  7 active torsions:
REMARK  status: ('A' for Active; 'I' for Inactive)
REMARK    1  A    between atoms: C_2  and  O_3
REMARK    2  A    between atoms: C_2  and  C_4
REMARK    3  A    between atoms: C_4  and  C_5
REMARK    4  A    between atoms: C_5  and  C_6
REMARK    5  A    between atoms: C_9  and  C_10
REMARK    6  A    between atoms: C_9  and  S_18
REMARK    7  A    between atoms: S_18  and  C_21
REMARK                            x       y       z     vdW  Elec       q    Type
REMARK                         _______ _______ _______ _____ _____    ______ ____
ROOT
ATOM      1  C   UNL     1      -0.989  10.873  18.051  0.00  0.00    +0.000 C 
ATOM      2  C   UNL     1      -1.819  11.682  19.040  0.00  0.00    +0.000 C 
ATOM      3  C   UNL     1      -1.227  13.073  19.139  0.00  0.00    +0.000 C 
ATOM      4  C   UNL     1       0.269  13.152  19.546  0.00  0.00    +0.000 C 
ATOM      5  C   UNL     1       1.089  12.008  18.829  0.00  0.00    +0.000 C 
ATOM      6  C   UNL     1       0.377  10.642  18.696  0.00  0.00    +0.000 C 
ENDROOT
BRANCH   4   7
ATOM      7  C   UNL     1       0.832  14.567  19.226  0.00  0.00    +0.000 A 
ATOM      8  C   UNL     1      -0.013  15.676  19.034  0.00  0.00    +0.000 A 
ATOM      9  C   UNL     1       0.509  16.947  18.780  0.00  0.00    +0.000 A 
ATOM     10  F   UNL     1      -0.327  17.978  18.615  0.00  0.00    +0.000 F 
ATOM     11  C   UNL     1       1.877  17.166  18.697  0.00  0.00    +0.000 A 
ATOM     12  C   UNL     1       2.735  16.091  18.865  0.00  0.00    +0.000 A 
ATOM     13  C   UNL     1       2.218  14.821  19.122  0.00  0.00    +0.000 A 
ATOM     14  F   UNL     1       3.112  13.834  19.248  0.00  0.00    +0.000 F 
ENDBRANCH   4   7
BRANCH   4  15
ATOM     15  S   UNL     1       0.495  12.903  21.367  0.00  0.00    +0.000 S 
ATOM     16  O   UNL     1       0.845  11.516  21.622  0.00  0.00    +0.000 OA
ATOM     17  O   UNL     1       1.366  13.947  21.881  0.00  0.00    +0.000 OA
BRANCH  15  18
ATOM     18  C   UNL     1      -1.094  13.146  22.137  0.00  0.00    +0.000 A 
ATOM     19  C   UNL     1      -1.645  14.433  22.188  0.00  0.00    +0.000 A 
ATOM     20  C   UNL     1      -2.898  14.623  22.771  0.00  0.00    +0.000 A 
ATOM     21  C   UNL     1      -3.602  13.527  23.270  0.00  0.00    +0.000 A 
ATOM     22 CL   UNL     1      -5.145  13.765  23.993  0.00  0.00    +0.000 Cl
ATOM     23  C   UNL     1      -3.070  12.240  23.180  0.00  0.00    +0.000 A 
ATOM     24  C   UNL     1      -1.817  12.043  22.600  0.00  0.00    +0.000 A 
ENDBRANCH  15  18
ENDBRANCH   4  15
BRANCH   1  25
ATOM     25  C   UNL     1      -1.735   9.627  17.561  0.00  0.00    +0.000 C 
BRANCH  25  26
ATOM     26  C   UNL     1      -3.119   9.979  16.980  0.00  0.00    +0.000 C 
BRANCH  26  28
ATOM     27  O   UNL     1      -2.789   9.741  14.596  0.00  0.00    +0.000 OA
ATOM     28  C   UNL     1      -3.066  10.457  15.545  0.00  0.00    +0.000 C 
BRANCH  28  29
ATOM     29  O   UNL     1      -3.402  11.758  15.400  0.00  0.00    +0.000 OA
ATOM     30  H   UNL     1      -3.569  12.021  14.475  0.00  0.00    +0.000 HD
ENDBRANCH  28  29
ENDBRANCH  26  28
ENDBRANCH  25  26
ENDBRANCH   1  25
TORSDOF 7
ENDMDL
