MODEL 1
REMARK VINA RESULT:      -8.3      0.000      0.000
REMARK  Name = 
REMARK  7 active torsions:
REMARK  status: ('A' for Active; 'I' for Inactive)
REMARK    1  A    between atoms: C_1  and  O_2
REMARK    2  A    between atoms: O_2  and  C_3
REMARK    3  A    between atoms: C_6  and  C_7
REMARK    4  A    between atoms: C_17  and  C_18
REMARK    5  A    between atoms: C_25  and  C_26
REMARK    6  A    between atoms: C_33  and  C_34
REMARK    7  A    between atoms: C_34  and  O_35
REMARK                            x       y       z     vdW  Elec       q    Type
REMARK                         _______ _______ _______ _____ _____    ______ ____
ROOT
ATOM      1  C   UNL     1       1.522   9.417  18.921  0.00  0.00    +0.000 A 
ATOM      2  C   UNL     1       0.888   8.605  19.834  0.00  0.00    +0.000 A 
ATOM      3  C   UNL     1       1.279   7.276  19.900  0.00  0.00    +0.000 A 
ATOM      4  C   UNL     1       2.326   6.758  19.087  0.00  0.00    +0.000 A 
ATOM      5  C   UNL     1       2.867   5.451  19.043  0.00  0.00    +0.000 A 
ATOM      6  N   UNL     1       2.502   4.388  19.870  0.00  0.00    +0.000 N 
ATOM      7  C   UNL     1       1.904   4.629  21.196  0.00  0.00    +0.000 C 
ATOM      8  C   UNL     1       2.063   3.414  22.111  0.00  0.00    +0.000 C 
ATOM      9  O   UNL     1       1.449   2.264  21.519  0.00  0.00    +0.000 OA
ATOM     10  C   UNL     1       2.086   1.970  20.266  0.00  0.00    +0.000 C 
ATOM     11  C   UNL     1       1.961   3.136  19.247  0.00  0.00    +0.000 C 
ATOM     12  C   UNL     1       2.626   2.682  17.950  0.00  0.00    +0.000 C 
ATOM     13  N   UNL     1       3.874   5.173  18.186  0.00  0.00    +0.000 NA
ATOM     14  C   UNL     1       4.309   6.105  17.333  0.00  0.00    +0.000 A 
ATOM     15  N   UNL     1       5.311   5.813  16.439  0.00  0.00    +0.000 N 
ATOM     16  C   UNL     1       5.356   6.521  15.168  0.00  0.00    +0.000 C 
ATOM     17  C   UNL     1       5.492   5.406  14.138  0.00  0.00    +0.000 C 
ATOM     18  C   UNL     1       6.298   4.341  14.860  0.00  0.00    +0.000 C 
ATOM     19  C   UNL     1       5.853   4.447  16.329  0.00  0.00    +0.000 C 
ATOM     20  N   UNL     1       3.833   7.340  17.334  0.00  0.00    +0.000 NA
ATOM     21  C   UNL     1       2.883   7.664  18.184  0.00  0.00    +0.000 A 
ATOM     22  N   UNL     1       2.487   8.936  18.107  0.00  0.00    +0.000 NA
ENDROOT
BRANCH   1  26
ATOM     23  C   UNL     1       0.642  13.623  18.511  0.00  0.00    +0.000 A 
ATOM     24  C   UNL     1      -0.381  12.683  18.721  0.00  0.00    +0.000 A 
ATOM     25  C   UNL     1      -0.117  11.316  18.833  0.00  0.00    +0.000 A 
ATOM     26  C   UNL     1       1.194  10.840  18.756  0.00  0.00    +0.000 A 
ATOM     27  C   UNL     1       2.208  11.787  18.528  0.00  0.00    +0.000 A 
ATOM     28  C   UNL     1       1.967  13.179  18.401  0.00  0.00    +0.000 A 
BRANCH  23  30
ATOM     29  C   UNL     1      -0.399  15.416  19.727  0.00  0.00    +0.000 C 
ATOM     30  O   UNL     1       0.154  14.896  18.534  0.00  0.00    +0.000 OA
ENDBRANCH  23  30
BRANCH  28  31
ATOM     31  C   UNL     1       3.197  14.017  18.179  0.00  0.00    +0.000 C 
BRANCH  31  32
ATOM     32  O   UNL     1       2.872  15.399  18.104  0.00  0.00    +0.000 OA
ATOM     33  H   UNL     1       2.610  15.575  17.184  0.00  0.00    +0.000 HD
ENDBRANCH  31  32
ENDBRANCH  28  31
ENDBRANCH   1  26
BRANCH  19  34
ATOM     34  C   UNL     1       7.079   4.283  17.244  0.00  0.00    +0.000 C 
ATOM     35  N   UNL     1       6.802   4.285  18.588  0.00  0.00    +0.000 N 
ATOM     36  O   UNL     1       8.237   4.276  16.839  0.00  0.00    +0.000 OA
ATOM     37  H   UNL     1       5.855   4.027  18.853  0.00  0.00    +0.000 HD
ATOM     38  H   UNL     1       7.558   4.080  19.223  0.00  0.00    +0.000 HD
ENDBRANCH  19  34
TORSDOF 5
ENDMDL
MODEL 2
REMARK VINA RESULT:      -8.3      3.840     10.145
REMARK  Name = 
REMARK  7 active torsions:
REMARK  status: ('A' for Active; 'I' for Inactive)
REMARK    1  A    between atoms: C_1  and  O_2
REMARK    2  A    between atoms: O_2  and  C_3
REMARK    3  A    between atoms: C_6  and  C_7
REMARK    4  A    between atoms: C_17  and  C_18
REMARK    5  A    between atoms: C_25  and  C_26
REMARK    6  A    between atoms: C_33  and  C_34
REMARK    7  A    between atoms: C_34  and  O_35
REMARK                            x       y       z     vdW  Elec       q    Type
REMARK                         _______ _______ _______ _____ _____    ______ ____
ROOT
ATOM      1  C   UNL     1       0.863   9.321  20.508  0.00  0.00    +0.000 A 
ATOM      2  C   UNL     1      -0.008   9.260  21.571  0.00  0.00    +0.000 A 
ATOM      3  C   UNL     1      -0.555  10.449  22.031  0.00  0.00    +0.000 A 
ATOM      4  C   UNL     1      -0.267  11.698  21.412  0.00  0.00    +0.000 A 
ATOM      5  C   UNL     1      -0.751  12.990  21.726  0.00  0.00    +0.000 A 
ATOM      6  N   UNL     1      -1.694  13.291  22.710  0.00  0.00    +0.000 N 
ATOM      7  C   UNL     1      -2.661  12.277  23.170  0.00  0.00    +0.000 C 
ATOM      8  C   UNL     1      -3.882  12.924  23.824  0.00  0.00    +0.000 C 
ATOM      9  O   UNL     1      -3.479  13.731  24.938  0.00  0.00    +0.000 OA
ATOM     10  C   UNL     1      -2.606  14.775  24.482  0.00  0.00    +0.000 C 
ATOM     11  C   UNL     1      -1.313  14.224  23.820  0.00  0.00    +0.000 C 
ATOM     12  C   UNL     1      -0.452  15.424  23.431  0.00  0.00    +0.000 C 
ATOM     13  N   UNL     1      -0.345  14.052  20.997  0.00  0.00    +0.000 NA
ATOM     14  C   UNL     1       0.564  13.897  20.030  0.00  0.00    +0.000 A 
ATOM     15  N   UNL     1       1.002  14.983  19.309  0.00  0.00    +0.000 N 
ATOM     16  C   UNL     1       2.347  14.968  18.753  0.00  0.00    +0.000 C 
ATOM     17  C   UNL     1       2.937  16.300  19.199  0.00  0.00    +0.000 C 
ATOM     18  C   UNL     1       1.742  17.236  19.225  0.00  0.00    +0.000 C 
ATOM     19  C   UNL     1       0.561  16.346  19.652  0.00  0.00    +0.000 C 
ATOM     20  N   UNL     1       1.049  12.710  19.700  0.00  0.00    +0.000 NA
ATOM     21  C   UNL     1       0.644  11.644  20.356  0.00  0.00    +0.000 A 
ATOM     22  N   UNL     1       1.186  10.501  19.934  0.00  0.00    +0.000 NA
ENDROOT
BRANCH   1  26
ATOM     23  C   UNL     1       2.807   5.806  18.928  0.00  0.00    +0.000 A 
ATOM     24  C   UNL     1       2.832   7.025  18.231  0.00  0.00    +0.000 A 
ATOM     25  C   UNL     1       2.189   8.167  18.717  0.00  0.00    +0.000 A 
ATOM     26  C   UNL     1       1.508   8.131  19.935  0.00  0.00    +0.000 A 
ATOM     27  C   UNL     1       1.475   6.900  20.615  0.00  0.00    +0.000 A 
ATOM     28  C   UNL     1       2.110   5.725  20.141  0.00  0.00    +0.000 A 
BRANCH  23  30
ATOM     29  C   UNL     1       2.977   3.855  17.533  0.00  0.00    +0.000 C 
ATOM     30  O   UNL     1       3.583   4.869  18.310  0.00  0.00    +0.000 OA
ENDBRANCH  23  30
BRANCH  28  31
ATOM     31  C   UNL     1       1.964   4.522  21.035  0.00  0.00    +0.000 C 
BRANCH  31  32
ATOM     32  O   UNL     1       0.829   3.746  20.672  0.00  0.00    +0.000 OA
ATOM     33  H   UNL     1       0.749   3.040  21.336  0.00  0.00    +0.000 HD
ENDBRANCH  31  32
ENDBRANCH  28  31
ENDBRANCH   1  26
BRANCH  19  34
ATOM     34  C   UNL     1      -0.684  16.727  18.834  0.00  0.00    +0.000 C 
ATOM     35  N   UNL     1      -1.883  16.449  19.441  0.00  0.00    +0.000 N 
ATOM     36  O   UNL     1      -0.643  17.130  17.675  0.00  0.00    +0.000 OA
ATOM     37  H   UNL     1      -1.868  16.378  20.454  0.00  0.00    +0.000 HD
ATOM     38  H   UNL     1      -2.724  16.772  18.988  0.00  0.00    +0.000 HD
ENDBRANCH  19  34
TORSDOF 5
ENDMDL
MODEL 3
REMARK VINA RESULT:      -8.3      0.647      1.538
REMARK  Name = 
REMARK  7 active torsions:
REMARK  status: ('A' for Active; 'I' for Inactive)
REMARK    1  A    between atoms: C_1  and  O_2
REMARK    2  A    between atoms: O_2  and  C_3
REMARK    3  A    between atoms: C_6  and  C_7
REMARK    4  A    between atoms: C_17  and  C_18
REMARK    5  A    between atoms: C_25  and  C_26
REMARK    6  A    between atoms: C_33  and  C_34
REMARK    7  A    between atoms: C_34  and  O_35
REMARK                            x       y       z     vdW  Elec       q    Type
REMARK                         _______ _______ _______ _____ _____    ______ ____
ROOT
ATOM      1  C   UNL     1       1.557   9.424  19.119  0.00  0.00    +0.000 A 
ATOM      2  C   UNL     1       0.933   8.590  20.018  0.00  0.00    +0.000 A 
ATOM      3  C   UNL     1       1.312   7.256  20.037  0.00  0.00    +0.000 A 
ATOM      4  C   UNL     1       2.340   6.754  19.189  0.00  0.00    +0.000 A 
ATOM      5  C   UNL     1       2.868   5.445  19.096  0.00  0.00    +0.000 A 
ATOM      6  N   UNL     1       2.508   4.360  19.897  0.00  0.00    +0.000 N 
ATOM      7  C   UNL     1       1.937   4.566  21.240  0.00  0.00    +0.000 C 
ATOM      8  C   UNL     1       2.101   3.323  22.116  0.00  0.00    +0.000 C 
ATOM      9  O   UNL     1       1.465   2.196  21.500  0.00  0.00    +0.000 OA
ATOM     10  C   UNL     1       2.077   1.935  20.228  0.00  0.00    +0.000 C 
ATOM     11  C   UNL     1       1.944   3.132  19.247  0.00  0.00    +0.000 C 
ATOM     12  C   UNL     1       2.581   2.713  17.924  0.00  0.00    +0.000 C 
ATOM     13  N   UNL     1       3.856   5.184  18.212  0.00  0.00    +0.000 NA
ATOM     14  C   UNL     1       4.284   6.138  17.380  0.00  0.00    +0.000 A 
ATOM     15  N   UNL     1       5.268   5.864  16.459  0.00  0.00    +0.000 N 
ATOM     16  C   UNL     1       5.295   6.610  15.209  0.00  0.00    +0.000 C 
ATOM     17  C   UNL     1       5.402   5.526  14.144  0.00  0.00    +0.000 C 
ATOM     18  C   UNL     1       6.212   4.432  14.818  0.00  0.00    +0.000 C 
ATOM     19  C   UNL     1       5.795   4.498  16.298  0.00  0.00    +0.000 C 
ATOM     20  N   UNL     1       3.820   7.377  17.427  0.00  0.00    +0.000 NA
ATOM     21  C   UNL     1       2.889   7.683  18.305  0.00  0.00    +0.000 A 
ATOM     22  N   UNL     1       2.504   8.959  18.273  0.00  0.00    +0.000 NA
ENDROOT
BRANCH   1  26
ATOM     23  C   UNL     1       0.521  13.596  18.733  0.00  0.00    +0.000 A 
ATOM     24  C   UNL     1       1.766  13.113  18.297  0.00  0.00    +0.000 A 
ATOM     25  C   UNL     1       2.127  11.770  18.435  0.00  0.00    +0.000 A 
ATOM     26  C   UNL     1       1.240  10.854  19.003  0.00  0.00    +0.000 A 
ATOM     27  C   UNL     1       0.003  11.352  19.451  0.00  0.00    +0.000 A 
ATOM     28  C   UNL     1      -0.385  12.711  19.332  0.00  0.00    +0.000 A 
BRANCH  23  30
ATOM     29  C   UNL     1       1.196  15.889  18.986  0.00  0.00    +0.000 C 
ATOM     30  O   UNL     1       0.359  14.910  18.403  0.00  0.00    +0.000 OA
ENDBRANCH  23  30
BRANCH  28  31
ATOM     31  C   UNL     1      -1.759  13.025  19.861  0.00  0.00    +0.000 C 
BRANCH  31  32
ATOM     32  O   UNL     1      -1.975  14.429  19.929  0.00  0.00    +0.000 OA
ATOM     33  H   UNL     1      -1.221  14.804  20.416  0.00  0.00    +0.000 HD
ENDBRANCH  31  32
ENDBRANCH  28  31
ENDBRANCH   1  26
BRANCH  19  34
ATOM     34  C   UNL     1       7.035   4.295  17.185  0.00  0.00    +0.000 C 
ATOM     35  N   UNL     1       6.782   4.258  18.533  0.00  0.00    +0.000 N 
ATOM     36  O   UNL     1       8.186   4.291  16.759  0.00  0.00    +0.000 OA
ATOM     37  H   UNL     1       5.839   4.000  18.807  0.00  0.00    +0.000 HD
ATOM     38  H   UNL     1       7.548   4.027  19.148  0.00  0.00    +0.000 HD
ENDBRANCH  19  34
TORSDOF 5
ENDMDL
MODEL 4
REMARK VINA RESULT:      -7.9      3.933      9.991
REMARK  Name = 
REMARK  7 active torsions:
REMARK  status: ('A' for Active; 'I' for Inactive)
REMARK    1  A    between atoms: C_1  and  O_2
REMARK    2  A    between atoms: O_2  and  C_3
REMARK    3  A    between atoms: C_6  and  C_7
REMARK    4  A    between atoms: C_17  and  C_18
REMARK    5  A    between atoms: C_25  and  C_26
REMARK    6  A    between atoms: C_33  and  C_34
REMARK    7  A    between atoms: C_34  and  O_35
REMARK                            x       y       z     vdW  Elec       q    Type
REMARK                         _______ _______ _______ _____ _____    ______ ____
ROOT
ATOM      1  C   UNL     1       0.791   9.201  20.904  0.00  0.00    +0.000 A 
ATOM      2  C   UNL     1      -0.110   9.183  21.944  0.00  0.00    +0.000 A 
ATOM      3  C   UNL     1      -0.659  10.391  22.347  0.00  0.00    +0.000 A 
ATOM      4  C   UNL     1      -0.343  11.616  21.695  0.00  0.00    +0.000 A 
ATOM      5  C   UNL     1      -0.826  12.921  21.951  0.00  0.00    +0.000 A 
ATOM      6  N   UNL     1      -1.793  13.263  22.898  0.00  0.00    +0.000 N 
ATOM      7  C   UNL     1      -2.780  12.273  23.364  0.00  0.00    +0.000 C 
ATOM      8  C   UNL     1      -4.014  12.951  23.962  0.00  0.00    +0.000 C 
ATOM      9  O   UNL     1      -3.635  13.792  25.058  0.00  0.00    +0.000 OA
ATOM     10  C   UNL     1      -2.741  14.814  24.592  0.00  0.00    +0.000 C 
ATOM     11  C   UNL     1      -1.435  14.231  23.985  0.00  0.00    +0.000 C 
ATOM     12  C   UNL     1      -0.553  15.410  23.580  0.00  0.00    +0.000 C 
ATOM     13  N   UNL     1      -0.390  13.955  21.198  0.00  0.00    +0.000 NA
ATOM     14  C   UNL     1       0.544  13.760  20.263  0.00  0.00    +0.000 A 
ATOM     15  N   UNL     1       1.011  14.817  19.518  0.00  0.00    +0.000 N 
ATOM     16  C   UNL     1       2.371  14.774  19.001  0.00  0.00    +0.000 C 
ATOM     17  C   UNL     1       2.960  16.115  19.418  0.00  0.00    +0.000 C 
ATOM     18  C   UNL     1       1.772  17.061  19.379  0.00  0.00    +0.000 C 
ATOM     19  C   UNL     1       0.573  16.195  19.802  0.00  0.00    +0.000 C 
ATOM     20  N   UNL     1       1.028  12.559  19.988  0.00  0.00    +0.000 NA
ATOM     21  C   UNL     1       0.596  11.519  20.667  0.00  0.00    +0.000 A 
ATOM     22  N   UNL     1       1.139  10.358  20.299  0.00  0.00    +0.000 NA
ENDROOT
BRANCH   1  26
ATOM     23  C   UNL     1       2.660   5.662  19.289  0.00  0.00    +0.000 A 
ATOM     24  C   UNL     1       1.891   5.606  20.463  0.00  0.00    +0.000 A 
ATOM     25  C   UNL     1       1.298   6.745  21.012  0.00  0.00    +0.000 A 
ATOM     26  C   UNL     1       1.441   7.987  20.390  0.00  0.00    +0.000 A 
ATOM     27  C   UNL     1       2.227   8.034  19.225  0.00  0.00    +0.000 A 
ATOM     28  C   UNL     1       2.848   6.895  18.652  0.00  0.00    +0.000 A 
BRANCH  23  30
ATOM     29  C   UNL     1       2.273   3.699  17.956  0.00  0.00    +0.000 C 
ATOM     30  O   UNL     1       3.050   4.414  18.896  0.00  0.00    +0.000 OA
ENDBRANCH  23  30
BRANCH  28  31
ATOM     31  C   UNL     1       3.629   7.166  17.394  0.00  0.00    +0.000 C 
BRANCH  31  32
ATOM     32  O   UNL     1       4.690   6.233  17.235  0.00  0.00    +0.000 OA
ATOM     33  H   UNL     1       4.606   5.864  16.339  0.00  0.00    +0.000 HD
ENDBRANCH  31  32
ENDBRANCH  28  31
ENDBRANCH   1  26
BRANCH  19  34
ATOM     34  C   UNL     1      -0.646  16.557  18.937  0.00  0.00    +0.000 C 
ATOM     35  N   UNL     1      -1.863  16.337  19.531  0.00  0.00    +0.000 N 
ATOM     36  O   UNL     1      -0.571  16.897  17.760  0.00  0.00    +0.000 OA
ATOM     37  H   UNL     1      -1.871  16.320  20.546  0.00  0.00    +0.000 HD
ATOM     38  H   UNL     1      -2.688  16.653  19.042  0.00  0.00    +0.000 HD
ENDBRANCH  19  34
TORSDOF 5
ENDMDL
MODEL 5
REMARK VINA RESULT:      -7.5      4.820     10.907
REMARK  Name = 
REMARK  7 active torsions:
REMARK  status: ('A' for Active; 'I' for Inactive)
REMARK    1  A    between atoms: C_1  and  O_2
REMARK    2  A    between atoms: O_2  and  C_3
REMARK    3  A    between atoms: C_6  and  C_7
REMARK    4  A    between atoms: C_17  and  C_18
REMARK    5  A    between atoms: C_25  and  C_26
REMARK    6  A    between atoms: C_33  and  C_34
REMARK    7  A    between atoms: C_34  and  O_35
REMARK                            x       y       z     vdW  Elec       q    Type
REMARK                         _______ _______ _______ _____ _____    ______ ____
ROOT
ATOM      1  C   UNL     1       0.456  10.409  19.836  0.00  0.00    +0.000 A 
ATOM      2  C   UNL     1       0.961  11.281  20.774  0.00  0.00    +0.000 A 
ATOM      3  C   UNL     1       0.125  12.283  21.244  0.00  0.00    +0.000 A 
ATOM      4  C   UNL     1      -1.227  12.399  20.814  0.00  0.00    +0.000 A 
ATOM      5  C   UNL     1      -2.219  13.329  21.205  0.00  0.00    +0.000 A 
ATOM      6  N   UNL     1      -2.070  14.319  22.178  0.00  0.00    +0.000 N 
ATOM      7  C   UNL     1      -1.072  14.182  23.254  0.00  0.00    +0.000 C 
ATOM      8  C   UNL     1      -1.416  15.065  24.454  0.00  0.00    +0.000 C 
ATOM      9  O   UNL     1      -1.492  16.438  24.053  0.00  0.00    +0.000 OA
ATOM     10  C   UNL     1      -2.524  16.595  23.068  0.00  0.00    +0.000 C 
ATOM     11  C   UNL     1      -2.259  15.755  21.788  0.00  0.00    +0.000 C 
ATOM     12  C   UNL     1      -3.390  16.047  20.806  0.00  0.00    +0.000 C 
ATOM     13  N   UNL     1      -3.455  13.256  20.666  0.00  0.00    +0.000 NA
ATOM     14  C   UNL     1      -3.722  12.356  19.716  0.00  0.00    +0.000 A 
ATOM     15  N   UNL     1      -4.971  12.301  19.143  0.00  0.00    +0.000 N 
ATOM     16  C   UNL     1      -5.103  11.829  17.773  0.00  0.00    +0.000 C 
ATOM     17  C   UNL     1      -5.949  12.903  17.101  0.00  0.00    +0.000 C 
ATOM     18  C   UNL     1      -6.859  13.398  18.211  0.00  0.00    +0.000 C 
ATOM     19  C   UNL     1      -6.005  13.294  19.487  0.00  0.00    +0.000 C 
ATOM     20  N   UNL     1      -2.828  11.466  19.314  0.00  0.00    +0.000 NA
ATOM     21  C   UNL     1      -1.626  11.474  19.848  0.00  0.00    +0.000 A 
ATOM     22  N   UNL     1      -0.811  10.528  19.380  0.00  0.00    +0.000 NA
ENDROOT
BRANCH   1  26
ATOM     23  C   UNL     1       2.833   7.177  18.246  0.00  0.00    +0.000 A 
ATOM     24  C   UNL     1       2.606   8.347  17.502  0.00  0.00    +0.000 A 
ATOM     25  C   UNL     1       1.820   9.393  17.992  0.00  0.00    +0.000 A 
ATOM     26  C   UNL     1       1.245   9.311  19.261  0.00  0.00    +0.000 A 
ATOM     27  C   UNL     1       1.465   8.128  19.990  0.00  0.00    +0.000 A 
ATOM     28  C   UNL     1       2.249   7.048  19.513  0.00  0.00    +0.000 A 
BRANCH  23  30
ATOM     29  C   UNL     1       4.956   6.843  17.169  0.00  0.00    +0.000 C 
ATOM     30  O   UNL     1       3.706   6.347  17.605  0.00  0.00    +0.000 OA
ENDBRANCH  23  30
BRANCH  28  31
ATOM     31  C   UNL     1       2.369   5.886  20.462  0.00  0.00    +0.000 C 
BRANCH  31  32
ATOM     32  O   UNL     1       3.572   5.160  20.238  0.00  0.00    +0.000 OA
ATOM     33  H   UNL     1       4.037   5.120  21.091  0.00  0.00    +0.000 HD
ENDBRANCH  31  32
ENDBRANCH  28  31
ENDBRANCH   1  26
BRANCH  19  34
ATOM     34  C   UNL     1      -6.879  12.777  20.643  0.00  0.00    +0.000 C 
ATOM     35  N   UNL     1      -6.524  13.237  21.886  0.00  0.00    +0.000 N 
ATOM     36  O   UNL     1      -7.750  11.923  20.512  0.00  0.00    +0.000 OA
ATOM     37  H   UNL     1      -6.003  14.109  21.912  0.00  0.00    +0.000 HD
ATOM     38  H   UNL     1      -7.127  13.007  22.661  0.00  0.00    +0.000 HD
ENDBRANCH  19  34
TORSDOF 5
ENDMDL
MODEL 6
REMARK VINA RESULT:      -7.3      3.536     10.125
REMARK  Name = 
REMARK  7 active torsions:
REMARK  status: ('A' for Active; 'I' for Inactive)
REMARK    1  A    between atoms: C_1  and  O_2
REMARK    2  A    between atoms: O_2  and  C_3
REMARK    3  A    between atoms: C_6  and  C_7
REMARK    4  A    between atoms: C_17  and  C_18
REMARK    5  A    between atoms: C_25  and  C_26
REMARK    6  A    between atoms: C_33  and  C_34
REMARK    7  A    between atoms: C_34  and  O_35
REMARK                            x       y       z     vdW  Elec       q    Type
REMARK                         _______ _______ _______ _____ _____    ______ ____
ROOT
ATOM      1  C   UNL     1       0.977   9.723  19.335  0.00  0.00    +0.000 A 
ATOM      2  C   UNL     1      -0.291   9.610  19.857  0.00  0.00    +0.000 A 
ATOM      3  C   UNL     1      -0.973  10.778  20.164  0.00  0.00    +0.000 A 
ATOM      4  C   UNL     1      -0.413  12.063  19.917  0.00  0.00    +0.000 A 
ATOM      5  C   UNL     1      -0.971  13.344  20.138  0.00  0.00    +0.000 A 
ATOM      6  N   UNL     1      -2.261  13.603  20.605  0.00  0.00    +0.000 N 
ATOM      7  C   UNL     1      -3.343  12.618  20.430  0.00  0.00    +0.000 C 
ATOM      8  C   UNL     1      -4.721  13.276  20.524  0.00  0.00    +0.000 C 
ATOM      9  O   UNL     1      -4.874  13.925  21.793  0.00  0.00    +0.000 OA
ATOM     10  C   UNL     1      -3.876  14.947  21.934  0.00  0.00    +0.000 C 
ATOM     11  C   UNL     1      -2.431  14.379  21.877  0.00  0.00    +0.000 C 
ATOM     12  C   UNL     1      -1.472  15.548  22.091  0.00  0.00    +0.000 C 
ATOM     13  N   UNL     1      -0.258  14.448  19.826  0.00  0.00    +0.000 NA
ATOM     14  C   UNL     1       0.996  14.334  19.377  0.00  0.00    +0.000 A 
ATOM     15  N   UNL     1       1.734  15.458  19.089  0.00  0.00    +0.000 N 
ATOM     16  C   UNL     1       3.183  15.407  19.220  0.00  0.00    +0.000 C 
ATOM     17  C   UNL     1       3.513  16.635  20.058  0.00  0.00    +0.000 C 
ATOM     18  C   UNL     1       2.456  17.647  19.652  0.00  0.00    +0.000 C 
ATOM     19  C   UNL     1       1.202  16.804  19.365  0.00  0.00    +0.000 C 
ATOM     20  N   UNL     1       1.563  13.158  19.156  0.00  0.00    +0.000 NA
ATOM     21  C   UNL     1       0.885  12.059  19.405  0.00  0.00    +0.000 A 
ATOM     22  N   UNL     1       1.546  10.933  19.135  0.00  0.00    +0.000 NA
ENDROOT
BRANCH   1  26
ATOM     23  C   UNL     1       3.433   6.304  18.384  0.00  0.00    +0.000 A 
ATOM     24  C   UNL     1       3.395   7.428  17.543  0.00  0.00    +0.000 A 
ATOM     25  C   UNL     1       2.589   8.534  17.823  0.00  0.00    +0.000 A 
ATOM     26  C   UNL     1       1.799   8.560  18.975  0.00  0.00    +0.000 A 
ATOM     27  C   UNL     1       1.832   7.422  19.800  0.00  0.00    +0.000 A 
ATOM     28  C   UNL     1       2.633   6.283  19.534  0.00  0.00    +0.000 A 
BRANCH  23  30
ATOM     29  C   UNL     1       4.935   5.535  16.672  0.00  0.00    +0.000 C 
ATOM     30  O   UNL     1       4.363   5.401  17.958  0.00  0.00    +0.000 OA
ENDBRANCH  23  30
BRANCH  28  31
ATOM     31  C   UNL     1       2.531   5.184  20.558  0.00  0.00    +0.000 C 
BRANCH  31  32
ATOM     32  O   UNL     1       2.891   3.927  20.001  0.00  0.00    +0.000 OA
ATOM     33  H   UNL     1       3.639   3.593  20.525  0.00  0.00    +0.000 HD
ENDBRANCH  31  32
ENDBRANCH  28  31
ENDBRANCH   1  26
BRANCH  19  34
ATOM     34  C   UNL     1       0.488  17.361  18.121  0.00  0.00    +0.000 C 
ATOM     35  N   UNL     1      -0.849  17.068  18.042  0.00  0.00    +0.000 N 
ATOM     36  O   UNL     1       1.068  17.919  17.194  0.00  0.00    +0.000 OA
ATOM     37  H   UNL     1      -1.317  16.856  18.918  0.00  0.00    +0.000 HD
ATOM     38  H   UNL     1      -1.381  17.495  17.298  0.00  0.00    +0.000 HD
ENDBRANCH  19  34
TORSDOF 5
ENDMDL
MODEL 7
REMARK VINA RESULT:      -7.2      4.154     11.068
REMARK  Name = 
REMARK  7 active torsions:
REMARK  status: ('A' for Active; 'I' for Inactive)
REMARK    1  A    between atoms: C_1  and  O_2
REMARK    2  A    between atoms: O_2  and  C_3
REMARK    3  A    between atoms: C_6  and  C_7
REMARK    4  A    between atoms: C_17  and  C_18
REMARK    5  A    between atoms: C_25  and  C_26
REMARK    6  A    between atoms: C_33  and  C_34
REMARK    7  A    between atoms: C_34  and  O_35
REMARK                            x       y       z     vdW  Elec       q    Type
REMARK                         _______ _______ _______ _____ _____    ______ ____
ROOT
ATOM      1  C   UNL     1       1.433  10.505  19.176  0.00  0.00    +0.000 A 
ATOM      2  C   UNL     1       1.840  11.543  18.369  0.00  0.00    +0.000 A 
ATOM      3  C   UNL     1       1.419  12.823  18.696  0.00  0.00    +0.000 A 
ATOM      4  C   UNL     1       0.623  13.082  19.848  0.00  0.00    +0.000 A 
ATOM      5  C   UNL     1       0.134  14.313  20.344  0.00  0.00    +0.000 A 
ATOM      6  N   UNL     1       0.401  15.574  19.806  0.00  0.00    +0.000 N 
ATOM      7  C   UNL     1       1.611  15.814  19.001  0.00  0.00    +0.000 C 
ATOM      8  C   UNL     1       1.972  17.300  18.960  0.00  0.00    +0.000 C 
ATOM      9  O   UNL     1       0.884  18.058  18.416  0.00  0.00    +0.000 OA
ATOM     10  C   UNL     1      -0.275  17.899  19.246  0.00  0.00    +0.000 C 
ATOM     11  C   UNL     1      -0.745  16.420  19.336  0.00  0.00    +0.000 C 
ATOM     12  C   UNL     1      -2.006  16.392  20.196  0.00  0.00    +0.000 C 
ATOM     13  N   UNL     1      -0.611  14.332  21.471  0.00  0.00    +0.000 NA
ATOM     14  C   UNL     1      -0.944  13.189  22.077  0.00  0.00    +0.000 A 
ATOM     15  N   UNL     1      -1.728  13.205  23.206  0.00  0.00    +0.000 N 
ATOM     16  C   UNL     1      -2.585  12.064  23.490  0.00  0.00    +0.000 C 
ATOM     17  C   UNL     1      -3.946  12.692  23.760  0.00  0.00    +0.000 C 
ATOM     18  C   UNL     1      -3.609  14.030  24.395  0.00  0.00    +0.000 C 
ATOM     19  C   UNL     1      -2.301  14.465  23.711  0.00  0.00    +0.000 C 
ATOM     20  N   UNL     1      -0.512  12.012  21.650  0.00  0.00    +0.000 NA
ATOM     21  C   UNL     1       0.253  11.955  20.582  0.00  0.00    +0.000 A 
ATOM     22  N   UNL     1       0.640  10.723  20.249  0.00  0.00    +0.000 NA
ENDROOT
BRANCH   1  26
ATOM     23  C   UNL     1       2.594   6.394  18.558  0.00  0.00    +0.000 A 
ATOM     24  C   UNL     1       2.808   7.367  17.568  0.00  0.00    +0.000 A 
ATOM     25  C   UNL     1       2.418   8.697  17.742  0.00  0.00    +0.000 A 
ATOM     26  C   UNL     1       1.810   9.107  18.931  0.00  0.00    +0.000 A 
ATOM     27  C   UNL     1       1.586   8.121  19.908  0.00  0.00    +0.000 A 
ATOM     28  C   UNL     1       1.962   6.763  19.754  0.00  0.00    +0.000 A 
BRANCH  23  30
ATOM     29  C   UNL     1       2.323   4.172  17.682  0.00  0.00    +0.000 C 
ATOM     30  O   UNL     1       3.145   5.198  18.202  0.00  0.00    +0.000 OA
ENDBRANCH  23  30
BRANCH  28  31
ATOM     31  C   UNL     1       1.644   5.880  20.931  0.00  0.00    +0.000 C 
BRANCH  31  32
ATOM     32  O   UNL     1       2.684   4.939  21.164  0.00  0.00    +0.000 OA
ATOM     33  H   UNL     1       2.390   4.373  21.899  0.00  0.00    +0.000 HD
ENDBRANCH  31  32
ENDBRANCH  28  31
ENDBRANCH   1  26
BRANCH  19  34
ATOM     34  C   UNL     1      -1.366  15.096  24.757  0.00  0.00    +0.000 C 
ATOM     35  N   UNL     1      -1.928  15.290  25.993  0.00  0.00    +0.000 N 
ATOM     36  O   UNL     1      -0.243  15.521  24.501  0.00  0.00    +0.000 OA
ATOM     37  H   UNL     1      -2.724  14.702  26.223  0.00  0.00    +0.000 HD
ATOM     38  H   UNL     1      -1.326  15.607  26.738  0.00  0.00    +0.000 HD
ENDBRANCH  19  34
TORSDOF 5
ENDMDL
MODEL 8
REMARK VINA RESULT:      -7.2      3.945     10.811
REMARK  Name = 
REMARK  7 active torsions:
REMARK  status: ('A' for Active; 'I' for Inactive)
REMARK    1  A    between atoms: C_1  and  O_2
REMARK    2  A    between atoms: O_2  and  C_3
REMARK    3  A    between atoms: C_6  and  C_7
REMARK    4  A    between atoms: C_17  and  C_18
REMARK    5  A    between atoms: C_25  and  C_26
REMARK    6  A    between atoms: C_33  and  C_34
REMARK    7  A    between atoms: C_34  and  O_35
REMARK                            x       y       z     vdW  Elec       q    Type
REMARK                         _______ _______ _______ _____ _____    ______ ____
ROOT
ATOM      1  C   UNL     1       1.454   9.538  19.754  0.00  0.00    +0.000 A 
ATOM      2  C   UNL     1       1.971  10.415  18.828  0.00  0.00    +0.000 A 
ATOM      3  C   UNL     1       1.631  11.754  18.944  0.00  0.00    +0.000 A 
ATOM      4  C   UNL     1       0.807  12.233  20.002  0.00  0.00    +0.000 A 
ATOM      5  C   UNL     1       0.387  13.554  20.287  0.00  0.00    +0.000 A 
ATOM      6  N   UNL     1       0.768  14.700  19.588  0.00  0.00    +0.000 N 
ATOM      7  C   UNL     1       2.027  14.739  18.822  0.00  0.00    +0.000 C 
ATOM      8  C   UNL     1       2.496  16.175  18.586  0.00  0.00    +0.000 C 
ATOM      9  O   UNL     1       1.492  16.914  17.880  0.00  0.00    +0.000 OA
ATOM     10  C   UNL     1       0.288  16.956  18.662  0.00  0.00    +0.000 C 
ATOM     11  C   UNL     1      -0.291  15.541  18.940  0.00  0.00    +0.000 C 
ATOM     12  C   UNL     1      -1.587  15.724  19.726  0.00  0.00    +0.000 C 
ATOM     13  N   UNL     1      -0.402  13.788  21.358  0.00  0.00    +0.000 NA
ATOM     14  C   UNL     1      -0.843  12.772  22.104  0.00  0.00    +0.000 A 
ATOM     15  N   UNL     1      -1.672  13.006  23.176  0.00  0.00    +0.000 N 
ATOM     16  C   UNL     1      -2.621  11.978  23.576  0.00  0.00    +0.000 C 
ATOM     17  C   UNL     1      -3.943  12.728  23.680  0.00  0.00    +0.000 C 
ATOM     18  C   UNL     1      -3.537  14.120  24.131  0.00  0.00    +0.000 C 
ATOM     19  C   UNL     1      -2.173  14.362  23.462  0.00  0.00    +0.000 C 
ATOM     20  N   UNL     1      -0.480  11.519  21.876  0.00  0.00    +0.000 NA
ATOM     21  C   UNL     1       0.324  11.254  20.870  0.00  0.00    +0.000 A 
ATOM     22  N   UNL     1       0.634   9.963  20.740  0.00  0.00    +0.000 NA
ENDROOT
BRANCH   1  26
ATOM     23  C   UNL     1       2.261   5.301  19.583  0.00  0.00    +0.000 A 
ATOM     24  C   UNL     1       1.510   5.856  20.632  0.00  0.00    +0.000 A 
ATOM     25  C   UNL     1       1.259   7.228  20.716  0.00  0.00    +0.000 A 
ATOM     26  C   UNL     1       1.740   8.097  19.734  0.00  0.00    +0.000 A 
ATOM     27  C   UNL     1       2.504   7.532  18.697  0.00  0.00    +0.000 A 
ATOM     28  C   UNL     1       2.783   6.145  18.594  0.00  0.00    +0.000 A 
BRANCH  23  30
ATOM     29  C   UNL     1       1.195   3.247  20.235  0.00  0.00    +0.000 C 
ATOM     30  O   UNL     1       2.287   3.939  19.663  0.00  0.00    +0.000 OA
ENDBRANCH  23  30
BRANCH  28  31
ATOM     31  C   UNL     1       3.605   5.753  17.395  0.00  0.00    +0.000 C 
BRANCH  31  32
ATOM     32  O   UNL     1       3.612   4.342  17.216  0.00  0.00    +0.000 OA
ATOM     33  H   UNL     1       2.749   4.016  17.527  0.00  0.00    +0.000 HD
ENDBRANCH  31  32
ENDBRANCH  28  31
ENDBRANCH   1  26
BRANCH  19  34
ATOM     34  C   UNL     1      -1.241  15.078  24.454  0.00  0.00    +0.000 C 
ATOM     35  N   UNL     1      -1.764  15.265  25.708  0.00  0.00    +0.000 N 
ATOM     36  O   UNL     1      -0.159  15.569  24.142  0.00  0.00    +0.000 OA
ATOM     37  H   UNL     1      -2.509  14.632  25.984  0.00  0.00    +0.000 HD
ATOM     38  H   UNL     1      -1.155  15.639  26.420  0.00  0.00    +0.000 HD
ENDBRANCH  19  34
TORSDOF 5
ENDMDL
MODEL 9
REMARK VINA RESULT:      -7.1      3.639     10.790
REMARK  Name = 
REMARK  7 active torsions:
REMARK  status: ('A' for Active; 'I' for Inactive)
REMARK    1  A    between atoms: C_1  and  O_2
REMARK    2  A    between atoms: O_2  and  C_3
REMARK    3  A    between atoms: C_6  and  C_7
REMARK    4  A    between atoms: C_17  and  C_18
REMARK    5  A    between atoms: C_25  and  C_26
REMARK    6  A    between atoms: C_33  and  C_34
REMARK    7  A    between atoms: C_34  and  O_35
REMARK                            x       y       z     vdW  Elec       q    Type
REMARK                         _______ _______ _______ _____ _____    ______ ____
ROOT
ATOM      1  C   UNL     1       1.937  10.065  18.777  0.00  0.00    +0.000 A 
ATOM      2  C   UNL     1       2.495  11.016  17.952  0.00  0.00    +0.000 A 
ATOM      3  C   UNL     1       2.158  12.343  18.171  0.00  0.00    +0.000 A 
ATOM      4  C   UNL     1       1.296  12.735  19.234  0.00  0.00    +0.000 A 
ATOM      5  C   UNL     1       0.873  14.029  19.618  0.00  0.00    +0.000 A 
ATOM      6  N   UNL     1       1.287  15.229  19.037  0.00  0.00    +0.000 N 
ATOM      7  C   UNL     1       2.575  15.322  18.327  0.00  0.00    +0.000 C 
ATOM      8  C   UNL     1       3.061  16.770  18.236  0.00  0.00    +0.000 C 
ATOM      9  O   UNL     1       2.089  17.577  17.559  0.00  0.00    +0.000 OA
ATOM     10  C   UNL     1       0.857  17.561  18.294  0.00  0.00    +0.000 C 
ATOM     11  C   UNL     1       0.259  16.133  18.425  0.00  0.00    +0.000 C 
ATOM     12  C   UNL     1      -1.065  16.258  19.173  0.00  0.00    +0.000 C 
ATOM     13  N   UNL     1       0.043  14.176  20.674  0.00  0.00    +0.000 NA
ATOM     14  C   UNL     1      -0.432  13.102  21.311  0.00  0.00    +0.000 A 
ATOM     15  N   UNL     1      -1.301  13.250  22.366  0.00  0.00    +0.000 N 
ATOM     16  C   UNL     1      -2.272  12.200  22.637  0.00  0.00    +0.000 C 
ATOM     17  C   UNL     1      -3.592  12.949  22.755  0.00  0.00    +0.000 C 
ATOM     18  C   UNL     1      -3.197  14.293  23.342  0.00  0.00    +0.000 C 
ATOM     19  C   UNL     1      -1.806  14.580  22.750  0.00  0.00    +0.000 C 
ATOM     20  N   UNL     1      -0.068  11.871  20.988  0.00  0.00    +0.000 NA
ATOM     21  C   UNL     1       0.773  11.687  19.994  0.00  0.00    +0.000 A 
ATOM     22  N   UNL     1       1.081  10.411  19.764  0.00  0.00    +0.000 NA
ENDROOT
BRANCH   1  26
ATOM     23  C   UNL     1       2.798   5.846  18.485  0.00  0.00    +0.000 A 
ATOM     24  C   UNL     1       3.142   6.731  17.451  0.00  0.00    +0.000 A 
ATOM     25  C   UNL     1       2.851   8.096  17.518  0.00  0.00    +0.000 A 
ATOM     26  C   UNL     1       2.215   8.629  18.641  0.00  0.00    +0.000 A 
ATOM     27  C   UNL     1       1.860   7.731  19.663  0.00  0.00    +0.000 A 
ATOM     28  C   UNL     1       2.134   6.340  19.616  0.00  0.00    +0.000 A 
BRANCH  23  30
ATOM     29  C   UNL     1       4.486   4.168  18.825  0.00  0.00    +0.000 C 
ATOM     30  O   UNL     1       3.271   4.591  18.237  0.00  0.00    +0.000 OA
ENDBRANCH  23  30
BRANCH  28  31
ATOM     31  C   UNL     1       1.684   5.565  20.825  0.00  0.00    +0.000 C 
BRANCH  31  32
ATOM     32  O   UNL     1       1.054   4.347  20.449  0.00  0.00    +0.000 OA
ATOM     33  H   UNL     1       0.101   4.465  20.606  0.00  0.00    +0.000 HD
ENDBRANCH  31  32
ENDBRANCH  28  31
ENDBRANCH   1  26
BRANCH  19  34
ATOM     34  C   UNL     1      -0.909  15.199  23.836  0.00  0.00    +0.000 C 
ATOM     35  N   UNL     1       0.071  16.037  23.369  0.00  0.00    +0.000 N 
ATOM     36  O   UNL     1      -0.960  14.888  25.023  0.00  0.00    +0.000 OA
ATOM     37  H   UNL     1      -0.093  16.457  22.458  0.00  0.00    +0.000 HD
ATOM     38  H   UNL     1       0.619  16.544  24.047  0.00  0.00    +0.000 HD
ENDBRANCH  19  34
TORSDOF 5
ENDMDL
