MODEL 1
REMARK VINA RESULT:      -7.2      0.000      0.000
REMARK  Name = 
REMARK  6 active torsions:
REMARK  status: ('A' for Active; 'I' for Inactive)
REMARK    1  A    between atoms: C_1  and  N_2
REMARK    2  A    between atoms: C_4  and  C_5
REMARK    3  A    between atoms: C_5  and  O_6
REMARK    4  A    between atoms: O_6  and  C_7
REMARK    5  A    between atoms: N_17  and  C_18
REMARK    6  A    between atoms: C_18  and  C_19
REMARK                            x       y       z     vdW  Elec       q    Type
REMARK                         _______ _______ _______ _____ _____    ______ ____
ROOT
ATOM      1  C   UNL     1       2.093   4.091  19.686  0.00  0.00    +0.000 C 
ATOM      2  N   UNL     1       2.775   5.182  19.026  0.00  0.00    +0.000 N 
ATOM      3  N   UNL     1       2.182   6.399  18.882  0.00  0.00    +0.000 NA
ATOM      4  C   UNL     1       3.049   7.102  18.120  0.00  0.00    +0.000 A 
ATOM      5  C   UNL     1       4.234   6.366  17.897  0.00  0.00    +0.000 A 
ATOM      6  C   UNL     1       4.064   5.198  18.610  0.00  0.00    +0.000 A 
ATOM      7  C   UNL     1       5.086   4.127  18.740  0.00  0.00    +0.000 C 
ATOM      8  C   UNL     1       6.384   4.609  18.038  0.00  0.00    +0.000 C 
ATOM      9  N   UNL     1       6.176   5.395  16.787  0.00  0.00    +0.000 NA
ATOM     10  C   UNL     1       5.466   6.665  17.110  0.00  0.00    +0.000 C 
ENDROOT
BRANCH   4  11
ATOM     11  C   UNL     1       2.757   8.507  17.669  0.00  0.00    +0.000 C 
BRANCH  11  12
ATOM     12  O   UNL     1       1.380   8.818  17.880  0.00  0.00    +0.000 OA
BRANCH  12  13
ATOM     13  C   UNL     1       1.079  10.020  18.434  0.00  0.00    +0.000 A 
ATOM     14  C   UNL     1       1.816  11.181  18.456  0.00  0.00    +0.000 A 
ATOM     15  N   UNL     1       1.394  12.333  19.033  0.00  0.00    +0.000 NA
ATOM     16  C   UNL     1       0.181  12.293  19.608  0.00  0.00    +0.000 A 
ATOM     17  N   UNL     1      -0.627  11.226  19.656  0.00  0.00    +0.000 NA
ATOM     18  C   UNL     1      -0.149  10.111  19.062  0.00  0.00    +0.000 A 
ENDBRANCH  12  13
ENDBRANCH  11  12
ENDBRANCH   4  11
BRANCH   9  19
ATOM     19  C   UNL     1       5.387   4.646  15.771  0.00  0.00    +0.000 C 
BRANCH  19  20
ATOM     20  C   UNL     1       6.014   4.526  14.396  0.00  0.00    +0.000 A 
ATOM     21  C   UNL     1       5.490   3.638  13.463  0.00  0.00    +0.000 A 
ATOM     22  C   UNL     1       6.157   3.474  12.255  0.00  0.00    +0.000 A 
ATOM     23  C   UNL     1       7.315   4.204  12.005  0.00  0.00    +0.000 A 
ATOM     24  C   UNL     1       7.752   5.091  12.974  0.00  0.00    +0.000 A 
ATOM     25  N   UNL     1       7.126   5.267  14.158  0.00  0.00    +0.000 NA
ENDBRANCH  19  20
ENDBRANCH   9  19
TORSDOF 5
ENDMDL
MODEL 2
REMARK VINA RESULT:      -7.1      1.431      1.679
REMARK  Name = 
REMARK  6 active torsions:
REMARK  status: ('A' for Active; 'I' for Inactive)
REMARK    1  A    between atoms: C_1  and  N_2
REMARK    2  A    between atoms: C_4  and  C_5
REMARK    3  A    between atoms: C_5  and  O_6
REMARK    4  A    between atoms: O_6  and  C_7
REMARK    5  A    between atoms: N_17  and  C_18
REMARK    6  A    between atoms: C_18  and  C_19
REMARK                            x       y       z     vdW  Elec       q    Type
REMARK                         _______ _______ _______ _____ _____    ______ ____
ROOT
ATOM      1  C   UNL     1       4.442   2.903  20.037  0.00  0.00    +0.000 C 
ATOM      2  N   UNL     1       4.298   4.217  19.452  0.00  0.00    +0.000 N 
ATOM      3  N   UNL     1       3.242   5.017  19.766  0.00  0.00    +0.000 NA
ATOM      4  C   UNL     1       3.375   6.081  18.944  0.00  0.00    +0.000 A 
ATOM      5  C   UNL     1       4.580   6.002  18.210  0.00  0.00    +0.000 A 
ATOM      6  C   UNL     1       5.198   4.858  18.669  0.00  0.00    +0.000 A 
ATOM      7  C   UNL     1       6.542   4.390  18.240  0.00  0.00    +0.000 C 
ATOM      8  C   UNL     1       7.147   5.460  17.291  0.00  0.00    +0.000 C 
ATOM      9  N   UNL     1       6.173   6.114  16.368  0.00  0.00    +0.000 NA
ATOM     10  C   UNL     1       5.174   6.883  17.163  0.00  0.00    +0.000 C 
ENDROOT
BRANCH   4  11
ATOM     11  C   UNL     1       2.373   7.202  18.921  0.00  0.00    +0.000 C 
BRANCH  11  12
ATOM     12  O   UNL     1       2.055   7.609  20.253  0.00  0.00    +0.000 OA
BRANCH  12  13
ATOM     13  C   UNL     1       1.287   8.716  20.411  0.00  0.00    +0.000 A 
ATOM     14  C   UNL     1       0.916   9.662  19.484  0.00  0.00    +0.000 A 
ATOM     15  N   UNL     1       0.122  10.725  19.766  0.00  0.00    +0.000 NA
ATOM     16  C   UNL     1      -0.302  10.822  21.037  0.00  0.00    +0.000 A 
ATOM     17  N   UNL     1      -0.007   9.971  22.027  0.00  0.00    +0.000 NA
ATOM     18  C   UNL     1       0.786   8.934  21.681  0.00  0.00    +0.000 A 
ENDBRANCH  12  13
ENDBRANCH  11  12
ENDBRANCH   4  11
BRANCH   9  19
ATOM     19  C   UNL     1       5.456   5.131  15.511  0.00  0.00    +0.000 C 
BRANCH  19  20
ATOM     20  C   UNL     1       6.106   4.807  14.180  0.00  0.00    +0.000 A 
ATOM     21  C   UNL     1       5.595   3.792  13.380  0.00  0.00    +0.000 A 
ATOM     22  C   UNL     1       6.282   3.449  12.222  0.00  0.00    +0.000 A 
ATOM     23  C   UNL     1       7.448   4.132  11.887  0.00  0.00    +0.000 A 
ATOM     24  C   UNL     1       7.871   5.151  12.722  0.00  0.00    +0.000 A 
ATOM     25  N   UNL     1       7.226   5.503  13.855  0.00  0.00    +0.000 NA
ENDBRANCH  19  20
ENDBRANCH   9  19
TORSDOF 5
ENDMDL
MODEL 3
REMARK VINA RESULT:      -7.1      0.482      1.026
REMARK  Name = 
REMARK  6 active torsions:
REMARK  status: ('A' for Active; 'I' for Inactive)
REMARK    1  A    between atoms: C_1  and  N_2
REMARK    2  A    between atoms: C_4  and  C_5
REMARK    3  A    between atoms: C_5  and  O_6
REMARK    4  A    between atoms: O_6  and  C_7
REMARK    5  A    between atoms: N_17  and  C_18
REMARK    6  A    between atoms: C_18  and  C_19
REMARK                            x       y       z     vdW  Elec       q    Type
REMARK                         _______ _______ _______ _____ _____    ______ ____
ROOT
ATOM      1  C   UNL     1       1.856   3.933  19.412  0.00  0.00    +0.000 C 
ATOM      2  N   UNL     1       2.595   5.044  18.857  0.00  0.00    +0.000 N 
ATOM      3  N   UNL     1       2.040   6.284  18.762  0.00  0.00    +0.000 NA
ATOM      4  C   UNL     1       2.960   7.009  18.089  0.00  0.00    +0.000 A 
ATOM      5  C   UNL     1       4.137   6.257  17.877  0.00  0.00    +0.000 A 
ATOM      6  C   UNL     1       3.903   5.051  18.504  0.00  0.00    +0.000 A 
ATOM      7  C   UNL     1       4.892   3.947  18.615  0.00  0.00    +0.000 C 
ATOM      8  C   UNL     1       6.234   4.437  18.008  0.00  0.00    +0.000 C 
ATOM      9  N   UNL     1       6.106   5.304  16.801  0.00  0.00    +0.000 NA
ATOM     10  C   UNL     1       5.413   6.571  17.170  0.00  0.00    +0.000 C 
ENDROOT
BRANCH   4  11
ATOM     11  C   UNL     1       2.724   8.447  17.715  0.00  0.00    +0.000 C 
BRANCH  11  12
ATOM     12  O   UNL     1       1.392   8.834  18.053  0.00  0.00    +0.000 OA
BRANCH  12  13
ATOM     13  C   UNL     1       1.162  10.145  18.321  0.00  0.00    +0.000 A 
ATOM     14  C   UNL     1       0.001  10.764  18.720  0.00  0.00    +0.000 A 
ATOM     15  N   UNL     1      -0.098  12.092  18.976  0.00  0.00    +0.000 NA
ATOM     16  C   UNL     1       1.028  12.808  18.813  0.00  0.00    +0.000 A 
ATOM     17  N   UNL     1       2.214  12.322  18.426  0.00  0.00    +0.000 NA
ATOM     18  C   UNL     1       2.245  10.993  18.189  0.00  0.00    +0.000 A 
ENDBRANCH  12  13
ENDBRANCH  11  12
ENDBRANCH   4  11
BRANCH   9  19
ATOM     19  C   UNL     1       5.352   4.641  15.703  0.00  0.00    +0.000 C 
BRANCH  19  20
ATOM     20  C   UNL     1       6.053   4.567  14.361  0.00  0.00    +0.000 A 
ATOM     21  C   UNL     1       5.633   3.654  13.401  0.00  0.00    +0.000 A 
ATOM     22  C   UNL     1       6.369   3.537  12.228  0.00  0.00    +0.000 A 
ATOM     23  C   UNL     1       7.491   4.339  12.038  0.00  0.00    +0.000 A 
ATOM     24  C   UNL     1       7.822   5.246  13.030  0.00  0.00    +0.000 A 
ATOM     25  N   UNL     1       7.127   5.377  14.181  0.00  0.00    +0.000 NA
ENDBRANCH  19  20
ENDBRANCH   9  19
TORSDOF 5
ENDMDL
MODEL 4
REMARK VINA RESULT:      -7.0      1.610      1.813
REMARK  Name = 
REMARK  6 active torsions:
REMARK  status: ('A' for Active; 'I' for Inactive)
REMARK    1  A    between atoms: C_1  and  N_2
REMARK    2  A    between atoms: C_4  and  C_5
REMARK    3  A    between atoms: C_5  and  O_6
REMARK    4  A    between atoms: O_6  and  C_7
REMARK    5  A    between atoms: N_17  and  C_18
REMARK    6  A    between atoms: C_18  and  C_19
REMARK                            x       y       z     vdW  Elec       q    Type
REMARK                         _______ _______ _______ _____ _____    ______ ____
ROOT
ATOM      1  C   UNL     1       2.310   2.654  19.426  0.00  0.00    +0.000 C 
ATOM      2  N   UNL     1       2.759   4.012  19.219  0.00  0.00    +0.000 N 
ATOM      3  N   UNL     1       2.005   5.073  19.619  0.00  0.00    +0.000 NA
ATOM      4  C   UNL     1       2.671   6.151  19.149  0.00  0.00    +0.000 A 
ATOM      5  C   UNL     1       3.902   5.767  18.569  0.00  0.00    +0.000 A 
ATOM      6  C   UNL     1       3.972   4.403  18.759  0.00  0.00    +0.000 A 
ATOM      7  C   UNL     1       5.129   3.552  18.377  0.00  0.00    +0.000 C 
ATOM      8  C   UNL     1       6.255   4.478  17.844  0.00  0.00    +0.000 C 
ATOM      9  N   UNL     1       5.791   5.641  17.033  0.00  0.00    +0.000 NA
ATOM     10  C   UNL     1       4.975   6.549  17.889  0.00  0.00    +0.000 C 
ENDROOT
BRANCH   4  11
ATOM     11  C   UNL     1       2.150   7.550  19.324  0.00  0.00    +0.000 C 
BRANCH  11  12
ATOM     12  O   UNL     1       1.892   7.813  20.703  0.00  0.00    +0.000 OA
BRANCH  12  13
ATOM     13  C   UNL     1       1.112   8.881  21.010  0.00  0.00    +0.000 A 
ATOM     14  C   UNL     1       0.381   9.696  20.177  0.00  0.00    +0.000 A 
ATOM     15  N   UNL     1      -0.380  10.731  20.611  0.00  0.00    +0.000 NA
ATOM     16  C   UNL     1      -0.389  10.939  21.939  0.00  0.00    +0.000 A 
ATOM     17  N   UNL     1       0.281  10.219  22.848  0.00  0.00    +0.000 NA
ATOM     18  C   UNL     1       1.019   9.203  22.351  0.00  0.00    +0.000 A 
ENDBRANCH  12  13
ENDBRANCH  11  12
ENDBRANCH   4  11
BRANCH   9  19
ATOM     19  C   UNL     1       4.980   5.226  15.857  0.00  0.00    +0.000 C 
BRANCH  19  20
ATOM     20  C   UNL     1       5.755   4.880  14.601  0.00  0.00    +0.000 A 
ATOM     21  C   UNL     1       5.271   3.918  13.722  0.00  0.00    +0.000 A 
ATOM     22  C   UNL     1       6.061   3.548  12.640  0.00  0.00    +0.000 A 
ATOM     23  C   UNL     1       7.302   4.152  12.458  0.00  0.00    +0.000 A 
ATOM     24  C   UNL     1       7.695   5.125  13.361  0.00  0.00    +0.000 A 
ATOM     25  N   UNL     1       6.949   5.501  14.423  0.00  0.00    +0.000 NA
ENDBRANCH  19  20
ENDBRANCH   9  19
TORSDOF 5
ENDMDL
MODEL 5
REMARK VINA RESULT:      -7.0      1.135      1.463
REMARK  Name = 
REMARK  6 active torsions:
REMARK  status: ('A' for Active; 'I' for Inactive)
REMARK    1  A    between atoms: C_1  and  N_2
REMARK    2  A    between atoms: C_4  and  C_5
REMARK    3  A    between atoms: C_5  and  O_6
REMARK    4  A    between atoms: O_6  and  C_7
REMARK    5  A    between atoms: N_17  and  C_18
REMARK    6  A    between atoms: C_18  and  C_19
REMARK                            x       y       z     vdW  Elec       q    Type
REMARK                         _______ _______ _______ _____ _____    ______ ____
ROOT
ATOM      1  C   UNL     1       4.051   3.021  20.301  0.00  0.00    +0.000 C 
ATOM      2  N   UNL     1       3.987   4.188  19.450  0.00  0.00    +0.000 N 
ATOM      3  N   UNL     1       2.829   4.889  19.300  0.00  0.00    +0.000 NA
ATOM      4  C   UNL     1       3.116   5.807  18.351  0.00  0.00    +0.000 A 
ATOM      5  C   UNL     1       4.485   5.759  18.003  0.00  0.00    +0.000 A 
ATOM      6  C   UNL     1       5.026   4.797  18.830  0.00  0.00    +0.000 A 
ATOM      7  C   UNL     1       6.467   4.437  18.884  0.00  0.00    +0.000 C 
ATOM      8  C   UNL     1       7.241   5.399  17.942  0.00  0.00    +0.000 C 
ATOM      9  N   UNL     1       6.533   5.759  16.679  0.00  0.00    +0.000 NA
ATOM     10  C   UNL     1       5.292   6.519  17.004  0.00  0.00    +0.000 C 
ENDROOT
BRANCH   4  11
ATOM     11  C   UNL     1       2.085   6.772  17.836  0.00  0.00    +0.000 C 
BRANCH  11  12
ATOM     12  O   UNL     1       2.534   8.117  18.010  0.00  0.00    +0.000 OA
BRANCH  12  13
ATOM     13  C   UNL     1       1.774   8.946  18.769  0.00  0.00    +0.000 A 
ATOM     14  C   UNL     1       1.367   8.806  20.075  0.00  0.00    +0.000 A 
ATOM     15  N   UNL     1       0.616   9.722  20.734  0.00  0.00    +0.000 NA
ATOM     16  C   UNL     1       0.268  10.814  20.032  0.00  0.00    +0.000 A 
ATOM     17  N   UNL     1       0.598  11.061  18.758  0.00  0.00    +0.000 NA
ATOM     18  C   UNL     1       1.347  10.111  18.159  0.00  0.00    +0.000 A 
ENDBRANCH  12  13
ENDBRANCH  11  12
ENDBRANCH   4  11
BRANCH   9  19
ATOM     19  C   UNL     1       6.170   4.563  15.872  0.00  0.00    +0.000 C 
BRANCH  19  20
ATOM     20  C   UNL     1       6.572   4.597  14.411  0.00  0.00    +0.000 A 
ATOM     21  C   UNL     1       5.961   3.747  13.496  0.00  0.00    +0.000 A 
ATOM     22  C   UNL     1       6.433   3.727  12.189  0.00  0.00    +0.000 A 
ATOM     23  C   UNL     1       7.489   4.559  11.827  0.00  0.00    +0.000 A 
ATOM     24  C   UNL     1       8.020   5.398  12.791  0.00  0.00    +0.000 A 
ATOM     25  N   UNL     1       7.584   5.435  14.069  0.00  0.00    +0.000 NA
ENDBRANCH  19  20
ENDBRANCH   9  19
TORSDOF 5
ENDMDL
MODEL 6
REMARK VINA RESULT:      -6.9      1.604      1.811
REMARK  Name = 
REMARK  6 active torsions:
REMARK  status: ('A' for Active; 'I' for Inactive)
REMARK    1  A    between atoms: C_1  and  N_2
REMARK    2  A    between atoms: C_4  and  C_5
REMARK    3  A    between atoms: C_5  and  O_6
REMARK    4  A    between atoms: O_6  and  C_7
REMARK    5  A    between atoms: N_17  and  C_18
REMARK    6  A    between atoms: C_18  and  C_19
REMARK                            x       y       z     vdW  Elec       q    Type
REMARK                         _______ _______ _______ _____ _____    ______ ____
ROOT
ATOM      1  C   UNL     1       1.742   2.767  18.249  0.00  0.00    +0.000 C 
ATOM      2  N   UNL     1       2.423   4.036  18.379  0.00  0.00    +0.000 N 
ATOM      3  N   UNL     1       1.820   5.104  18.970  0.00  0.00    +0.000 NA
ATOM      4  C   UNL     1       2.693   6.120  18.791  0.00  0.00    +0.000 A 
ATOM      5  C   UNL     1       3.890   5.656  18.202  0.00  0.00    +0.000 A 
ATOM      6  C   UNL     1       3.719   4.293  18.080  0.00  0.00    +0.000 A 
ATOM      7  C   UNL     1       4.750   3.350  17.573  0.00  0.00    +0.000 C 
ATOM      8  C   UNL     1       6.056   4.152  17.321  0.00  0.00    +0.000 C 
ATOM      9  N   UNL     1       5.862   5.526  16.774  0.00  0.00    +0.000 NA
ATOM     10  C   UNL     1       5.133   6.360  17.771  0.00  0.00    +0.000 C 
ENDROOT
BRANCH   4  11
ATOM     11  C   UNL     1       2.394   7.519  19.253  0.00  0.00    +0.000 C 
BRANCH  11  12
ATOM     12  O   UNL     1       1.676   7.490  20.487  0.00  0.00    +0.000 OA
BRANCH  12  13
ATOM     13  C   UNL     1       1.151   8.656  20.943  0.00  0.00    +0.000 A 
ATOM     14  C   UNL     1       0.987   9.094  22.236  0.00  0.00    +0.000 A 
ATOM     15  N   UNL     1       0.459  10.299  22.564  0.00  0.00    +0.000 NA
ATOM     16  C   UNL     1       0.084  11.077  21.535  0.00  0.00    +0.000 A 
ATOM     17  N   UNL     1       0.189  10.762  20.238  0.00  0.00    +0.000 NA
ATOM     18  C   UNL     1       0.723   9.549  19.978  0.00  0.00    +0.000 A 
ENDBRANCH  12  13
ENDBRANCH  11  12
ENDBRANCH   4  11
BRANCH   9  19
ATOM     19  C   UNL     1       5.101   5.525  15.495  0.00  0.00    +0.000 C 
BRANCH  19  20
ATOM     20  C   UNL     1       5.835   4.987  14.282  0.00  0.00    +0.000 A 
ATOM     21  C   UNL     1       5.284   3.955  13.531  0.00  0.00    +0.000 A 
ATOM     22  C   UNL     1       6.034   3.413  12.495  0.00  0.00    +0.000 A 
ATOM     23  C   UNL     1       7.304   3.919  12.229  0.00  0.00    +0.000 A 
ATOM     24  C   UNL     1       7.765   4.969  13.004  0.00  0.00    +0.000 A 
ATOM     25  N   UNL     1       7.059   5.512  14.019  0.00  0.00    +0.000 NA
ENDBRANCH  19  20
ENDBRANCH   9  19
TORSDOF 5
ENDMDL
MODEL 7
REMARK VINA RESULT:      -6.9      2.293      7.837
REMARK  Name = 
REMARK  6 active torsions:
REMARK  status: ('A' for Active; 'I' for Inactive)
REMARK    1  A    between atoms: C_1  and  N_2
REMARK    2  A    between atoms: C_4  and  C_5
REMARK    3  A    between atoms: C_5  and  O_6
REMARK    4  A    between atoms: O_6  and  C_7
REMARK    5  A    between atoms: N_17  and  C_18
REMARK    6  A    between atoms: C_18  and  C_19
REMARK                            x       y       z     vdW  Elec       q    Type
REMARK                         _______ _______ _______ _____ _____    ______ ____
ROOT
ATOM      1  C   UNL     1       3.373   2.434  20.635  0.00  0.00    +0.000 C 
ATOM      2  N   UNL     1       3.958   3.483  19.830  0.00  0.00    +0.000 N 
ATOM      3  N   UNL     1       5.307   3.587  19.679  0.00  0.00    +0.000 NA
ATOM      4  C   UNL     1       5.476   4.736  18.988  0.00  0.00    +0.000 A 
ATOM      5  C   UNL     1       4.230   5.278  18.601  0.00  0.00    +0.000 A 
ATOM      6  C   UNL     1       3.295   4.369  19.049  0.00  0.00    +0.000 A 
ATOM      7  C   UNL     1       1.831   4.471  18.813  0.00  0.00    +0.000 C 
ATOM      8  C   UNL     1       1.573   5.698  17.897  0.00  0.00    +0.000 C 
ATOM      9  N   UNL     1       2.445   6.880  18.158  0.00  0.00    +0.000 NA
ATOM     10  C   UNL     1       3.864   6.525  17.868  0.00  0.00    +0.000 C 
ENDROOT
BRANCH   4  11
ATOM     11  C   UNL     1       6.840   5.267  18.644  0.00  0.00    +0.000 C 
BRANCH  11  12
ATOM     12  O   UNL     1       7.506   4.379  17.746  0.00  0.00    +0.000 OA
BRANCH  12  13
ATOM     13  C   UNL     1       7.105   4.371  16.449  0.00  0.00    +0.000 A 
ATOM     14  C   UNL     1       6.166   3.581  15.830  0.00  0.00    +0.000 A 
ATOM     15  N   UNL     1       5.840   3.682  14.517  0.00  0.00    +0.000 NA
ATOM     16  C   UNL     1       6.501   4.621  13.818  0.00  0.00    +0.000 A 
ATOM     17  N   UNL     1       7.436   5.445  14.305  0.00  0.00    +0.000 NA
ATOM     18  C   UNL     1       7.713   5.294  15.618  0.00  0.00    +0.000 A 
ENDBRANCH  12  13
ENDBRANCH  11  12
ENDBRANCH   4  11
BRANCH   9  19
ATOM     19  C   UNL     1       2.345   7.360  19.563  0.00  0.00    +0.000 C 
BRANCH  19  20
ATOM     20  C   UNL     1       1.425   8.541  19.800  0.00  0.00    +0.000 A 
ATOM     21  C   UNL     1       1.235   9.493  18.805  0.00  0.00    +0.000 A 
ATOM     22  C   UNL     1       0.474  10.618  19.097  0.00  0.00    +0.000 A 
ATOM     23  C   UNL     1      -0.085  10.759  20.364  0.00  0.00    +0.000 A 
ATOM     24  C   UNL     1       0.126   9.750  21.288  0.00  0.00    +0.000 A 
ATOM     25  N   UNL     1       0.864   8.648  21.032  0.00  0.00    +0.000 NA
ENDBRANCH  19  20
ENDBRANCH   9  19
TORSDOF 5
ENDMDL
MODEL 8
REMARK VINA RESULT:      -6.9      0.941      1.239
REMARK  Name = 
REMARK  6 active torsions:
REMARK  status: ('A' for Active; 'I' for Inactive)
REMARK    1  A    between atoms: C_1  and  N_2
REMARK    2  A    between atoms: C_4  and  C_5
REMARK    3  A    between atoms: C_5  and  O_6
REMARK    4  A    between atoms: O_6  and  C_7
REMARK    5  A    between atoms: N_17  and  C_18
REMARK    6  A    between atoms: C_18  and  C_19
REMARK                            x       y       z     vdW  Elec       q    Type
REMARK                         _______ _______ _______ _____ _____    ______ ____
ROOT
ATOM      1  C   UNL     1       2.981   4.245  20.210  0.00  0.00    +0.000 C 
ATOM      2  N   UNL     1       3.384   5.320  19.331  0.00  0.00    +0.000 N 
ATOM      3  N   UNL     1       2.560   6.377  19.086  0.00  0.00    +0.000 NA
ATOM      4  C   UNL     1       3.208   7.090  18.139  0.00  0.00    +0.000 A 
ATOM      5  C   UNL     1       4.488   6.547  17.887  0.00  0.00    +0.000 A 
ATOM      6  C   UNL     1       4.605   5.494  18.771  0.00  0.00    +0.000 A 
ATOM      7  C   UNL     1       5.819   4.652  18.933  0.00  0.00    +0.000 C 
ATOM      8  C   UNL     1       6.936   5.236  18.026  0.00  0.00    +0.000 C 
ATOM      9  N   UNL     1       6.474   5.765  16.709  0.00  0.00    +0.000 NA
ATOM     10  C   UNL     1       5.567   6.927  16.930  0.00  0.00    +0.000 C 
ENDROOT
BRANCH   4  11
ATOM     11  C   UNL     1       2.617   8.332  17.532  0.00  0.00    +0.000 C 
BRANCH  11  12
ATOM     12  O   UNL     1       1.348   8.616  18.123  0.00  0.00    +0.000 OA
BRANCH  12  13
ATOM     13  C   UNL     1       1.256   9.698  18.937  0.00  0.00    +0.000 A 
ATOM     14  C   UNL     1       1.507  11.022  18.662  0.00  0.00    +0.000 A 
ATOM     15  N   UNL     1       1.360  12.022  19.566  0.00  0.00    +0.000 NA
ATOM     16  C   UNL     1       0.946  11.653  20.790  0.00  0.00    +0.000 A 
ATOM     17  N   UNL     1       0.674  10.401  21.179  0.00  0.00    +0.000 NA
ATOM     18  C   UNL     1       0.840   9.452  20.232  0.00  0.00    +0.000 A 
ENDBRANCH  12  13
ENDBRANCH  11  12
ENDBRANCH   4  11
BRANCH   9  19
ATOM     19  C   UNL     1       5.757   4.738  15.906  0.00  0.00    +0.000 C 
BRANCH  19  20
ATOM     20  C   UNL     1       6.302   4.479  14.515  0.00  0.00    +0.000 A 
ATOM     21  C   UNL     1       7.388   5.206  14.041  0.00  0.00    +0.000 A 
ATOM     22  C   UNL     1       7.788   5.021  12.723  0.00  0.00    +0.000 A 
ATOM     23  C   UNL     1       7.106   4.112  11.920  0.00  0.00    +0.000 A 
ATOM     24  C   UNL     1       6.055   3.405  12.478  0.00  0.00    +0.000 A 
ATOM     25  N   UNL     1       5.643   3.568  13.754  0.00  0.00    +0.000 NA
ENDBRANCH  19  20
ENDBRANCH   9  19
TORSDOF 5
ENDMDL
MODEL 9
REMARK VINA RESULT:      -6.8      2.003      2.329
REMARK  Name = 
REMARK  6 active torsions:
REMARK  status: ('A' for Active; 'I' for Inactive)
REMARK    1  A    between atoms: C_1  and  N_2
REMARK    2  A    between atoms: C_4  and  C_5
REMARK    3  A    between atoms: C_5  and  O_6
REMARK    4  A    between atoms: O_6  and  C_7
REMARK    5  A    between atoms: N_17  and  C_18
REMARK    6  A    between atoms: C_18  and  C_19
REMARK                            x       y       z     vdW  Elec       q    Type
REMARK                         _______ _______ _______ _____ _____    ______ ____
ROOT
ATOM      1  C   UNL     1       1.044   2.791  19.767  0.00  0.00    +0.000 C 
ATOM      2  N   UNL     1       1.796   4.025  19.754  0.00  0.00    +0.000 N 
ATOM      3  N   UNL     1       1.246   5.191  20.192  0.00  0.00    +0.000 NA
ATOM      4  C   UNL     1       2.180   6.126  19.909  0.00  0.00    +0.000 A 
ATOM      5  C   UNL     1       3.359   5.525  19.413  0.00  0.00    +0.000 A 
ATOM      6  C   UNL     1       3.110   4.169  19.459  0.00  0.00    +0.000 A 
ATOM      7  C   UNL     1       4.093   3.114  19.100  0.00  0.00    +0.000 C 
ATOM      8  C   UNL     1       5.448   3.803  18.782  0.00  0.00    +0.000 C 
ATOM      9  N   UNL     1       5.345   5.106  18.063  0.00  0.00    +0.000 NA
ATOM     10  C   UNL     1       4.648   6.099  18.929  0.00  0.00    +0.000 C 
ENDROOT
BRANCH   4  11
ATOM     11  C   UNL     1       1.956   7.587  20.185  0.00  0.00    +0.000 C 
BRANCH  11  12
ATOM     12  O   UNL     1       1.214   7.755  21.394  0.00  0.00    +0.000 OA
BRANCH  12  13
ATOM     13  C   UNL     1       0.553   8.926  21.574  0.00  0.00    +0.000 A 
ATOM     14  C   UNL     1       0.013   9.778  20.639  0.00  0.00    +0.000 A 
ATOM     15  N   UNL     1      -0.645  10.922  20.950  0.00  0.00    +0.000 NA
ATOM     16  C   UNL     1      -0.750  11.203  22.260  0.00  0.00    +0.000 A 
ATOM     17  N   UNL     1      -0.265  10.458  23.261  0.00  0.00    +0.000 NA
ATOM     18  C   UNL     1       0.379   9.332  22.884  0.00  0.00    +0.000 A 
ENDBRANCH  12  13
ENDBRANCH  11  12
ENDBRANCH   4  11
BRANCH   9  19
ATOM     19  C   UNL     1       4.609   4.986  16.775  0.00  0.00    +0.000 C 
BRANCH  19  20
ATOM     20  C   UNL     1       5.461   4.850  15.529  0.00  0.00    +0.000 A 
ATOM     21  C   UNL     1       5.066   4.005  14.499  0.00  0.00    +0.000 A 
ATOM     22  C   UNL     1       5.926   3.820  13.423  0.00  0.00    +0.000 A 
ATOM     23  C   UNL     1       7.146   4.489  13.397  0.00  0.00    +0.000 A 
ATOM     24  C   UNL     1       7.450   5.338  14.448  0.00  0.00    +0.000 A 
ATOM     25  N   UNL     1       6.634   5.533  15.507  0.00  0.00    +0.000 NA
ENDBRANCH  19  20
ENDBRANCH   9  19
TORSDOF 5
ENDMDL
