MODEL 1
REMARK VINA RESULT:      -7.2      0.000      0.000
REMARK  Name = 
REMARK  4 active torsions:
REMARK  status: ('A' for Active; 'I' for Inactive)
REMARK    1  A    between atoms: N_2  and  C_4
REMARK    2  A    between atoms: C_7  and  N_8
REMARK    3  A    between atoms: C_14  and  S_15
REMARK    4  A    between atoms: S_15  and  N_18
REMARK                            x       y       z     vdW  Elec       q    Type
REMARK                         _______ _______ _______ _____ _____    ______ ____
ROOT
ATOM      1  C   UNL     1       2.393   7.822  18.193  0.00  0.00    +0.000 A 
ATOM      2  C   UNL     1       3.572   8.123  17.522  0.00  0.00    +0.000 A 
ATOM      3  C   UNL     1       4.420   7.081  17.137  0.00  0.00    +0.000 A 
ATOM      4  C   UNL     1       4.126   5.715  17.367  0.00  0.00    +0.000 A 
ATOM      5  C   UNL     1       2.862   5.443  17.971  0.00  0.00    +0.000 A 
ATOM      6  C   UNL     1       2.031   6.491  18.423  0.00  0.00    +0.000 A 
ENDROOT
BRANCH   4   7
ATOM      7  N   UNL     1       5.093   4.782  17.023  0.00  0.00    +0.000 N 
ATOM      8  C   UNL     1       6.123   4.326  17.989  0.00  0.00    +0.000 C 
ATOM      9  C   UNL     1       7.528   4.788  17.564  0.00  0.00    +0.000 C 
ATOM     10  O   UNL     1       7.837   4.377  16.225  0.00  0.00    +0.000 OA
ATOM     11  C   UNL     1       6.881   4.928  15.310  0.00  0.00    +0.000 C 
ATOM     12  C   UNL     1       5.452   4.463  15.629  0.00  0.00    +0.000 C 
ENDBRANCH   4   7
BRANCH   1  14
ATOM     13  O   UNL     1       1.092   9.689  17.756  0.00  0.00    +0.000 OA
ATOM     14  N   UNL     1       1.508   8.912  18.622  0.00  0.00    +0.000 N 
ATOM     15  O   UNL     1       1.246   8.983  19.830  0.00  0.00    +0.000 OA
ENDBRANCH   1  14
BRANCH   5  16
ATOM     16  S   UNL     1       2.183   3.789  18.061  0.00  0.00    +0.000 S 
ATOM     17  O   UNL     1       0.823   3.956  18.545  0.00  0.00    +0.000 OA
ATOM     18  O   UNL     1       2.474   3.094  16.823  0.00  0.00    +0.000 OA
BRANCH  16  19
ATOM     19  N   UNL     1       3.001   2.956  19.324  0.00  0.00    +0.000 NA
ATOM     20  C   UNL     1       2.262   1.856  20.018  0.00  0.00    +0.000 C 
ATOM     21  C   UNL     1       1.249   2.408  21.039  0.00  0.00    +0.000 C 
ATOM     22  O   UNL     1       1.869   3.298  21.981  0.00  0.00    +0.000 OA
ATOM     23  C   UNL     1       2.539   4.384  21.325  0.00  0.00    +0.000 C 
ATOM     24  C   UNL     1       3.609   3.858  20.365  0.00  0.00    +0.000 C 
ENDBRANCH  16  19
ENDBRANCH   5  16
TORSDOF 4
ENDMDL
MODEL 2
REMARK VINA RESULT:      -7.0      0.773      1.335
REMARK  Name = 
REMARK  4 active torsions:
REMARK  status: ('A' for Active; 'I' for Inactive)
REMARK    1  A    between atoms: N_2  and  C_4
REMARK    2  A    between atoms: C_7  and  N_8
REMARK    3  A    between atoms: C_14  and  S_15
REMARK    4  A    between atoms: S_15  and  N_18
REMARK                            x       y       z     vdW  Elec       q    Type
REMARK                         _______ _______ _______ _____ _____    ______ ____
ROOT
ATOM      1  C   UNL     1       2.429   7.856  18.171  0.00  0.00    +0.000 A 
ATOM      2  C   UNL     1       3.600   8.141  17.479  0.00  0.00    +0.000 A 
ATOM      3  C   UNL     1       4.466   7.094  17.151  0.00  0.00    +0.000 A 
ATOM      4  C   UNL     1       4.199   5.739  17.461  0.00  0.00    +0.000 A 
ATOM      5  C   UNL     1       2.942   5.478  18.084  0.00  0.00    +0.000 A 
ATOM      6  C   UNL     1       2.093   6.534  18.478  0.00  0.00    +0.000 A 
ENDROOT
BRANCH   4   7
ATOM      7  N   UNL     1       5.183   4.806  17.167  0.00  0.00    +0.000 N 
ATOM      8  C   UNL     1       6.245   4.452  18.141  0.00  0.00    +0.000 C 
ATOM      9  C   UNL     1       7.628   4.914  17.649  0.00  0.00    +0.000 C 
ATOM     10  O   UNL     1       7.920   4.408  16.339  0.00  0.00    +0.000 OA
ATOM     11  C   UNL     1       6.930   4.862  15.407  0.00  0.00    +0.000 C 
ATOM     12  C   UNL     1       5.521   4.388  15.793  0.00  0.00    +0.000 C 
ENDBRANCH   4   7
BRANCH   1  14
ATOM     13  O   UNL     1       1.028   9.621  17.626  0.00  0.00    +0.000 OA
ATOM     14  N   UNL     1       1.524   8.953  18.540  0.00  0.00    +0.000 N 
ATOM     15  O   UNL     1       1.326   9.138  19.747  0.00  0.00    +0.000 OA
ENDBRANCH   1  14
BRANCH   5  16
ATOM     16  S   UNL     1       2.296   3.819  18.271  0.00  0.00    +0.000 S 
ATOM     17  O   UNL     1       1.525   3.567  17.066  0.00  0.00    +0.000 OA
ATOM     18  O   UNL     1       3.369   2.940  18.690  0.00  0.00    +0.000 OA
BRANCH  16  19
ATOM     19  N   UNL     1       1.133   3.852  19.539  0.00  0.00    +0.000 NA
ATOM     20  C   UNL     1       1.329   4.855  20.631  0.00  0.00    +0.000 C 
ATOM     21  C   UNL     1       2.408   4.400  21.633  0.00  0.00    +0.000 C 
ATOM     22  O   UNL     1       2.129   3.095  22.164  0.00  0.00    +0.000 OA
ATOM     23  C   UNL     1       1.987   2.116  21.125  0.00  0.00    +0.000 C 
ATOM     24  C   UNL     1       0.862   2.509  20.163  0.00  0.00    +0.000 C 
ENDBRANCH  16  19
ENDBRANCH   5  16
TORSDOF 4
ENDMDL
MODEL 3
REMARK VINA RESULT:      -6.7      1.768      4.718
REMARK  Name = 
REMARK  4 active torsions:
REMARK  status: ('A' for Active; 'I' for Inactive)
REMARK    1  A    between atoms: N_2  and  C_4
REMARK    2  A    between atoms: C_7  and  N_8
REMARK    3  A    between atoms: C_14  and  S_15
REMARK    4  A    between atoms: S_15  and  N_18
REMARK                            x       y       z     vdW  Elec       q    Type
REMARK                         _______ _______ _______ _____ _____    ______ ____
ROOT
ATOM      1  C   UNL     1       1.955   7.747  19.334  0.00  0.00    +0.000 A 
ATOM      2  C   UNL     1       1.398   7.091  20.425  0.00  0.00    +0.000 A 
ATOM      3  C   UNL     1       1.613   5.718  20.574  0.00  0.00    +0.000 A 
ATOM      4  C   UNL     1       2.402   4.954  19.680  0.00  0.00    +0.000 A 
ATOM      5  C   UNL     1       3.035   5.682  18.628  0.00  0.00    +0.000 A 
ATOM      6  C   UNL     1       2.769   7.055  18.433  0.00  0.00    +0.000 A 
ENDROOT
BRANCH   4   7
ATOM      7  N   UNL     1       2.459   3.583  19.884  0.00  0.00    +0.000 N 
ATOM      8  C   UNL     1       3.563   2.946  20.643  0.00  0.00    +0.000 C 
ATOM      9  C   UNL     1       4.429   2.062  19.728  0.00  0.00    +0.000 C 
ATOM     10  O   UNL     1       3.639   1.092  19.028  0.00  0.00    +0.000 OA
ATOM     11  C   UNL     1       2.654   1.752  18.222  0.00  0.00    +0.000 C 
ATOM     12  C   UNL     1       1.704   2.610  19.071  0.00  0.00    +0.000 C 
ENDBRANCH   4   7
BRANCH   1  14
ATOM     13  O   UNL     1       1.105   9.780  20.053  0.00  0.00    +0.000 OA
ATOM     14  N   UNL     1       1.714   9.185  19.157  0.00  0.00    +0.000 N 
ATOM     15  O   UNL     1       2.133   9.703  18.113  0.00  0.00    +0.000 OA
ENDBRANCH   1  14
BRANCH   5  16
ATOM     16  S   UNL     1       4.302   4.957  17.594  0.00  0.00    +0.000 S 
ATOM     17  O   UNL     1       5.401   4.645  18.491  0.00  0.00    +0.000 OA
ATOM     18  O   UNL     1       3.698   3.949  16.746  0.00  0.00    +0.000 OA
BRANCH  16  19
ATOM     19  N   UNL     1       4.910   6.196  16.567  0.00  0.00    +0.000 NA
ATOM     20  C   UNL     1       5.288   5.813  15.170  0.00  0.00    +0.000 C 
ATOM     21  C   UNL     1       6.656   5.106  15.127  0.00  0.00    +0.000 C 
ATOM     22  O   UNL     1       7.685   5.890  15.751  0.00  0.00    +0.000 OA
ATOM     23  C   UNL     1       7.353   6.221  17.107  0.00  0.00    +0.000 C 
ATOM     24  C   UNL     1       6.034   6.998  17.166  0.00  0.00    +0.000 C 
ENDBRANCH  16  19
ENDBRANCH   5  16
TORSDOF 4
ENDMDL
MODEL 4
REMARK VINA RESULT:      -6.6      2.736      4.769
REMARK  Name = 
REMARK  4 active torsions:
REMARK  status: ('A' for Active; 'I' for Inactive)
REMARK    1  A    between atoms: N_2  and  C_4
REMARK    2  A    between atoms: C_7  and  N_8
REMARK    3  A    between atoms: C_14  and  S_15
REMARK    4  A    between atoms: S_15  and  N_18
REMARK                            x       y       z     vdW  Elec       q    Type
REMARK                         _______ _______ _______ _____ _____    ______ ____
ROOT
ATOM      1  C   UNL     1       5.803   3.925  13.731  0.00  0.00    +0.000 A 
ATOM      2  C   UNL     1       7.031   4.464  14.093  0.00  0.00    +0.000 A 
ATOM      3  C   UNL     1       7.159   5.086  15.338  0.00  0.00    +0.000 A 
ATOM      4  C   UNL     1       6.103   5.170  16.276  0.00  0.00    +0.000 A 
ATOM      5  C   UNL     1       4.887   4.520  15.907  0.00  0.00    +0.000 A 
ATOM      6  C   UNL     1       4.729   3.949  14.626  0.00  0.00    +0.000 A 
ENDROOT
BRANCH   4   7
ATOM      7  N   UNL     1       6.330   5.897  17.436  0.00  0.00    +0.000 N 
ATOM      8  C   UNL     1       6.459   7.375  17.424  0.00  0.00    +0.000 C 
ATOM      9  C   UNL     1       7.887   7.812  17.798  0.00  0.00    +0.000 C 
ATOM     10  O   UNL     1       8.299   7.254  19.053  0.00  0.00    +0.000 OA
ATOM     11  C   UNL     1       8.263   5.822  18.988  0.00  0.00    +0.000 C 
ATOM     12  C   UNL     1       6.852   5.299  18.679  0.00  0.00    +0.000 C 
ENDBRANCH   4   7
BRANCH   1  14
ATOM     13  O   UNL     1       6.660   2.798  11.896  0.00  0.00    +0.000 OA
ATOM     14  N   UNL     1       5.652   3.290  12.414  0.00  0.00    +0.000 N 
ATOM     15  O   UNL     1       4.522   3.301  11.909  0.00  0.00    +0.000 OA
ENDBRANCH   1  14
BRANCH   5  16
ATOM     16  S   UNL     1       3.555   4.253  17.072  0.00  0.00    +0.000 S 
ATOM     17  O   UNL     1       3.389   5.519  17.765  0.00  0.00    +0.000 OA
ATOM     18  O   UNL     1       2.454   3.606  16.387  0.00  0.00    +0.000 OA
BRANCH  16  19
ATOM     19  N   UNL     1       4.124   3.164  18.276  0.00  0.00    +0.000 NA
ATOM     20  C   UNL     1       3.534   1.789  18.299  0.00  0.00    +0.000 C 
ATOM     21  C   UNL     1       2.138   1.782  18.951  0.00  0.00    +0.000 C 
ATOM     22  O   UNL     1       2.157   2.365  20.264  0.00  0.00    +0.000 OA
ATOM     23  C   UNL     1       2.677   3.702  20.244  0.00  0.00    +0.000 C 
ATOM     24  C   UNL     1       4.098   3.721  19.674  0.00  0.00    +0.000 C 
ENDBRANCH  16  19
ENDBRANCH   5  16
TORSDOF 4
ENDMDL
MODEL 5
REMARK VINA RESULT:      -6.6      1.587      2.226
REMARK  Name = 
REMARK  4 active torsions:
REMARK  status: ('A' for Active; 'I' for Inactive)
REMARK    1  A    between atoms: N_2  and  C_4
REMARK    2  A    between atoms: C_7  and  N_8
REMARK    3  A    between atoms: C_14  and  S_15
REMARK    4  A    between atoms: S_15  and  N_18
REMARK                            x       y       z     vdW  Elec       q    Type
REMARK                         _______ _______ _______ _____ _____    ______ ____
ROOT
ATOM      1  C   UNL     1       2.386   7.669  19.052  0.00  0.00    +0.000 A 
ATOM      2  C   UNL     1       3.000   8.077  17.874  0.00  0.00    +0.000 A 
ATOM      3  C   UNL     1       3.986   7.266  17.306  0.00  0.00    +0.000 A 
ATOM      4  C   UNL     1       4.377   6.021  17.853  0.00  0.00    +0.000 A 
ATOM      5  C   UNL     1       3.656   5.592  19.007  0.00  0.00    +0.000 A 
ATOM      6  C   UNL     1       2.707   6.435  19.625  0.00  0.00    +0.000 A 
ENDROOT
BRANCH   4   7
ATOM      7  N   UNL     1       5.435   5.357  17.248  0.00  0.00    +0.000 N 
ATOM      8  C   UNL     1       6.849   5.700  17.542  0.00  0.00    +0.000 C 
ATOM      9  C   UNL     1       7.542   6.307  16.309  0.00  0.00    +0.000 C 
ATOM     10  O   UNL     1       7.430   5.451  15.164  0.00  0.00    +0.000 OA
ATOM     11  C   UNL     1       6.049   5.233  14.848  0.00  0.00    +0.000 C 
ATOM     12  C   UNL     1       5.296   4.568  16.009  0.00  0.00    +0.000 C 
ENDBRANCH   4   7
BRANCH   1  14
ATOM     13  O   UNL     1       0.892   9.439  18.984  0.00  0.00    +0.000 OA
ATOM     14  N   UNL     1       1.365   8.526  19.669  0.00  0.00    +0.000 N 
ATOM     15  O   UNL     1       1.055   8.279  20.841  0.00  0.00    +0.000 OA
ENDBRANCH   1  14
BRANCH   5  16
ATOM     16  S   UNL     1       3.791   3.929  19.654  0.00  0.00    +0.000 S 
ATOM     17  O   UNL     1       5.216   3.655  19.720  0.00  0.00    +0.000 OA
ATOM     18  O   UNL     1       2.934   3.806  20.817  0.00  0.00    +0.000 OA
BRANCH  16  19
ATOM     19  N   UNL     1       3.190   2.852  18.456  0.00  0.00    +0.000 NA
ATOM     20  C   UNL     1       2.278   3.417  17.413  0.00  0.00    +0.000 C 
ATOM     21  C   UNL     1       0.848   3.612  17.954  0.00  0.00    +0.000 C 
ATOM     22  O   UNL     1       0.317   2.400  18.513  0.00  0.00    +0.000 OA
ATOM     23  C   UNL     1       1.161   1.877  19.548  0.00  0.00    +0.000 C 
ATOM     24  C   UNL     1       2.567   1.598  19.009  0.00  0.00    +0.000 C 
ENDBRANCH  16  19
ENDBRANCH   5  16
TORSDOF 4
ENDMDL
MODEL 6
REMARK VINA RESULT:      -6.5      1.438      2.363
REMARK  Name = 
REMARK  4 active torsions:
REMARK  status: ('A' for Active; 'I' for Inactive)
REMARK    1  A    between atoms: N_2  and  C_4
REMARK    2  A    between atoms: C_7  and  N_8
REMARK    3  A    between atoms: C_14  and  S_15
REMARK    4  A    between atoms: S_15  and  N_18
REMARK                            x       y       z     vdW  Elec       q    Type
REMARK                         _______ _______ _______ _____ _____    ______ ____
ROOT
ATOM      1  C   UNL     1       2.235   8.094  18.636  0.00  0.00    +0.000 A 
ATOM      2  C   UNL     1       3.193   8.180  17.634  0.00  0.00    +0.000 A 
ATOM      3  C   UNL     1       4.152   7.170  17.522  0.00  0.00    +0.000 A 
ATOM      4  C   UNL     1       4.183   6.032  18.364  0.00  0.00    +0.000 A 
ATOM      5  C   UNL     1       3.125   5.932  19.316  0.00  0.00    +0.000 A 
ATOM      6  C   UNL     1       2.193   6.979  19.480  0.00  0.00    +0.000 A 
ENDROOT
BRANCH   4   7
ATOM      7  N   UNL     1       5.243   5.150  18.213  0.00  0.00    +0.000 N 
ATOM      8  C   UNL     1       6.477   5.257  19.031  0.00  0.00    +0.000 C 
ATOM      9  C   UNL     1       7.688   5.641  18.162  0.00  0.00    +0.000 C 
ATOM     10  O   UNL     1       7.858   4.738  17.061  0.00  0.00    +0.000 OA
ATOM     11  C   UNL     1       6.686   4.746  16.236  0.00  0.00    +0.000 C 
ATOM     12  C   UNL     1       5.436   4.310  17.015  0.00  0.00    +0.000 C 
ENDBRANCH   4   7
BRANCH   1  14
ATOM     13  O   UNL     1       0.834   9.427  19.914  0.00  0.00    +0.000 OA
ATOM     14  N   UNL     1       1.237   9.163  18.776  0.00  0.00    +0.000 N 
ATOM     15  O   UNL     1       0.862   9.722  17.737  0.00  0.00    +0.000 OA
ENDBRANCH   1  14
BRANCH   5  16
ATOM     16  S   UNL     1       2.819   4.436  20.249  0.00  0.00    +0.000 S 
ATOM     17  O   UNL     1       3.993   3.606  20.044  0.00  0.00    +0.000 OA
ATOM     18  O   UNL     1       2.359   4.795  21.576  0.00  0.00    +0.000 OA
BRANCH  16  19
ATOM     19  N   UNL     1       1.540   3.588  19.473  0.00  0.00    +0.000 NA
ATOM     20  C   UNL     1       1.565   2.093  19.531  0.00  0.00    +0.000 C 
ATOM     21  C   UNL     1       2.569   1.503  18.522  0.00  0.00    +0.000 C 
ATOM     22  O   UNL     1       2.323   1.970  17.186  0.00  0.00    +0.000 OA
ATOM     23  C   UNL     1       2.345   3.403  17.112  0.00  0.00    +0.000 C 
ATOM     24  C   UNL     1       1.295   4.009  18.048  0.00  0.00    +0.000 C 
ENDBRANCH  16  19
ENDBRANCH   5  16
TORSDOF 4
ENDMDL
MODEL 7
REMARK VINA RESULT:      -6.4      1.570      4.930
REMARK  Name = 
REMARK  4 active torsions:
REMARK  status: ('A' for Active; 'I' for Inactive)
REMARK    1  A    between atoms: N_2  and  C_4
REMARK    2  A    between atoms: C_7  and  N_8
REMARK    3  A    between atoms: C_14  and  S_15
REMARK    4  A    between atoms: S_15  and  N_18
REMARK                            x       y       z     vdW  Elec       q    Type
REMARK                         _______ _______ _______ _____ _____    ______ ____
ROOT
ATOM      1  C   UNL     1       5.914   5.554  16.662  0.00  0.00    +0.000 A 
ATOM      2  C   UNL     1       5.857   6.808  17.259  0.00  0.00    +0.000 A 
ATOM      3  C   UNL     1       4.648   7.243  17.808  0.00  0.00    +0.000 A 
ATOM      4  C   UNL     1       3.471   6.457  17.818  0.00  0.00    +0.000 A 
ATOM      5  C   UNL     1       3.596   5.140  17.283  0.00  0.00    +0.000 A 
ATOM      6  C   UNL     1       4.794   4.717  16.667  0.00  0.00    +0.000 A 
ENDROOT
BRANCH   4   7
ATOM      7  N   UNL     1       2.311   7.041  18.306  0.00  0.00    +0.000 N 
ATOM      8  C   UNL     1       1.631   8.151  17.594  0.00  0.00    +0.000 C 
ATOM      9  C   UNL     1       1.703   9.458  18.404  0.00  0.00    +0.000 C 
ATOM     10  O   UNL     1       1.190   9.287  19.732  0.00  0.00    +0.000 OA
ATOM     11  C   UNL     1       1.944   8.282  20.422  0.00  0.00    +0.000 C 
ATOM     12  C   UNL     1       1.872   6.923  19.710  0.00  0.00    +0.000 C 
ENDBRANCH   4   7
BRANCH   1  14
ATOM     13  O   UNL     1       7.421   5.451  14.904  0.00  0.00    +0.000 OA
ATOM     14  N   UNL     1       7.174   5.097  16.062  0.00  0.00    +0.000 N 
ATOM     15  O   UNL     1       7.902   4.377  16.758  0.00  0.00    +0.000 OA
ENDBRANCH   1  14
BRANCH   5  16
ATOM     16  S   UNL     1       2.320   3.902  17.485  0.00  0.00    +0.000 S 
ATOM     17  O   UNL     1       1.063   4.619  17.359  0.00  0.00    +0.000 OA
ATOM     18  O   UNL     1       2.635   2.761  16.648  0.00  0.00    +0.000 OA
BRANCH  16  19
ATOM     19  N   UNL     1       2.362   3.369  19.119  0.00  0.00    +0.000 NA
ATOM     20  C   UNL     1       3.446   3.912  19.996  0.00  0.00    +0.000 C 
ATOM     21  C   UNL     1       4.793   3.212  19.733  0.00  0.00    +0.000 C 
ATOM     22  O   UNL     1       4.687   1.785  19.856  0.00  0.00    +0.000 OA
ATOM     23  C   UNL     1       3.683   1.249  18.983  0.00  0.00    +0.000 C 
ATOM     24  C   UNL     1       2.317   1.873  19.283  0.00  0.00    +0.000 C 
ENDBRANCH  16  19
ENDBRANCH   5  16
TORSDOF 4
ENDMDL
MODEL 8
REMARK VINA RESULT:      -6.4      0.999      1.540
REMARK  Name = 
REMARK  4 active torsions:
REMARK  status: ('A' for Active; 'I' for Inactive)
REMARK    1  A    between atoms: N_2  and  C_4
REMARK    2  A    between atoms: C_7  and  N_8
REMARK    3  A    between atoms: C_14  and  S_15
REMARK    4  A    between atoms: S_15  and  N_18
REMARK                            x       y       z     vdW  Elec       q    Type
REMARK                         _______ _______ _______ _____ _____    ______ ____
ROOT
ATOM      1  C   UNL     1       2.443   7.817  18.232  0.00  0.00    +0.000 A 
ATOM      2  C   UNL     1       3.646   8.163  17.627  0.00  0.00    +0.000 A 
ATOM      3  C   UNL     1       4.483   7.150  17.152  0.00  0.00    +0.000 A 
ATOM      4  C   UNL     1       4.155   5.775  17.223  0.00  0.00    +0.000 A 
ATOM      5  C   UNL     1       2.870   5.467  17.762  0.00  0.00    +0.000 A 
ATOM      6  C   UNL     1       2.049   6.478  18.305  0.00  0.00    +0.000 A 
ENDROOT
BRANCH   4   7
ATOM      7  N   UNL     1       5.113   4.863  16.803  0.00  0.00    +0.000 N 
ATOM      8  C   UNL     1       6.132   4.311  17.730  0.00  0.00    +0.000 C 
ATOM      9  C   UNL     1       7.545   4.790  17.352  0.00  0.00    +0.000 C 
ATOM     10  O   UNL     1       7.856   4.494  15.984  0.00  0.00    +0.000 OA
ATOM     11  C   UNL     1       6.912   5.135  15.117  0.00  0.00    +0.000 C 
ATOM     12  C   UNL     1       5.476   4.662  15.387  0.00  0.00    +0.000 C 
ENDBRANCH   4   7
BRANCH   1  14
ATOM     13  O   UNL     1       1.218   9.768  17.978  0.00  0.00    +0.000 OA
ATOM     14  N   UNL     1       1.569   8.875  18.756  0.00  0.00    +0.000 N 
ATOM     15  O   UNL     1       1.249   8.802  19.950  0.00  0.00    +0.000 OA
ENDBRANCH   1  14
BRANCH   5  16
ATOM     16  S   UNL     1       2.157   3.829  17.653  0.00  0.00    +0.000 S 
ATOM     17  O   UNL     1       0.759   4.039  17.318  0.00  0.00    +0.000 OA
ATOM     18  O   UNL     1       3.019   2.993  16.843  0.00  0.00    +0.000 OA
BRANCH  16  19
ATOM     19  N   UNL     1       2.134   3.162  19.238  0.00  0.00    +0.000 NA
ATOM     20  C   UNL     1       3.032   3.783  20.263  0.00  0.00    +0.000 C 
ATOM     21  C   UNL     1       4.492   3.325  20.090  0.00  0.00    +0.000 C 
ATOM     22  O   UNL     1       4.608   1.893  20.092  0.00  0.00    +0.000 OA
ATOM     23  C   UNL     1       3.787   1.292  19.081  0.00  0.00    +0.000 C 
ATOM     24  C   UNL     1       2.317   1.669  19.283  0.00  0.00    +0.000 C 
ENDBRANCH  16  19
ENDBRANCH   5  16
TORSDOF 4
ENDMDL
MODEL 9
REMARK VINA RESULT:      -6.4      1.651      2.365
REMARK  Name = 
REMARK  4 active torsions:
REMARK  status: ('A' for Active; 'I' for Inactive)
REMARK    1  A    between atoms: N_2  and  C_4
REMARK    2  A    between atoms: C_7  and  N_8
REMARK    3  A    between atoms: C_14  and  S_15
REMARK    4  A    between atoms: S_15  and  N_18
REMARK                            x       y       z     vdW  Elec       q    Type
REMARK                         _______ _______ _______ _____ _____    ______ ____
ROOT
ATOM      1  C   UNL     1       1.793   8.533  18.925  0.00  0.00    +0.000 A 
ATOM      2  C   UNL     1       2.560   8.779  17.792  0.00  0.00    +0.000 A 
ATOM      3  C   UNL     1       3.548   7.860  17.428  0.00  0.00    +0.000 A 
ATOM      4  C   UNL     1       3.794   6.662  18.140  0.00  0.00    +0.000 A 
ATOM      5  C   UNL     1       2.922   6.398  19.238  0.00  0.00    +0.000 A 
ATOM      6  C   UNL     1       1.967   7.352  19.652  0.00  0.00    +0.000 A 
ENDROOT
BRANCH   4   7
ATOM      7  N   UNL     1       4.867   5.881  17.734  0.00  0.00    +0.000 N 
ATOM      8  C   UNL     1       6.222   6.044  18.317  0.00  0.00    +0.000 C 
ATOM      9  C   UNL     1       7.217   6.578  17.271  0.00  0.00    +0.000 C 
ATOM     10  O   UNL     1       7.240   5.757  16.095  0.00  0.00    +0.000 OA
ATOM     11  C   UNL     1       5.936   5.715  15.501  0.00  0.00    +0.000 C 
ATOM     12  C   UNL     1       4.889   5.132  16.463  0.00  0.00    +0.000 C 
ENDBRANCH   4   7
BRANCH   1  14
ATOM     13  O   UNL     1       0.058   9.991  18.441  0.00  0.00    +0.000 OA
ATOM     14  N   UNL     1       0.768   9.505  19.328  0.00  0.00    +0.000 N 
ATOM     15  O   UNL     1       0.692   9.776  20.533  0.00  0.00    +0.000 OA
ENDBRANCH   1  14
BRANCH   5  16
ATOM     16  S   UNL     1       2.874   4.810  20.061  0.00  0.00    +0.000 S 
ATOM     17  O   UNL     1       4.084   4.123  19.643  0.00  0.00    +0.000 OA
ATOM     18  O   UNL     1       2.556   5.013  21.460  0.00  0.00    +0.000 OA
BRANCH  16  19
ATOM     19  N   UNL     1       1.590   3.900  19.367  0.00  0.00    +0.000 NA
ATOM     20  C   UNL     1       1.510   2.446  19.708  0.00  0.00    +0.000 C 
ATOM     21  C   UNL     1       2.530   1.617  18.904  0.00  0.00    +0.000 C 
ATOM     22  O   UNL     1       2.398   1.831  17.490  0.00  0.00    +0.000 OA
ATOM     23  C   UNL     1       2.522   3.219  17.148  0.00  0.00    +0.000 C 
ATOM     24  C   UNL     1       1.462   4.051  17.875  0.00  0.00    +0.000 C 
ENDBRANCH  16  19
ENDBRANCH   5  16
TORSDOF 4
ENDMDL
