MODEL 1
REMARK VINA RESULT:      -6.4      0.000      0.000
REMARK  Name = 
REMARK  11 active torsions:
REMARK  status: ('A' for Active; 'I' for Inactive)
REMARK    1  A    between atoms: C_1  and  C_2
REMARK    2  A    between atoms: C_5  and  O_6
REMARK    3  A    between atoms: O_6  and  C_7
REMARK    4  A    between atoms: C_7  and  C_8
REMARK    5  A    between atoms: C_8  and  O_9
REMARK    6  A    between atoms: C_8  and  C_10
REMARK    7  A    between atoms: C_10  and  N_11
REMARK    8  A    between atoms: N_14  and  C_15
REMARK    9  A    between atoms: C_15  and  C_16
REMARK   10  A    between atoms: C_16  and  O_17
REMARK   11  A    between atoms: C_20  and  C_21
REMARK                            x       y       z     vdW  Elec       q    Type
REMARK                         _______ _______ _______ _____ _____    ______ ____
ROOT
ATOM      1  C   UNL     1       6.498   6.576  17.450  0.00  0.00    +0.000 C 
ENDROOT
BRANCH   1   2
ATOM      2  O   UNL     1       6.862   7.786  16.829  0.00  0.00    +0.000 OA
ATOM      3  H   UNL     1       7.843   7.901  16.932  0.00  0.00    +0.000 HD
ENDBRANCH   1   2
BRANCH   1   4
ATOM      4  C   UNL     1       7.322   5.423  16.860  0.00  0.00    +0.000 C 
BRANCH   4   5
ATOM      5  O   UNL     1       7.355   5.629  15.499  0.00  0.00    +0.000 OA
BRANCH   5  10
ATOM      6  C   UNL     1       5.088   2.675  11.241  0.00  0.00    +0.000 C 
ATOM      7  C   UNL     1       5.692   3.413  12.398  0.00  0.00    +0.000 A 
ATOM      8  C   UNL     1       5.110   3.358  13.673  0.00  0.00    +0.000 A 
ATOM      9  C   UNL     1       5.665   4.080  14.732  0.00  0.00    +0.000 A 
ATOM     10  C   UNL     1       6.817   4.861  14.525  0.00  0.00    +0.000 A 
ATOM     11  C   UNL     1       7.421   4.894  13.255  0.00  0.00    +0.000 A 
ATOM     12  C   UNL     1       8.661   5.711  12.994  0.00  0.00    +0.000 C 
ATOM     13  C   UNL     1       6.849   4.176  12.197  0.00  0.00    +0.000 A 
ENDBRANCH   5  10
ENDBRANCH   4   5
ENDBRANCH   1   4
BRANCH   1  14
ATOM     14  C   UNL     1       4.979   6.380  17.320  0.00  0.00    +0.000 C 
BRANCH  14  15
ATOM     15  N   UNL     1       4.257   6.321  18.616  0.00  0.00    +0.000 NA
ATOM     16  C   UNL     1       2.781   6.380  18.523  0.00  0.00    +0.000 C 
ATOM     17  C   UNL     1       2.189   5.096  17.906  0.00  0.00    +0.000 C 
ATOM     18  N   UNL     1       2.597   3.886  18.661  0.00  0.00    +0.000 NA
ATOM     19  C   UNL     1       4.070   3.825  18.765  0.00  0.00    +0.000 C 
ATOM     20  C   UNL     1       4.658   5.119  19.381  0.00  0.00    +0.000 C 
BRANCH  18  21
ATOM     21  C   UNL     1       1.955   3.725  19.986  0.00  0.00    +0.000 C 
BRANCH  21  22
ATOM     22  C   UNL     1       2.648   2.679  20.868  0.00  0.00    +0.000 C 
BRANCH  22  23
ATOM     23  O   UNL     1       2.045   2.615  22.132  0.00  0.00    +0.000 OA
ATOM     24  H   UNL     1       2.618   3.142  22.746  0.00  0.00    +0.000 HD
ENDBRANCH  22  23
ENDBRANCH  21  22
ENDBRANCH  18  21
ENDBRANCH  14  15
ENDBRANCH   1  14
TORSDOF 9
ENDMDL
MODEL 2
REMARK VINA RESULT:      -6.1      1.142      1.251
REMARK  Name = 
REMARK  11 active torsions:
REMARK  status: ('A' for Active; 'I' for Inactive)
REMARK    1  A    between atoms: C_1  and  C_2
REMARK    2  A    between atoms: C_5  and  O_6
REMARK    3  A    between atoms: O_6  and  C_7
REMARK    4  A    between atoms: C_7  and  C_8
REMARK    5  A    between atoms: C_8  and  O_9
REMARK    6  A    between atoms: C_8  and  C_10
REMARK    7  A    between atoms: C_10  and  N_11
REMARK    8  A    between atoms: N_14  and  C_15
REMARK    9  A    between atoms: C_15  and  C_16
REMARK   10  A    between atoms: C_16  and  O_17
REMARK   11  A    between atoms: C_20  and  C_21
REMARK                            x       y       z     vdW  Elec       q    Type
REMARK                         _______ _______ _______ _____ _____    ______ ____
ROOT
ATOM      1  C   UNL     1       7.419   5.758  17.736  0.00  0.00    +0.000 C 
ENDROOT
BRANCH   1   2
ATOM      2  O   UNL     1       7.577   6.739  18.733  0.00  0.00    +0.000 OA
ATOM      3  H   UNL     1       6.729   6.793  19.246  0.00  0.00    +0.000 HD
ENDBRANCH   1   2
BRANCH   1   4
ATOM      4  C   UNL     1       7.099   6.430  16.394  0.00  0.00    +0.000 C 
BRANCH   4   5
ATOM      5  O   UNL     1       7.697   5.659  15.423  0.00  0.00    +0.000 OA
BRANCH   5  10
ATOM      6  C   UNL     1       5.153   2.746  11.294  0.00  0.00    +0.000 C 
ATOM      7  C   UNL     1       5.837   3.472  12.414  0.00  0.00    +0.000 A 
ATOM      8  C   UNL     1       5.418   3.310  13.742  0.00  0.00    +0.000 A 
ATOM      9  C   UNL     1       6.043   4.021  14.770  0.00  0.00    +0.000 A 
ATOM     10  C   UNL     1       7.103   4.899  14.475  0.00  0.00    +0.000 A 
ATOM     11  C   UNL     1       7.545   5.041  13.148  0.00  0.00    +0.000 A 
ATOM     12  C   UNL     1       8.682   5.965  12.792  0.00  0.00    +0.000 C 
ATOM     13  C   UNL     1       6.903   4.333  12.124  0.00  0.00    +0.000 A 
ENDBRANCH   5  10
ENDBRANCH   4   5
ENDBRANCH   1   4
BRANCH   1  14
ATOM     14  C   UNL     1       6.356   4.745  18.189  0.00  0.00    +0.000 C 
BRANCH  14  15
ATOM     15  N   UNL     1       5.078   5.356  18.633  0.00  0.00    +0.000 NA
ATOM     16  C   UNL     1       4.042   5.494  17.585  0.00  0.00    +0.000 C 
ATOM     17  C   UNL     1       3.471   4.128  17.154  0.00  0.00    +0.000 C 
ATOM     18  N   UNL     1       2.921   3.374  18.307  0.00  0.00    +0.000 NA
ATOM     19  C   UNL     1       3.948   3.240  19.363  0.00  0.00    +0.000 C 
ATOM     20  C   UNL     1       4.520   4.615  19.787  0.00  0.00    +0.000 C 
BRANCH  18  21
ATOM     21  C   UNL     1       1.650   3.902  18.855  0.00  0.00    +0.000 C 
BRANCH  21  22
ATOM     22  C   UNL     1       0.776   2.819  19.501  0.00  0.00    +0.000 C 
BRANCH  22  23
ATOM     23  O   UNL     1       0.609   3.065  20.871  0.00  0.00    +0.000 OA
ATOM     24  H   UNL     1       1.511   3.259  21.235  0.00  0.00    +0.000 HD
ENDBRANCH  22  23
ENDBRANCH  21  22
ENDBRANCH  18  21
ENDBRANCH  14  15
ENDBRANCH   1  14
TORSDOF 9
ENDMDL
MODEL 3
REMARK VINA RESULT:      -6.1      1.145      1.503
REMARK  Name = 
REMARK  11 active torsions:
REMARK  status: ('A' for Active; 'I' for Inactive)
REMARK    1  A    between atoms: C_1  and  C_2
REMARK    2  A    between atoms: C_5  and  O_6
REMARK    3  A    between atoms: O_6  and  C_7
REMARK    4  A    between atoms: C_7  and  C_8
REMARK    5  A    between atoms: C_8  and  O_9
REMARK    6  A    between atoms: C_8  and  C_10
REMARK    7  A    between atoms: C_10  and  N_11
REMARK    8  A    between atoms: N_14  and  C_15
REMARK    9  A    between atoms: C_15  and  C_16
REMARK   10  A    between atoms: C_16  and  O_17
REMARK   11  A    between atoms: C_20  and  C_21
REMARK                            x       y       z     vdW  Elec       q    Type
REMARK                         _______ _______ _______ _____ _____    ______ ____
ROOT
ATOM      1  C   UNL     1       7.126   6.370  17.645  0.00  0.00    +0.000 C 
ENDROOT
BRANCH   1   2
ATOM      2  O   UNL     1       6.722   7.435  16.818  0.00  0.00    +0.000 OA
ATOM      3  H   UNL     1       6.336   8.143  17.398  0.00  0.00    +0.000 HD
ENDBRANCH   1   2
BRANCH   1   4
ATOM      4  C   UNL     1       7.693   5.232  16.786  0.00  0.00    +0.000 C 
BRANCH   4   5
ATOM      5  O   UNL     1       7.460   5.585  15.476  0.00  0.00    +0.000 OA
BRANCH   5  10
ATOM      6  C   UNL     1       5.046   2.743  11.221  0.00  0.00    +0.000 C 
ATOM      7  C   UNL     1       5.691   3.450  12.375  0.00  0.00    +0.000 A 
ATOM      8  C   UNL     1       5.166   3.344  13.671  0.00  0.00    +0.000 A 
ATOM      9  C   UNL     1       5.757   4.039  14.730  0.00  0.00    +0.000 A 
ATOM     10  C   UNL     1       6.890   4.842  14.499  0.00  0.00    +0.000 A 
ATOM     11  C   UNL     1       7.437   4.926  13.207  0.00  0.00    +0.000 A 
ATOM     12  C   UNL     1       8.654   5.769  12.920  0.00  0.00    +0.000 C 
ATOM     13  C   UNL     1       6.828   4.236  12.151  0.00  0.00    +0.000 A 
ENDBRANCH   5  10
ENDBRANCH   4   5
ENDBRANCH   1   4
BRANCH   1  14
ATOM     14  C   UNL     1       5.944   5.944  18.532  0.00  0.00    +0.000 C 
BRANCH  14  15
ATOM     15  N   UNL     1       4.773   5.425  17.782  0.00  0.00    +0.000 NA
ATOM     16  C   UNL     1       4.434   4.007  18.037  0.00  0.00    +0.000 C 
ATOM     17  C   UNL     1       3.873   3.793  19.458  0.00  0.00    +0.000 C 
ATOM     18  N   UNL     1       2.688   4.646  19.715  0.00  0.00    +0.000 NA
ATOM     19  C   UNL     1       3.016   6.064  19.454  0.00  0.00    +0.000 C 
ATOM     20  C   UNL     1       3.582   6.271  18.027  0.00  0.00    +0.000 C 
BRANCH  18  21
ATOM     21  C   UNL     1       1.453   4.238  19.004  0.00  0.00    +0.000 C 
BRANCH  21  22
ATOM     22  C   UNL     1       1.152   2.740  19.131  0.00  0.00    +0.000 C 
BRANCH  22  23
ATOM     23  O   UNL     1      -0.037   2.530  19.843  0.00  0.00    +0.000 OA
ATOM     24  H   UNL     1      -0.002   3.127  20.634  0.00  0.00    +0.000 HD
ENDBRANCH  22  23
ENDBRANCH  21  22
ENDBRANCH  18  21
ENDBRANCH  14  15
ENDBRANCH   1  14
TORSDOF 9
ENDMDL
MODEL 4
REMARK VINA RESULT:      -6.1      2.897      7.406
REMARK  Name = 
REMARK  11 active torsions:
REMARK  status: ('A' for Active; 'I' for Inactive)
REMARK    1  A    between atoms: C_1  and  C_2
REMARK    2  A    between atoms: C_5  and  O_6
REMARK    3  A    between atoms: O_6  and  C_7
REMARK    4  A    between atoms: C_7  and  C_8
REMARK    5  A    between atoms: C_8  and  O_9
REMARK    6  A    between atoms: C_8  and  C_10
REMARK    7  A    between atoms: C_10  and  N_11
REMARK    8  A    between atoms: N_14  and  C_15
REMARK    9  A    between atoms: C_15  and  C_16
REMARK   10  A    between atoms: C_16  and  O_17
REMARK   11  A    between atoms: C_20  and  C_21
REMARK                            x       y       z     vdW  Elec       q    Type
REMARK                         _______ _______ _______ _____ _____    ______ ____
ROOT
ATOM      1  C   UNL     1       2.429   4.214  20.805  0.00  0.00    +0.000 C 
ENDROOT
BRANCH   1   2
ATOM      2  O   UNL     1       2.303   3.570  22.050  0.00  0.00    +0.000 OA
ATOM      3  H   UNL     1       2.129   2.607  21.881  0.00  0.00    +0.000 HD
ENDBRANCH   1   2
BRANCH   1   4
ATOM      4  C   UNL     1       1.409   5.356  20.706  0.00  0.00    +0.000 C 
BRANCH   4   5
ATOM      5  O   UNL     1       2.133   6.500  20.455  0.00  0.00    +0.000 OA
BRANCH   5  10
ATOM      6  C   UNL     1       0.483  11.824  19.489  0.00  0.00    +0.000 C 
ATOM      7  C   UNL     1       0.871  10.402  19.761  0.00  0.00    +0.000 A 
ATOM      8  C   UNL     1       0.665   9.825  21.022  0.00  0.00    +0.000 A 
ATOM      9  C   UNL     1       1.065   8.510  21.270  0.00  0.00    +0.000 A 
ATOM     10  C   UNL     1       1.670   7.754  20.248  0.00  0.00    +0.000 A 
ATOM     11  C   UNL     1       1.851   8.318  18.974  0.00  0.00    +0.000 A 
ATOM     12  C   UNL     1       2.488   7.540  17.850  0.00  0.00    +0.000 C 
ATOM     13  C   UNL     1       1.457   9.643  18.740  0.00  0.00    +0.000 A 
ENDBRANCH   5  10
ENDBRANCH   4   5
ENDBRANCH   1   4
BRANCH   1  14
ATOM     14  C   UNL     1       2.299   3.171  19.683  0.00  0.00    +0.000 C 
BRANCH  14  15
ATOM     15  N   UNL     1       3.593   2.625  19.202  0.00  0.00    +0.000 NA
ATOM     16  C   UNL     1       3.631   2.251  17.770  0.00  0.00    +0.000 C 
ATOM     17  C   UNL     1       3.580   3.487  16.848  0.00  0.00    +0.000 C 
ATOM     18  N   UNL     1       4.676   4.441  17.147  0.00  0.00    +0.000 NA
ATOM     19  C   UNL     1       4.650   4.812  18.578  0.00  0.00    +0.000 C 
ATOM     20  C   UNL     1       4.697   3.567  19.497  0.00  0.00    +0.000 C 
BRANCH  18  21
ATOM     21  C   UNL     1       6.027   3.998  16.729  0.00  0.00    +0.000 C 
BRANCH  21  22
ATOM     22  C   UNL     1       7.151   4.865  17.310  0.00  0.00    +0.000 C 
BRANCH  22  23
ATOM     23  O   UNL     1       8.227   4.069  17.727  0.00  0.00    +0.000 OA
ATOM     24  H   UNL     1       8.566   3.605  16.919  0.00  0.00    +0.000 HD
ENDBRANCH  22  23
ENDBRANCH  21  22
ENDBRANCH  18  21
ENDBRANCH  14  15
ENDBRANCH   1  14
TORSDOF 9
ENDMDL
MODEL 5
REMARK VINA RESULT:      -6.1      0.917      1.342
REMARK  Name = 
REMARK  11 active torsions:
REMARK  status: ('A' for Active; 'I' for Inactive)
REMARK    1  A    between atoms: C_1  and  C_2
REMARK    2  A    between atoms: C_5  and  O_6
REMARK    3  A    between atoms: O_6  and  C_7
REMARK    4  A    between atoms: C_7  and  C_8
REMARK    5  A    between atoms: C_8  and  O_9
REMARK    6  A    between atoms: C_8  and  C_10
REMARK    7  A    between atoms: C_10  and  N_11
REMARK    8  A    between atoms: N_14  and  C_15
REMARK    9  A    between atoms: C_15  and  C_16
REMARK   10  A    between atoms: C_16  and  O_17
REMARK   11  A    between atoms: C_20  and  C_21
REMARK                            x       y       z     vdW  Elec       q    Type
REMARK                         _______ _______ _______ _____ _____    ______ ____
ROOT
ATOM      1  C   UNL     1       6.213   6.745  17.034  0.00  0.00    +0.000 C 
ENDROOT
BRANCH   1   2
ATOM      2  O   UNL     1       5.581   7.150  15.842  0.00  0.00    +0.000 OA
ATOM      3  H   UNL     1       5.683   8.134  15.761  0.00  0.00    +0.000 HD
ENDBRANCH   1   2
BRANCH   1   4
ATOM      4  C   UNL     1       7.244   5.651  16.728  0.00  0.00    +0.000 C 
BRANCH   4   5
ATOM      5  O   UNL     1       7.453   5.686  15.368  0.00  0.00    +0.000 OA
BRANCH   5  10
ATOM      6  C   UNL     1       5.301   2.473  11.239  0.00  0.00    +0.000 C 
ATOM      7  C   UNL     1       5.881   3.280  12.361  0.00  0.00    +0.000 A 
ATOM      8  C   UNL     1       5.379   3.168  13.666  0.00  0.00    +0.000 A 
ATOM      9  C   UNL     1       5.907   3.954  14.693  0.00  0.00    +0.000 A 
ATOM     10  C   UNL     1       6.952   4.857  14.424  0.00  0.00    +0.000 A 
ATOM     11  C   UNL     1       7.478   4.950  13.123  0.00  0.00    +0.000 A 
ATOM     12  C   UNL     1       8.603   5.899  12.795  0.00  0.00    +0.000 C 
ATOM     13  C   UNL     1       6.933   4.166  12.098  0.00  0.00    +0.000 A 
ENDBRANCH   5  10
ENDBRANCH   4   5
ENDBRANCH   1   4
BRANCH   1  14
ATOM     14  C   UNL     1       5.142   6.319  18.051  0.00  0.00    +0.000 C 
BRANCH  14  15
ATOM     15  N   UNL     1       4.783   4.880  17.996  0.00  0.00    +0.000 NA
ATOM     16  C   UNL     1       4.621   4.215  19.308  0.00  0.00    +0.000 C 
ATOM     17  C   UNL     1       3.363   4.706  20.053  0.00  0.00    +0.000 C 
ATOM     18  N   UNL     1       2.136   4.520  19.241  0.00  0.00    +0.000 NA
ATOM     19  C   UNL     1       2.294   5.173  17.924  0.00  0.00    +0.000 C 
ATOM     20  C   UNL     1       3.561   4.679  17.184  0.00  0.00    +0.000 C 
BRANCH  18  21
ATOM     21  C   UNL     1       1.685   3.116  19.095  0.00  0.00    +0.000 C 
BRANCH  21  22
ATOM     22  C   UNL     1       1.710   2.335  20.416  0.00  0.00    +0.000 C 
BRANCH  22  23
ATOM     23  O   UNL     1       0.787   2.868  21.326  0.00  0.00    +0.000 OA
ATOM     24  H   UNL     1       0.282   3.569  20.840  0.00  0.00    +0.000 HD
ENDBRANCH  22  23
ENDBRANCH  21  22
ENDBRANCH  18  21
ENDBRANCH  14  15
ENDBRANCH   1  14
TORSDOF 9
ENDMDL
MODEL 6
REMARK VINA RESULT:      -6.1      3.081      7.539
REMARK  Name = 
REMARK  11 active torsions:
REMARK  status: ('A' for Active; 'I' for Inactive)
REMARK    1  A    between atoms: C_1  and  C_2
REMARK    2  A    between atoms: C_5  and  O_6
REMARK    3  A    between atoms: O_6  and  C_7
REMARK    4  A    between atoms: C_7  and  C_8
REMARK    5  A    between atoms: C_8  and  O_9
REMARK    6  A    between atoms: C_8  and  C_10
REMARK    7  A    between atoms: C_10  and  N_11
REMARK    8  A    between atoms: N_14  and  C_15
REMARK    9  A    between atoms: C_15  and  C_16
REMARK   10  A    between atoms: C_16  and  O_17
REMARK   11  A    between atoms: C_20  and  C_21
REMARK                            x       y       z     vdW  Elec       q    Type
REMARK                         _______ _______ _______ _____ _____    ______ ____
ROOT
ATOM      1  C   UNL     1       1.861   4.124  19.853  0.00  0.00    +0.000 C 
ENDROOT
BRANCH   1   2
ATOM      2  O   UNL     1       0.602   3.509  19.714  0.00  0.00    +0.000 OA
ATOM      3  H   UNL     1       0.483   3.268  18.758  0.00  0.00    +0.000 HD
ENDBRANCH   1   2
BRANCH   1   4
ATOM      4  C   UNL     1       1.739   5.352  20.765  0.00  0.00    +0.000 C 
BRANCH   4   5
ATOM      5  O   UNL     1       2.032   6.446  19.982  0.00  0.00    +0.000 OA
BRANCH   5  10
ATOM      6  C   UNL     1       0.436  11.853  20.455  0.00  0.00    +0.000 C 
ATOM      7  C   UNL     1       0.810  10.405  20.344  0.00  0.00    +0.000 A 
ATOM      8  C   UNL     1       0.636   9.529  21.425  0.00  0.00    +0.000 A 
ATOM      9  C   UNL     1       1.023   8.191  21.317  0.00  0.00    +0.000 A 
ATOM     10  C   UNL     1       1.582   7.714  20.117  0.00  0.00    +0.000 A 
ATOM     11  C   UNL     1       1.729   8.582  19.021  0.00  0.00    +0.000 A 
ATOM     12  C   UNL     1       2.315   8.109  17.714  0.00  0.00    +0.000 C 
ATOM     13  C   UNL     1       1.349   9.925  19.144  0.00  0.00    +0.000 A 
ENDBRANCH   5  10
ENDBRANCH   4   5
ENDBRANCH   1   4
BRANCH   1  14
ATOM     14  C   UNL     1       2.423   4.443  18.459  0.00  0.00    +0.000 C 
BRANCH  14  15
ATOM     15  N   UNL     1       3.735   3.812  18.169  0.00  0.00    +0.000 NA
ATOM     16  C   UNL     1       4.352   4.194  16.878  0.00  0.00    +0.000 C 
ATOM     17  C   UNL     1       4.831   5.661  16.880  0.00  0.00    +0.000 C 
ATOM     18  N   UNL     1       5.780   5.927  17.988  0.00  0.00    +0.000 NA
ATOM     19  C   UNL     1       5.173   5.539  19.280  0.00  0.00    +0.000 C 
ATOM     20  C   UNL     1       4.691   4.068  19.270  0.00  0.00    +0.000 C 
BRANCH  18  21
ATOM     21  C   UNL     1       7.125   5.330  17.823  0.00  0.00    +0.000 C 
BRANCH  21  22
ATOM     22  C   UNL     1       8.080   5.668  18.975  0.00  0.00    +0.000 C 
BRANCH  22  23
ATOM     23  O   UNL     1       8.420   7.028  18.957  0.00  0.00    +0.000 OA
ATOM     24  H   UNL     1       8.814   7.232  19.844  0.00  0.00    +0.000 HD
ENDBRANCH  22  23
ENDBRANCH  21  22
ENDBRANCH  18  21
ENDBRANCH  14  15
ENDBRANCH   1  14
TORSDOF 9
ENDMDL
MODEL 7
REMARK VINA RESULT:      -6.0      3.237      7.812
REMARK  Name = 
REMARK  11 active torsions:
REMARK  status: ('A' for Active; 'I' for Inactive)
REMARK    1  A    between atoms: C_1  and  C_2
REMARK    2  A    between atoms: C_5  and  O_6
REMARK    3  A    between atoms: O_6  and  C_7
REMARK    4  A    between atoms: C_7  and  C_8
REMARK    5  A    between atoms: C_8  and  O_9
REMARK    6  A    between atoms: C_8  and  C_10
REMARK    7  A    between atoms: C_10  and  N_11
REMARK    8  A    between atoms: N_14  and  C_15
REMARK    9  A    between atoms: C_15  and  C_16
REMARK   10  A    between atoms: C_16  and  O_17
REMARK   11  A    between atoms: C_20  and  C_21
REMARK                            x       y       z     vdW  Elec       q    Type
REMARK                         _______ _______ _______ _____ _____    ______ ____
ROOT
ATOM      1  C   UNL     1       3.698   5.021  19.881  0.00  0.00    +0.000 C 
ENDROOT
BRANCH   1   2
ATOM      2  O   UNL     1       3.525   3.631  19.742  0.00  0.00    +0.000 OA
ATOM      3  H   UNL     1       3.630   3.218  20.639  0.00  0.00    +0.000 HD
ENDBRANCH   1   2
BRANCH   1   4
ATOM      4  C   UNL     1       2.379   5.740  19.568  0.00  0.00    +0.000 C 
BRANCH   4   5
ATOM      5  O   UNL     1       2.617   7.083  19.757  0.00  0.00    +0.000 OA
BRANCH   5  10
ATOM      6  C   UNL     1      -0.898  11.367  20.896  0.00  0.00    +0.000 C 
ATOM      7  C   UNL     1      -0.005  10.197  20.608  0.00  0.00    +0.000 A 
ATOM      8  C   UNL     1       0.258   9.231  21.590  0.00  0.00    +0.000 A 
ATOM      9  C   UNL     1       1.121   8.167  21.317  0.00  0.00    +0.000 A 
ATOM     10  C   UNL     1       1.725   8.056  20.051  0.00  0.00    +0.000 A 
ATOM     11  C   UNL     1       1.440   9.007  19.055  0.00  0.00    +0.000 A 
ATOM     12  C   UNL     1       2.060   8.920  17.683  0.00  0.00    +0.000 C 
ATOM     13  C   UNL     1       0.583  10.077  19.343  0.00  0.00    +0.000 A 
ENDBRANCH   5  10
ENDBRANCH   4   5
ENDBRANCH   1   4
BRANCH   1  14
ATOM     14  C   UNL     1       4.873   5.473  19.000  0.00  0.00    +0.000 C 
BRANCH  14  15
ATOM     15  N   UNL     1       5.384   4.429  18.078  0.00  0.00    +0.000 NA
ATOM     16  C   UNL     1       4.689   4.338  16.774  0.00  0.00    +0.000 C 
ATOM     17  C   UNL     1       4.983   5.558  15.876  0.00  0.00    +0.000 C 
ATOM     18  N   UNL     1       6.438   5.742  15.658  0.00  0.00    +0.000 NA
ATOM     19  C   UNL     1       7.140   5.824  16.956  0.00  0.00    +0.000 C 
ATOM     20  C   UNL     1       6.838   4.599  17.853  0.00  0.00    +0.000 C 
BRANCH  18  21
ATOM     21  C   UNL     1       7.071   4.744  14.765  0.00  0.00    +0.000 C 
BRANCH  21  22
ATOM     22  C   UNL     1       6.058   3.974  13.908  0.00  0.00    +0.000 C 
BRANCH  22  23
ATOM     23  O   UNL     1       6.679   3.424  12.777  0.00  0.00    +0.000 OA
ATOM     24  H   UNL     1       5.994   3.404  12.060  0.00  0.00    +0.000 HD
ENDBRANCH  22  23
ENDBRANCH  21  22
ENDBRANCH  18  21
ENDBRANCH  14  15
ENDBRANCH   1  14
TORSDOF 9
ENDMDL
MODEL 8
REMARK VINA RESULT:      -6.0      3.294      7.753
REMARK  Name = 
REMARK  11 active torsions:
REMARK  status: ('A' for Active; 'I' for Inactive)
REMARK    1  A    between atoms: C_1  and  C_2
REMARK    2  A    between atoms: C_5  and  O_6
REMARK    3  A    between atoms: O_6  and  C_7
REMARK    4  A    between atoms: C_7  and  C_8
REMARK    5  A    between atoms: C_8  and  O_9
REMARK    6  A    between atoms: C_8  and  C_10
REMARK    7  A    between atoms: C_10  and  N_11
REMARK    8  A    between atoms: N_14  and  C_15
REMARK    9  A    between atoms: C_15  and  C_16
REMARK   10  A    between atoms: C_16  and  O_17
REMARK   11  A    between atoms: C_20  and  C_21
REMARK                            x       y       z     vdW  Elec       q    Type
REMARK                         _______ _______ _______ _____ _____    ______ ____
ROOT
ATOM      1  C   UNL     1       2.462   4.923  19.943  0.00  0.00    +0.000 C 
ENDROOT
BRANCH   1   2
ATOM      2  O   UNL     1       1.588   4.388  18.977  0.00  0.00    +0.000 OA
ATOM      3  H   UNL     1       1.458   5.072  18.269  0.00  0.00    +0.000 HD
ENDBRANCH   1   2
BRANCH   1   4
ATOM      4  C   UNL     1       1.730   5.986  20.772  0.00  0.00    +0.000 C 
BRANCH   4   5
ATOM      5  O   UNL     1       2.115   7.206  20.263  0.00  0.00    +0.000 OA
BRANCH   5  10
ATOM      6  C   UNL     1      -0.714  12.069  19.672  0.00  0.00    +0.000 C 
ATOM      7  C   UNL     1      -0.010  10.756  19.840  0.00  0.00    +0.000 A 
ATOM      8  C   UNL     1      -0.117  10.027  21.034  0.00  0.00    +0.000 A 
ATOM      9  C   UNL     1       0.574   8.823  21.188  0.00  0.00    +0.000 A 
ATOM     10  C   UNL     1       1.376   8.332  20.141  0.00  0.00    +0.000 A 
ATOM     11  C   UNL     1       1.462   9.045  18.932  0.00  0.00    +0.000 A 
ATOM     12  C   UNL     1       2.303   8.549  17.783  0.00  0.00    +0.000 C 
ATOM     13  C   UNL     1       0.774  10.257  18.792  0.00  0.00    +0.000 A 
ENDBRANCH   5  10
ENDBRANCH   4   5
ENDBRANCH   1   4
BRANCH   1  14
ATOM     14  C   UNL     1       3.726   5.447  19.242  0.00  0.00    +0.000 C 
BRANCH  14  15
ATOM     15  N   UNL     1       4.438   4.433  18.426  0.00  0.00    +0.000 NA
ATOM     16  C   UNL     1       4.207   4.516  16.966  0.00  0.00    +0.000 C 
ATOM     17  C   UNL     1       4.863   5.768  16.348  0.00  0.00    +0.000 C 
ATOM     18  N   UNL     1       6.318   5.821  16.629  0.00  0.00    +0.000 NA
ATOM     19  C   UNL     1       6.558   5.729  18.085  0.00  0.00    +0.000 C 
ATOM     20  C   UNL     1       5.893   4.473  18.700  0.00  0.00    +0.000 C 
BRANCH  18  21
ATOM     21  C   UNL     1       7.139   4.838  15.884  0.00  0.00    +0.000 C 
BRANCH  21  22
ATOM     22  C   UNL     1       6.778   4.756  14.396  0.00  0.00    +0.000 C 
BRANCH  22  23
ATOM     23  O   UNL     1       6.444   3.443  14.036  0.00  0.00    +0.000 OA
ATOM     24  H   UNL     1       5.490   3.318  14.274  0.00  0.00    +0.000 HD
ENDBRANCH  22  23
ENDBRANCH  21  22
ENDBRANCH  18  21
ENDBRANCH  14  15
ENDBRANCH   1  14
TORSDOF 9
ENDMDL
MODEL 9
REMARK VINA RESULT:      -6.0      4.916      7.560
REMARK  Name = 
REMARK  11 active torsions:
REMARK  status: ('A' for Active; 'I' for Inactive)
REMARK    1  A    between atoms: C_1  and  C_2
REMARK    2  A    between atoms: C_5  and  O_6
REMARK    3  A    between atoms: O_6  and  C_7
REMARK    4  A    between atoms: C_7  and  C_8
REMARK    5  A    between atoms: C_8  and  O_9
REMARK    6  A    between atoms: C_8  and  C_10
REMARK    7  A    between atoms: C_10  and  N_11
REMARK    8  A    between atoms: N_14  and  C_15
REMARK    9  A    between atoms: C_15  and  C_16
REMARK   10  A    between atoms: C_16  and  O_17
REMARK   11  A    between atoms: C_20  and  C_21
REMARK                            x       y       z     vdW  Elec       q    Type
REMARK                         _______ _______ _______ _____ _____    ______ ____
ROOT
ATOM      1  C   UNL     1       8.272   8.047  17.907  0.00  0.00    +0.000 C 
ENDROOT
BRANCH   1   2
ATOM      2  O   UNL     1       8.700   7.566  19.159  0.00  0.00    +0.000 OA
ATOM      3  H   UNL     1       9.643   7.847  19.289  0.00  0.00    +0.000 HD
ENDBRANCH   1   2
BRANCH   1   4
ATOM      4  C   UNL     1       8.110   9.572  17.965  0.00  0.00    +0.000 C 
BRANCH   4   5
ATOM      5  O   UNL     1       9.279  10.065  18.499  0.00  0.00    +0.000 OA
BRANCH   5  10
ATOM      6  C   UNL     1      10.263  14.569  21.777  0.00  0.00    +0.000 C 
ATOM      7  C   UNL     1       9.952  13.377  20.924  0.00  0.00    +0.000 A 
ATOM      8  C   UNL     1       9.377  12.223  21.477  0.00  0.00    +0.000 A 
ATOM      9  C   UNL     1       9.126  11.107  20.675  0.00  0.00    +0.000 A 
ATOM     10  C   UNL     1       9.442  11.140  19.304  0.00  0.00    +0.000 A 
ATOM     11  C   UNL     1       9.990  12.305  18.740  0.00  0.00    +0.000 A 
ATOM     12  C   UNL     1      10.334  12.384  17.274  0.00  0.00    +0.000 C 
ATOM     13  C   UNL     1      10.249  13.414  19.556  0.00  0.00    +0.000 A 
ENDBRANCH   5  10
ENDBRANCH   4   5
ENDBRANCH   1   4
BRANCH   1  14
ATOM     14  C   UNL     1       6.992   7.305  17.492  0.00  0.00    +0.000 C 
BRANCH  14  15
ATOM     15  N   UNL     1       7.020   5.844  17.752  0.00  0.00    +0.000 NA
ATOM     16  C   UNL     1       6.258   5.395  18.939  0.00  0.00    +0.000 C 
ATOM     17  C   UNL     1       4.735   5.532  18.733  0.00  0.00    +0.000 C 
ATOM     18  N   UNL     1       4.275   4.794  17.532  0.00  0.00    +0.000 NA
ATOM     19  C   UNL     1       5.038   5.230  16.343  0.00  0.00    +0.000 C 
ATOM     20  C   UNL     1       6.566   5.094  16.559  0.00  0.00    +0.000 C 
BRANCH  18  21
ATOM     21  C   UNL     1       4.276   3.318  17.662  0.00  0.00    +0.000 C 
BRANCH  21  22
ATOM     22  C   UNL     1       3.917   2.837  19.074  0.00  0.00    +0.000 C 
BRANCH  22  23
ATOM     23  O   UNL     1       4.983   2.128  19.644  0.00  0.00    +0.000 OA
ATOM     24  H   UNL     1       5.751   2.225  19.025  0.00  0.00    +0.000 HD
ENDBRANCH  22  23
ENDBRANCH  21  22
ENDBRANCH  18  21
ENDBRANCH  14  15
ENDBRANCH   1  14
TORSDOF 9
ENDMDL
