MODEL 1
REMARK VINA RESULT:      -6.2      0.000      0.000
REMARK  Name = 
REMARK  4 active torsions:
REMARK  status: ('A' for Active; 'I' for Inactive)
REMARK    1  A    between atoms: C_5  and  C_6
REMARK    2  A    between atoms: C_6  and  N_7
REMARK    3  A    between atoms: N_7  and  C_8
REMARK    4  A    between atoms: C_8  and  C_9
REMARK                            x       y       z     vdW  Elec       q    Type
REMARK                         _______ _______ _______ _____ _____    ______ ____
ROOT
ATOM      1  N   UNL     1       5.248   2.799  19.319  0.00  0.00    +0.000 NA
ATOM      2  H   UNL     1       6.223   2.568  19.624  0.00  0.00    +0.000 HD
ENDROOT
BRANCH   1   3
ATOM      3  C   UNL     1       5.206   4.216  18.932  0.00  0.00    +0.000 C 
BRANCH   3   8
ATOM      4  C   UNL     1       5.556   4.811  15.152  0.00  0.00    +0.000 A 
ATOM      5  C   UNL     1       6.946   4.851  15.049  0.00  0.00    +0.000 A 
ATOM      6  N   UNL     1       7.715   4.706  16.161  0.00  0.00    +0.000 NA
ATOM      7  C   UNL     1       7.166   4.513  17.389  0.00  0.00    +0.000 A 
ATOM      8  C   UNL     1       5.771   4.457  17.547  0.00  0.00    +0.000 A 
ATOM      9  C   UNL     1       4.967   4.616  16.401  0.00  0.00    +0.000 A 
ENDBRANCH   3   8
ENDBRANCH   1   3
BRANCH   1  10
ATOM     10  C   UNL     1       4.356   2.544  20.456  0.00  0.00    +0.000 C 
BRANCH  10  11
ATOM     11  C   UNL     1       2.932   2.728  20.032  0.00  0.00    +0.000 A 
ATOM     12  C   UNL     1       1.981   3.495  20.693  0.00  0.00    +0.000 A 
ATOM     13  C   UNL     1       0.732   3.485  20.061  0.00  0.00    +0.000 A 
ATOM     14  C   UNL     1       0.702   2.713  18.906  0.00  0.00    +0.000 A 
ATOM     15  S   UNL     1       2.225   2.040  18.671  0.00  0.00    +0.000 S 
ENDBRANCH  10  11
ENDBRANCH   1  10
TORSDOF 4
ENDMDL
MODEL 2
REMARK VINA RESULT:      -6.1      0.844      1.086
REMARK  Name = 
REMARK  4 active torsions:
REMARK  status: ('A' for Active; 'I' for Inactive)
REMARK    1  A    between atoms: C_5  and  C_6
REMARK    2  A    between atoms: C_6  and  N_7
REMARK    3  A    between atoms: N_7  and  C_8
REMARK    4  A    between atoms: C_8  and  C_9
REMARK                            x       y       z     vdW  Elec       q    Type
REMARK                         _______ _______ _______ _____ _____    ______ ____
ROOT
ATOM      1  N   UNL     1       5.217   2.741  19.346  0.00  0.00    +0.000 NA
ATOM      2  H   UNL     1       6.187   2.483  19.648  0.00  0.00    +0.000 HD
ENDROOT
BRANCH   1   3
ATOM      3  C   UNL     1       5.213   4.159  18.962  0.00  0.00    +0.000 C 
BRANCH   3   8
ATOM      4  C   UNL     1       5.549   4.649  15.166  0.00  0.00    +0.000 A 
ATOM      5  C   UNL     1       6.935   4.764  15.066  0.00  0.00    +0.000 A 
ATOM      6  N   UNL     1       7.704   4.699  16.185  0.00  0.00    +0.000 NA
ATOM      7  C   UNL     1       7.161   4.516  17.417  0.00  0.00    +0.000 A 
ATOM      8  C   UNL     1       5.771   4.386  17.571  0.00  0.00    +0.000 A 
ATOM      9  C   UNL     1       4.964   4.462  16.418  0.00  0.00    +0.000 A 
ENDBRANCH   3   8
ENDBRANCH   1   3
BRANCH   1  10
ATOM     10  C   UNL     1       4.323   2.508  20.486  0.00  0.00    +0.000 C 
BRANCH  10  11
ATOM     11  C   UNL     1       2.903   2.734  20.069  0.00  0.00    +0.000 A 
ATOM     12  C   UNL     1       2.254   2.097  19.019  0.00  0.00    +0.000 A 
ATOM     13  C   UNL     1       0.924   2.506  18.867  0.00  0.00    +0.000 A 
ATOM     14  C   UNL     1       0.528   3.460  19.796  0.00  0.00    +0.000 A 
ATOM     15  S   UNL     1       1.831   3.799  20.805  0.00  0.00    +0.000 S 
ENDBRANCH  10  11
ENDBRANCH   1  10
TORSDOF 4
ENDMDL
MODEL 3
REMARK VINA RESULT:      -6.0      1.282      1.501
REMARK  Name = 
REMARK  4 active torsions:
REMARK  status: ('A' for Active; 'I' for Inactive)
REMARK    1  A    between atoms: C_5  and  C_6
REMARK    2  A    between atoms: C_6  and  N_7
REMARK    3  A    between atoms: N_7  and  C_8
REMARK    4  A    between atoms: C_8  and  C_9
REMARK                            x       y       z     vdW  Elec       q    Type
REMARK                         _______ _______ _______ _____ _____    ______ ____
ROOT
ATOM      1  N   UNL     1       4.729   5.460  19.428  0.00  0.00    +0.000 NA
ATOM      2  H   UNL     1       5.362   6.207  19.055  0.00  0.00    +0.000 HD
ENDROOT
BRANCH   1   3
ATOM      3  C   UNL     1       5.098   4.184  18.799  0.00  0.00    +0.000 C 
BRANCH   3   8
ATOM      4  C   UNL     1       5.615   4.486  15.004  0.00  0.00    +0.000 A 
ATOM      5  C   UNL     1       6.995   4.684  14.971  0.00  0.00    +0.000 A 
ATOM      6  N   UNL     1       7.703   4.729  16.130  0.00  0.00    +0.000 NA
ATOM      7  C   UNL     1       7.104   4.579  17.341  0.00  0.00    +0.000 A 
ATOM      8  C   UNL     1       5.717   4.369  17.429  0.00  0.00    +0.000 A 
ATOM      9  C   UNL     1       4.974   4.331  16.233  0.00  0.00    +0.000 A 
ENDBRANCH   3   8
ENDBRANCH   1   3
BRANCH   1  10
ATOM     10  C   UNL     1       3.353   5.833  19.080  0.00  0.00    +0.000 C 
BRANCH  10  11
ATOM     11  C   UNL     1       2.414   4.742  19.490  0.00  0.00    +0.000 A 
ATOM     12  C   UNL     1       2.062   4.422  20.795  0.00  0.00    +0.000 A 
ATOM     13  C   UNL     1       1.158   3.356  20.874  0.00  0.00    +0.000 A 
ATOM     14  C   UNL     1       0.801   2.840  19.634  0.00  0.00    +0.000 A 
ATOM     15  S   UNL     1       1.608   3.706  18.440  0.00  0.00    +0.000 S 
ENDBRANCH  10  11
ENDBRANCH   1  10
TORSDOF 4
ENDMDL
MODEL 4
REMARK VINA RESULT:      -5.8      1.704      2.340
REMARK  Name = 
REMARK  4 active torsions:
REMARK  status: ('A' for Active; 'I' for Inactive)
REMARK    1  A    between atoms: C_5  and  C_6
REMARK    2  A    between atoms: C_6  and  N_7
REMARK    3  A    between atoms: N_7  and  C_8
REMARK    4  A    between atoms: C_8  and  C_9
REMARK                            x       y       z     vdW  Elec       q    Type
REMARK                         _______ _______ _______ _____ _____    ______ ____
ROOT
ATOM      1  N   UNL     1       5.323   3.274  19.491  0.00  0.00    +0.000 NA
ATOM      2  H   UNL     1       5.193   3.846  20.359  0.00  0.00    +0.000 HD
ENDROOT
BRANCH   1   3
ATOM      3  C   UNL     1       4.950   4.098  18.333  0.00  0.00    +0.000 C 
BRANCH   3   8
ATOM      4  C   UNL     1       7.868   6.577  18.658  0.00  0.00    +0.000 A 
ATOM      5  C   UNL     1       7.610   7.388  17.553  0.00  0.00    +0.000 A 
ATOM      6  N   UNL     1       6.549   7.121  16.747  0.00  0.00    +0.000 NA
ATOM      7  C   UNL     1       5.712   6.078  16.988  0.00  0.00    +0.000 A 
ATOM      8  C   UNL     1       5.923   5.235  18.092  0.00  0.00    +0.000 A 
ATOM      9  C   UNL     1       7.026   5.498  18.927  0.00  0.00    +0.000 A 
ENDBRANCH   3   8
ENDBRANCH   1   3
BRANCH   1  10
ATOM     10  C   UNL     1       4.447   2.102  19.599  0.00  0.00    +0.000 C 
BRANCH  10  11
ATOM     11  C   UNL     1       3.019   2.544  19.683  0.00  0.00    +0.000 A 
ATOM     12  C   UNL     1       2.008   2.195  18.796  0.00  0.00    +0.000 A 
ATOM     13  C   UNL     1       0.769   2.754  19.129  0.00  0.00    +0.000 A 
ATOM     14  C   UNL     1       0.805   3.539  20.275  0.00  0.00    +0.000 A 
ATOM     15  S   UNL     1       2.377   3.541  20.874  0.00  0.00    +0.000 S 
ENDBRANCH  10  11
ENDBRANCH   1  10
TORSDOF 4
ENDMDL
MODEL 5
REMARK VINA RESULT:      -5.7      1.553      2.031
REMARK  Name = 
REMARK  4 active torsions:
REMARK  status: ('A' for Active; 'I' for Inactive)
REMARK    1  A    between atoms: C_5  and  C_6
REMARK    2  A    between atoms: C_6  and  N_7
REMARK    3  A    between atoms: N_7  and  C_8
REMARK    4  A    between atoms: C_8  and  C_9
REMARK                            x       y       z     vdW  Elec       q    Type
REMARK                         _______ _______ _______ _____ _____    ______ ____
ROOT
ATOM      1  N   UNL     1       4.325   2.500  17.640  0.00  0.00    +0.000 NA
ATOM      2  H   UNL     1       4.781   2.834  18.522  0.00  0.00    +0.000 HD
ENDROOT
BRANCH   1   3
ATOM      3  C   UNL     1       4.081   3.663  16.775  0.00  0.00    +0.000 C 
BRANCH   3   8
ATOM      4  C   UNL     1       5.929   6.995  17.266  0.00  0.00    +0.000 A 
ATOM      5  C   UNL     1       7.242   6.566  17.070  0.00  0.00    +0.000 A 
ATOM      6  N   UNL     1       7.497   5.257  16.808  0.00  0.00    +0.000 NA
ATOM      7  C   UNL     1       6.500   4.337  16.723  0.00  0.00    +0.000 A 
ATOM      8  C   UNL     1       5.160   4.719  16.904  0.00  0.00    +0.000 A 
ATOM      9  C   UNL     1       4.887   6.072  17.185  0.00  0.00    +0.000 A 
ENDBRANCH   3   8
ENDBRANCH   1   3
BRANCH   1  10
ATOM     10  C   UNL     1       3.061   1.854  18.013  0.00  0.00    +0.000 C 
BRANCH  10  11
ATOM     11  C   UNL     1       2.443   2.582  19.165  0.00  0.00    +0.000 A 
ATOM     12  C   UNL     1       1.216   3.235  19.149  0.00  0.00    +0.000 A 
ATOM     13  C   UNL     1       0.891   3.824  20.377  0.00  0.00    +0.000 A 
ATOM     14  C   UNL     1       1.860   3.635  21.355  0.00  0.00    +0.000 A 
ATOM     15  S   UNL     1       3.120   2.737  20.696  0.00  0.00    +0.000 S 
ENDBRANCH  10  11
ENDBRANCH   1  10
TORSDOF 4
ENDMDL
MODEL 6
REMARK VINA RESULT:      -5.7      1.737      1.969
REMARK  Name = 
REMARK  4 active torsions:
REMARK  status: ('A' for Active; 'I' for Inactive)
REMARK    1  A    between atoms: C_5  and  C_6
REMARK    2  A    between atoms: C_6  and  N_7
REMARK    3  A    between atoms: N_7  and  C_8
REMARK    4  A    between atoms: C_8  and  C_9
REMARK                            x       y       z     vdW  Elec       q    Type
REMARK                         _______ _______ _______ _____ _____    ______ ____
ROOT
ATOM      1  N   UNL     1       3.973   6.153  18.374  0.00  0.00    +0.000 NA
ATOM      2  H   UNL     1       3.407   5.994  17.507  0.00  0.00    +0.000 HD
ENDROOT
BRANCH   1   3
ATOM      3  C   UNL     1       5.114   5.227  18.359  0.00  0.00    +0.000 C 
BRANCH   3   8
ATOM      4  C   UNL     1       5.758   4.066  14.754  0.00  0.00    +0.000 A 
ATOM      5  C   UNL     1       6.913   4.796  14.475  0.00  0.00    +0.000 A 
ATOM      6  N   UNL     1       7.433   5.629  15.415  0.00  0.00    +0.000 NA
ATOM      7  C   UNL     1       6.862   5.772  16.640  0.00  0.00    +0.000 A 
ATOM      8  C   UNL     1       5.702   5.053  16.974  0.00  0.00    +0.000 A 
ATOM      9  C   UNL     1       5.150   4.194  16.003  0.00  0.00    +0.000 A 
ENDBRANCH   3   8
ENDBRANCH   1   3
BRANCH   1  10
ATOM     10  C   UNL     1       3.103   5.887  19.526  0.00  0.00    +0.000 C 
BRANCH  10  11
ATOM     11  C   UNL     1       2.465   4.541  19.377  0.00  0.00    +0.000 A 
ATOM     12  C   UNL     1       1.627   4.149  18.340  0.00  0.00    +0.000 A 
ATOM     13  C   UNL     1       1.184   2.827  18.462  0.00  0.00    +0.000 A 
ATOM     14  C   UNL     1       1.673   2.181  19.591  0.00  0.00    +0.000 A 
ATOM     15  S   UNL     1       2.655   3.251  20.439  0.00  0.00    +0.000 S 
ENDBRANCH  10  11
ENDBRANCH   1  10
TORSDOF 4
ENDMDL
MODEL 7
REMARK VINA RESULT:      -5.7      1.879      2.536
REMARK  Name = 
REMARK  4 active torsions:
REMARK  status: ('A' for Active; 'I' for Inactive)
REMARK    1  A    between atoms: C_5  and  C_6
REMARK    2  A    between atoms: C_6  and  N_7
REMARK    3  A    between atoms: N_7  and  C_8
REMARK    4  A    between atoms: C_8  and  C_9
REMARK                            x       y       z     vdW  Elec       q    Type
REMARK                         _______ _______ _______ _____ _____    ______ ____
ROOT
ATOM      1  N   UNL     1       4.247   2.991  17.403  0.00  0.00    +0.000 NA
ATOM      2  H   UNL     1       4.641   3.096  18.368  0.00  0.00    +0.000 HD
ENDROOT
BRANCH   1   3
ATOM      3  C   UNL     1       4.702   4.127  16.589  0.00  0.00    +0.000 C 
BRANCH   3   8
ATOM      4  C   UNL     1       7.387   6.758  17.381  0.00  0.00    +0.000 A 
ATOM      5  C   UNL     1       7.758   6.338  18.658  0.00  0.00    +0.000 A 
ATOM      6  N   UNL     1       7.147   5.264  19.224  0.00  0.00    +0.000 NA
ATOM      7  C   UNL     1       6.176   4.569  18.575  0.00  0.00    +0.000 A 
ATOM      8  C   UNL     1       5.772   4.946  17.283  0.00  0.00    +0.000 A 
ATOM      9  C   UNL     1       6.392   6.064  16.693  0.00  0.00    +0.000 A 
ENDBRANCH   3   8
ENDBRANCH   1   3
BRANCH   1  10
ATOM     10  C   UNL     1       2.784   2.988  17.520  0.00  0.00    +0.000 C 
BRANCH  10  11
ATOM     11  C   UNL     1       2.391   3.213  18.947  0.00  0.00    +0.000 A 
ATOM     12  C   UNL     1       1.805   2.273  19.786  0.00  0.00    +0.000 A 
ATOM     13  C   UNL     1       1.554   2.766  21.072  0.00  0.00    +0.000 A 
ATOM     14  C   UNL     1       1.942   4.089  21.244  0.00  0.00    +0.000 A 
ATOM     15  S   UNL     1       2.596   4.648  19.798  0.00  0.00    +0.000 S 
ENDBRANCH  10  11
ENDBRANCH   1  10
TORSDOF 4
ENDMDL
MODEL 8
REMARK VINA RESULT:      -5.7      1.625      1.882
REMARK  Name = 
REMARK  4 active torsions:
REMARK  status: ('A' for Active; 'I' for Inactive)
REMARK    1  A    between atoms: C_5  and  C_6
REMARK    2  A    between atoms: C_6  and  N_7
REMARK    3  A    between atoms: N_7  and  C_8
REMARK    4  A    between atoms: C_8  and  C_9
REMARK                            x       y       z     vdW  Elec       q    Type
REMARK                         _______ _______ _______ _____ _____    ______ ____
ROOT
ATOM      1  N   UNL     1       3.860   5.851  18.220  0.00  0.00    +0.000 NA
ATOM      2  H   UNL     1       4.024   6.567  17.473  0.00  0.00    +0.000 HD
ENDROOT
BRANCH   1   3
ATOM      3  C   UNL     1       4.906   4.824  18.116  0.00  0.00    +0.000 C 
BRANCH   3   8
ATOM      4  C   UNL     1       5.898   4.179  14.461  0.00  0.00    +0.000 A 
ATOM      5  C   UNL     1       7.047   4.966  14.388  0.00  0.00    +0.000 A 
ATOM      6  N   UNL     1       7.456   5.673  15.474  0.00  0.00    +0.000 NA
ATOM      7  C   UNL     1       6.776   5.636  16.650  0.00  0.00    +0.000 A 
ATOM      8  C   UNL     1       5.617   4.853  16.778  0.00  0.00    +0.000 A 
ATOM      9  C   UNL     1       5.180   4.124  15.655  0.00  0.00    +0.000 A 
ENDBRANCH   3   8
ENDBRANCH   1   3
BRANCH   1  10
ATOM     10  C   UNL     1       2.533   5.268  17.990  0.00  0.00    +0.000 C 
BRANCH  10  11
ATOM     11  C   UNL     1       2.173   4.366  19.129  0.00  0.00    +0.000 A 
ATOM     12  C   UNL     1       2.027   4.752  20.456  0.00  0.00    +0.000 A 
ATOM     13  C   UNL     1       1.679   3.692  21.301  0.00  0.00    +0.000 A 
ATOM     14  C   UNL     1       1.551   2.476  20.640  0.00  0.00    +0.000 A 
ATOM     15  S   UNL     1       1.871   2.717  19.006  0.00  0.00    +0.000 S 
ENDBRANCH  10  11
ENDBRANCH   1  10
TORSDOF 4
ENDMDL
MODEL 9
REMARK VINA RESULT:      -5.7      2.376      5.830
REMARK  Name = 
REMARK  4 active torsions:
REMARK  status: ('A' for Active; 'I' for Inactive)
REMARK    1  A    between atoms: C_5  and  C_6
REMARK    2  A    between atoms: C_6  and  N_7
REMARK    3  A    between atoms: N_7  and  C_8
REMARK    4  A    between atoms: C_8  and  C_9
REMARK                            x       y       z     vdW  Elec       q    Type
REMARK                         _______ _______ _______ _____ _____    ______ ____
ROOT
ATOM      1  N   UNL     1       4.539   2.931  17.465  0.00  0.00    +0.000 NA
ATOM      2  H   UNL     1       5.000   2.487  16.636  0.00  0.00    +0.000 HD
ENDROOT
BRANCH   1   3
ATOM      3  C   UNL     1       3.272   2.232  17.721  0.00  0.00    +0.000 C 
BRANCH   3   8
ATOM      4  C   UNL     1       0.956   3.208  20.627  0.00  0.00    +0.000 A 
ATOM      5  C   UNL     1       1.843   3.061  21.693  0.00  0.00    +0.000 A 
ATOM      6  N   UNL     1       3.118   2.651  21.464  0.00  0.00    +0.000 NA
ATOM      7  C   UNL     1       3.569   2.381  20.211  0.00  0.00    +0.000 A 
ATOM      8  C   UNL     1       2.719   2.521  19.101  0.00  0.00    +0.000 A 
ATOM      9  C   UNL     1       1.392   2.937  19.330  0.00  0.00    +0.000 A 
ENDBRANCH   3   8
ENDBRANCH   1   3
BRANCH   1  10
ATOM     10  C   UNL     1       4.299   4.340  17.135  0.00  0.00    +0.000 C 
BRANCH  10  11
ATOM     11  C   UNL     1       5.515   5.150  17.460  0.00  0.00    +0.000 A 
ATOM     12  C   UNL     1       6.577   4.737  18.255  0.00  0.00    +0.000 A 
ATOM     13  C   UNL     1       7.580   5.706  18.378  0.00  0.00    +0.000 A 
ATOM     14  C   UNL     1       7.307   6.877  17.681  0.00  0.00    +0.000 A 
ATOM     15  S   UNL     1       5.820   6.710  16.912  0.00  0.00    +0.000 S 
ENDBRANCH  10  11
ENDBRANCH   1  10
TORSDOF 4
ENDMDL
