MODEL 1
REMARK VINA RESULT:      -8.4      0.000      0.000
REMARK  Name = 
REMARK  8 active torsions:
REMARK  status: ('A' for Active; 'I' for Inactive)
REMARK    1  A    between atoms: C_1  and  C_2
REMARK    2  A    between atoms: C_5  and  N_6
REMARK    3  A    between atoms: N_6  and  C_7
REMARK    4  A    between atoms: C_9  and  C_10
REMARK    5  A    between atoms: C_12  and  O_13
REMARK    6  A    between atoms: C_14  and  O_15
REMARK    7  A    between atoms: C_16  and  O_17
REMARK    8  A    between atoms: C_26  and  C_27
REMARK                            x       y       z     vdW  Elec       q    Type
REMARK                         _______ _______ _______ _____ _____    ______ ____
ROOT
ATOM      1  C   UNL     1       4.071   5.446  19.379  0.00  0.00    +0.000 A 
ATOM      2  N   UNL     1       3.619   6.698  19.171  0.00  0.00    +0.000 NA
ATOM      3  C   UNL     1       2.360   6.986  19.527  0.00  0.00    +0.000 A 
ATOM      4  N   UNL     1       1.506   6.100  20.058  0.00  0.00    +0.000 NA
ATOM      5  C   UNL     1       1.943   4.855  20.240  0.00  0.00    +0.000 A 
ATOM      6  C   UNL     1       1.056   3.933  20.781  0.00  0.00    +0.000 A 
ATOM      7  C   UNL     1       1.424   2.610  21.028  0.00  0.00    +0.000 A 
ATOM      8  C   UNL     1       2.711   2.189  20.728  0.00  0.00    +0.000 A 
ATOM      9  C   UNL     1       3.616   3.092  20.171  0.00  0.00    +0.000 A 
ATOM     10  C   UNL     1       3.244   4.440  19.918  0.00  0.00    +0.000 A 
ENDROOT
BRANCH   3  11
ATOM     11  C   UNL     1       1.900   8.378  19.353  0.00  0.00    +0.000 A 
ATOM     12  C   UNL     1       2.413   9.194  18.317  0.00  0.00    +0.000 A 
ATOM     13  C   UNL     1       1.986  10.513  18.168  0.00  0.00    +0.000 A 
ATOM     14  C   UNL     1       1.048  11.045  19.041  0.00  0.00    +0.000 A 
ATOM     15  C   UNL     1       0.530  10.265  20.062  0.00  0.00    +0.000 A 
ATOM     16  C   UNL     1       0.944   8.948  20.222  0.00  0.00    +0.000 A 
BRANCH  13  17
ATOM     17  O   UNL     1       2.468  11.320  17.177  0.00  0.00    +0.000 OA
ATOM     18  H   UNL     1       1.761  11.441  16.517  0.00  0.00    +0.000 HD
ENDBRANCH  13  17
BRANCH  14  19
ATOM     19  O   UNL     1       0.626  12.340  18.908  0.00  0.00    +0.000 OA
ATOM     20  H   UNL     1       0.270  12.381  17.996  0.00  0.00    +0.000 HD
ENDBRANCH  14  19
BRANCH  15  21
ATOM     21  O   UNL     1      -0.392  10.788  20.921  0.00  0.00    +0.000 OA
ATOM     22  H   UNL     1       0.128  11.358  21.523  0.00  0.00    +0.000 HD
ENDBRANCH  15  21
ENDBRANCH   3  11
BRANCH   1  23
ATOM     23  N   UNL     1       5.396   5.136  18.947  0.00  0.00    +0.000 N 
ATOM     24  H   UNL     1       6.027   5.865  19.261  0.00  0.00    +0.000 HD
BRANCH  23  29
ATOM     25  C   UNL     1       6.588   4.160  13.406  0.00  0.00    +0.000 C 
ATOM     26  C   UNL     1       6.267   4.421  14.848  0.00  0.00    +0.000 A 
ATOM     27  C   UNL     1       5.254   3.714  15.491  0.00  0.00    +0.000 A 
ATOM     28  C   UNL     1       4.988   3.944  16.841  0.00  0.00    +0.000 A 
ATOM     29  C   UNL     1       5.743   4.863  17.591  0.00  0.00    +0.000 A 
ATOM     30  C   UNL     1       6.720   5.628  16.931  0.00  0.00    +0.000 A 
ATOM     31  C   UNL     1       7.533   6.687  17.624  0.00  0.00    +0.000 C 
ATOM     32  C   UNL     1       6.981   5.386  15.568  0.00  0.00    +0.000 A 
ENDBRANCH  23  29
ENDBRANCH   1  23
TORSDOF 6
ENDMDL
MODEL 2
REMARK VINA RESULT:      -8.4      0.047      1.561
REMARK  Name = 
REMARK  8 active torsions:
REMARK  status: ('A' for Active; 'I' for Inactive)
REMARK    1  A    between atoms: C_1  and  C_2
REMARK    2  A    between atoms: C_5  and  N_6
REMARK    3  A    between atoms: N_6  and  C_7
REMARK    4  A    between atoms: C_9  and  C_10
REMARK    5  A    between atoms: C_12  and  O_13
REMARK    6  A    between atoms: C_14  and  O_15
REMARK    7  A    between atoms: C_16  and  O_17
REMARK    8  A    between atoms: C_26  and  C_27
REMARK                            x       y       z     vdW  Elec       q    Type
REMARK                         _______ _______ _______ _____ _____    ______ ____
ROOT
ATOM      1  C   UNL     1       4.077   5.459  19.372  0.00  0.00    +0.000 A 
ATOM      2  N   UNL     1       3.620   6.710  19.166  0.00  0.00    +0.000 NA
ATOM      3  C   UNL     1       2.363   6.995  19.530  0.00  0.00    +0.000 A 
ATOM      4  N   UNL     1       1.514   6.107  20.067  0.00  0.00    +0.000 NA
ATOM      5  C   UNL     1       1.955   4.863  20.247  0.00  0.00    +0.000 A 
ATOM      6  C   UNL     1       1.074   3.940  20.794  0.00  0.00    +0.000 A 
ATOM      7  C   UNL     1       1.447   2.617  21.039  0.00  0.00    +0.000 A 
ATOM      8  C   UNL     1       2.733   2.200  20.732  0.00  0.00    +0.000 A 
ATOM      9  C   UNL     1       3.633   3.105  20.168  0.00  0.00    +0.000 A 
ATOM     10  C   UNL     1       3.255   4.452  19.917  0.00  0.00    +0.000 A 
ENDROOT
BRANCH   3  11
ATOM     11  C   UNL     1       1.899   8.386  19.358  0.00  0.00    +0.000 A 
ATOM     12  C   UNL     1       0.906   8.934  20.205  0.00  0.00    +0.000 A 
ATOM     13  C   UNL     1       0.461  10.244  20.028  0.00  0.00    +0.000 A 
ATOM     14  C   UNL     1       0.987  11.029  19.013  0.00  0.00    +0.000 A 
ATOM     15  C   UNL     1       1.962  10.515  18.174  0.00  0.00    +0.000 A 
ATOM     16  C   UNL     1       2.418   9.212  18.338  0.00  0.00    +0.000 A 
BRANCH  13  17
ATOM     17  O   UNL     1      -0.499  10.794  20.831  0.00  0.00    +0.000 OA
ATOM     18  H   UNL     1      -0.877  11.561  20.363  0.00  0.00    +0.000 HD
ENDBRANCH  13  17
BRANCH  14  19
ATOM     19  O   UNL     1       0.554  12.313  18.827  0.00  0.00    +0.000 OA
ATOM     20  H   UNL     1       0.440  12.388  17.857  0.00  0.00    +0.000 HD
ENDBRANCH  14  19
BRANCH  15  21
ATOM     21  O   UNL     1       2.481  11.287  17.175  0.00  0.00    +0.000 OA
ATOM     22  H   UNL     1       1.909  11.105  16.402  0.00  0.00    +0.000 HD
ENDBRANCH  15  21
ENDBRANCH   3  11
BRANCH   1  23
ATOM     23  N   UNL     1       5.400   5.152  18.933  0.00  0.00    +0.000 N 
ATOM     24  H   UNL     1       6.031   5.885  19.238  0.00  0.00    +0.000 HD
BRANCH  23  29
ATOM     25  C   UNL     1       6.555   4.153  13.389  0.00  0.00    +0.000 C 
ATOM     26  C   UNL     1       6.244   4.420  14.831  0.00  0.00    +0.000 A 
ATOM     27  C   UNL     1       5.244   3.706  15.488  0.00  0.00    +0.000 A 
ATOM     28  C   UNL     1       4.987   3.943  16.838  0.00  0.00    +0.000 A 
ATOM     29  C   UNL     1       5.738   4.874  17.576  0.00  0.00    +0.000 A 
ATOM     30  C   UNL     1       6.702   5.645  16.903  0.00  0.00    +0.000 A 
ATOM     31  C   UNL     1       7.509   6.717  17.582  0.00  0.00    +0.000 C 
ATOM     32  C   UNL     1       6.954   5.397  15.539  0.00  0.00    +0.000 A 
ENDBRANCH  23  29
ENDBRANCH   1  23
TORSDOF 6
ENDMDL
MODEL 3
REMARK VINA RESULT:      -8.4      0.959      1.099
REMARK  Name = 
REMARK  8 active torsions:
REMARK  status: ('A' for Active; 'I' for Inactive)
REMARK    1  A    between atoms: C_1  and  C_2
REMARK    2  A    between atoms: C_5  and  N_6
REMARK    3  A    between atoms: N_6  and  C_7
REMARK    4  A    between atoms: C_9  and  C_10
REMARK    5  A    between atoms: C_12  and  O_13
REMARK    6  A    between atoms: C_14  and  O_15
REMARK    7  A    between atoms: C_16  and  O_17
REMARK    8  A    between atoms: C_26  and  C_27
REMARK                            x       y       z     vdW  Elec       q    Type
REMARK                         _______ _______ _______ _____ _____    ______ ____
ROOT
ATOM      1  C   UNL     1       3.929   5.596  19.439  0.00  0.00    +0.000 A 
ATOM      2  N   UNL     1       3.388   6.826  19.537  0.00  0.00    +0.000 NA
ATOM      3  C   UNL     1       2.135   6.934  19.997  0.00  0.00    +0.000 A 
ATOM      4  N   UNL     1       1.368   5.891  20.347  0.00  0.00    +0.000 NA
ATOM      5  C   UNL     1       1.892   4.673  20.225  0.00  0.00    +0.000 A 
ATOM      6  C   UNL     1       1.095   3.591  20.576  0.00  0.00    +0.000 A 
ATOM      7  C   UNL     1       1.559   2.276  20.502  0.00  0.00    +0.000 A 
ATOM      8  C   UNL     1       2.851   2.029  20.066  0.00  0.00    +0.000 A 
ATOM      9  C   UNL     1       3.667   3.098  19.694  0.00  0.00    +0.000 A 
ATOM     10  C   UNL     1       3.197   4.437  19.768  0.00  0.00    +0.000 A 
ENDROOT
BRANCH   3  11
ATOM     11  C   UNL     1       1.579   8.292  20.162  0.00  0.00    +0.000 A 
ATOM     12  C   UNL     1       1.445   9.166  19.057  0.00  0.00    +0.000 A 
ATOM     13  C   UNL     1       0.933  10.452  19.222  0.00  0.00    +0.000 A 
ATOM     14  C   UNL     1       0.549  10.895  20.479  0.00  0.00    +0.000 A 
ATOM     15  C   UNL     1       0.669  10.057  21.576  0.00  0.00    +0.000 A 
ATOM     16  C   UNL     1       1.175   8.771  21.428  0.00  0.00    +0.000 A 
BRANCH  13  17
ATOM     17  O   UNL     1       0.797  11.315  18.170  0.00  0.00    +0.000 OA
ATOM     18  H   UNL     1       1.590  11.880  18.142  0.00  0.00    +0.000 HD
ENDBRANCH  13  17
BRANCH  14  19
ATOM     19  O   UNL     1       0.051  12.158  20.654  0.00  0.00    +0.000 OA
ATOM     20  H   UNL     1      -0.914  12.021  20.753  0.00  0.00    +0.000 HD
ENDBRANCH  14  19
BRANCH  15  21
ATOM     21  O   UNL     1       0.291  10.491  22.813  0.00  0.00    +0.000 OA
ATOM     22  H   UNL     1       1.126  10.536  23.322  0.00  0.00    +0.000 HD
ENDBRANCH  15  21
ENDBRANCH   3  11
BRANCH   1  23
ATOM     23  N   UNL     1       5.245   5.489  18.898  0.00  0.00    +0.000 N 
ATOM     24  H   UNL     1       5.720   6.380  18.997  0.00  0.00    +0.000 HD
BRANCH  23  29
ATOM     25  C   UNL     1       6.349   3.898  13.483  0.00  0.00    +0.000 C 
ATOM     26  C   UNL     1       6.061   4.325  14.891  0.00  0.00    +0.000 A 
ATOM     27  C   UNL     1       4.778   4.711  15.270  0.00  0.00    +0.000 A 
ATOM     28  C   UNL     1       4.518   5.076  16.590  0.00  0.00    +0.000 A 
ATOM     29  C   UNL     1       5.521   5.035  17.574  0.00  0.00    +0.000 A 
ATOM     30  C   UNL     1       6.833   4.710  17.185  0.00  0.00    +0.000 A 
ATOM     31  C   UNL     1       7.992   4.707  18.143  0.00  0.00    +0.000 C 
ATOM     32  C   UNL     1       7.084   4.344  15.848  0.00  0.00    +0.000 A 
ENDBRANCH  23  29
ENDBRANCH   1  23
TORSDOF 6
ENDMDL
MODEL 4
REMARK VINA RESULT:      -8.4      0.978      1.831
REMARK  Name = 
REMARK  8 active torsions:
REMARK  status: ('A' for Active; 'I' for Inactive)
REMARK    1  A    between atoms: C_1  and  C_2
REMARK    2  A    between atoms: C_5  and  N_6
REMARK    3  A    between atoms: N_6  and  C_7
REMARK    4  A    between atoms: C_9  and  C_10
REMARK    5  A    between atoms: C_12  and  O_13
REMARK    6  A    between atoms: C_14  and  O_15
REMARK    7  A    between atoms: C_16  and  O_17
REMARK    8  A    between atoms: C_26  and  C_27
REMARK                            x       y       z     vdW  Elec       q    Type
REMARK                         _______ _______ _______ _____ _____    ______ ____
ROOT
ATOM      1  C   UNL     1       3.924   5.616  19.460  0.00  0.00    +0.000 A 
ATOM      2  N   UNL     1       3.376   6.842  19.564  0.00  0.00    +0.000 NA
ATOM      3  C   UNL     1       2.126   6.941  20.035  0.00  0.00    +0.000 A 
ATOM      4  N   UNL     1       1.369   5.893  20.391  0.00  0.00    +0.000 NA
ATOM      5  C   UNL     1       1.900   4.678  20.263  0.00  0.00    +0.000 A 
ATOM      6  C   UNL     1       1.113   3.591  20.621  0.00  0.00    +0.000 A 
ATOM      7  C   UNL     1       1.585   2.279  20.542  0.00  0.00    +0.000 A 
ATOM      8  C   UNL     1       2.875   2.041  20.094  0.00  0.00    +0.000 A 
ATOM      9  C   UNL     1       3.681   3.116  19.716  0.00  0.00    +0.000 A 
ATOM     10  C   UNL     1       3.202   4.452  19.795  0.00  0.00    +0.000 A 
ENDROOT
BRANCH   3  11
ATOM     11  C   UNL     1       1.563   8.296  20.206  0.00  0.00    +0.000 A 
ATOM     12  C   UNL     1       1.163   8.766  21.479  0.00  0.00    +0.000 A 
ATOM     13  C   UNL     1       0.618  10.040  21.631  0.00  0.00    +0.000 A 
ATOM     14  C   UNL     1       0.458  10.867  20.529  0.00  0.00    +0.000 A 
ATOM     15  C   UNL     1       0.844  10.429  19.272  0.00  0.00    +0.000 A 
ATOM     16  C   UNL     1       1.391   9.162  19.104  0.00  0.00    +0.000 A 
BRANCH  13  17
ATOM     17  O   UNL     1       0.223  10.516  22.850  0.00  0.00    +0.000 OA
ATOM     18  H   UNL     1      -0.433  11.220  22.698  0.00  0.00    +0.000 HD
ENDBRANCH  13  17
BRANCH  14  19
ATOM     19  O   UNL     1      -0.082  12.117  20.665  0.00  0.00    +0.000 OA
ATOM     20  H   UNL     1      -0.677  12.036  21.439  0.00  0.00    +0.000 HD
ENDBRANCH  14  19
BRANCH  15  21
ATOM     21  O   UNL     1       0.687  11.241  18.187  0.00  0.00    +0.000 OA
ATOM     22  H   UNL     1       1.443  11.860  18.233  0.00  0.00    +0.000 HD
ENDBRANCH  15  21
ENDBRANCH   3  11
BRANCH   1  23
ATOM     23  N   UNL     1       5.236   5.517  18.908  0.00  0.00    +0.000 N 
ATOM     24  H   UNL     1       5.701   6.415  18.991  0.00  0.00    +0.000 HD
BRANCH  23  29
ATOM     25  C   UNL     1       6.314   3.870  13.504  0.00  0.00    +0.000 C 
ATOM     26  C   UNL     1       6.033   4.312  14.909  0.00  0.00    +0.000 A 
ATOM     27  C   UNL     1       4.755   4.717  15.287  0.00  0.00    +0.000 A 
ATOM     28  C   UNL     1       4.501   5.095  16.605  0.00  0.00    +0.000 A 
ATOM     29  C   UNL     1       5.505   5.050  17.588  0.00  0.00    +0.000 A 
ATOM     30  C   UNL     1       6.812   4.706  17.199  0.00  0.00    +0.000 A 
ATOM     31  C   UNL     1       7.972   4.697  18.156  0.00  0.00    +0.000 C 
ATOM     32  C   UNL     1       7.057   4.326  15.865  0.00  0.00    +0.000 A 
ENDBRANCH  23  29
ENDBRANCH   1  23
TORSDOF 6
ENDMDL
MODEL 5
REMARK VINA RESULT:      -8.3      3.791      8.111
REMARK  Name = 
REMARK  8 active torsions:
REMARK  status: ('A' for Active; 'I' for Inactive)
REMARK    1  A    between atoms: C_1  and  C_2
REMARK    2  A    between atoms: C_5  and  N_6
REMARK    3  A    between atoms: N_6  and  C_7
REMARK    4  A    between atoms: C_9  and  C_10
REMARK    5  A    between atoms: C_12  and  O_13
REMARK    6  A    between atoms: C_14  and  O_15
REMARK    7  A    between atoms: C_16  and  O_17
REMARK    8  A    between atoms: C_26  and  C_27
REMARK                            x       y       z     vdW  Elec       q    Type
REMARK                         _______ _______ _______ _____ _____    ______ ____
ROOT
ATOM      1  C   UNL     1       0.836   9.530  18.636  0.00  0.00    +0.000 A 
ATOM      2  N   UNL     1       1.634   8.639  18.017  0.00  0.00    +0.000 NA
ATOM      3  C   UNL     1       2.248   7.711  18.763  0.00  0.00    +0.000 A 
ATOM      4  N   UNL     1       2.140   7.623  20.096  0.00  0.00    +0.000 NA
ATOM      5  C   UNL     1       1.372   8.520  20.713  0.00  0.00    +0.000 A 
ATOM      6  C   UNL     1       1.267   8.437  22.095  0.00  0.00    +0.000 A 
ATOM      7  C   UNL     1       0.472   9.318  22.831  0.00  0.00    +0.000 A 
ATOM      8  C   UNL     1      -0.238  10.311  22.174  0.00  0.00    +0.000 A 
ATOM      9  C   UNL     1      -0.139  10.424  20.787  0.00  0.00    +0.000 A 
ATOM     10  C   UNL     1       0.670   9.529  20.036  0.00  0.00    +0.000 A 
ENDROOT
BRANCH   3  11
ATOM     11  C   UNL     1       3.067   6.701  18.063  0.00  0.00    +0.000 A 
ATOM     12  C   UNL     1       2.746   5.325  18.133  0.00  0.00    +0.000 A 
ATOM     13  C   UNL     1       3.532   4.374  17.482  0.00  0.00    +0.000 A 
ATOM     14  C   UNL     1       4.647   4.769  16.757  0.00  0.00    +0.000 A 
ATOM     15  C   UNL     1       4.980   6.112  16.673  0.00  0.00    +0.000 A 
ATOM     16  C   UNL     1       4.205   7.071  17.313  0.00  0.00    +0.000 A 
BRANCH  13  17
ATOM     17  O   UNL     1       3.244   3.040  17.537  0.00  0.00    +0.000 OA
ATOM     18  H   UNL     1       4.018   2.552  17.201  0.00  0.00    +0.000 HD
ENDBRANCH  13  17
BRANCH  14  19
ATOM     19  O   UNL     1       5.429   3.845  16.119  0.00  0.00    +0.000 OA
ATOM     20  H   UNL     1       6.077   3.571  16.802  0.00  0.00    +0.000 HD
ENDBRANCH  14  19
BRANCH  15  21
ATOM     21  O   UNL     1       6.075   6.501  15.959  0.00  0.00    +0.000 OA
ATOM     22  H   UNL     1       6.483   5.663  15.658  0.00  0.00    +0.000 HD
ENDBRANCH  15  21
ENDBRANCH   3  11
BRANCH   1  23
ATOM     23  N   UNL     1       0.229  10.547  17.839  0.00  0.00    +0.000 N 
ATOM     24  H   UNL     1       0.627  11.447  18.087  0.00  0.00    +0.000 HD
BRANCH  23  29
ATOM     25  C   UNL     1      -5.482  11.207  17.684  0.00  0.00    +0.000 C 
ATOM     26  C   UNL     1      -3.994  11.028  17.735  0.00  0.00    +0.000 A 
ATOM     27  C   UNL     1      -3.407   9.827  17.345  0.00  0.00    +0.000 A 
ATOM     28  C   UNL     1      -2.020   9.685  17.368  0.00  0.00    +0.000 A 
ATOM     29  C   UNL     1      -1.180  10.746  17.750  0.00  0.00    +0.000 A 
ATOM     30  C   UNL     1      -1.769  11.938  18.209  0.00  0.00    +0.000 A 
ATOM     31  C   UNL     1      -0.963  13.106  18.707  0.00  0.00    +0.000 C 
ATOM     32  C   UNL     1      -3.171  12.070  18.181  0.00  0.00    +0.000 A 
ENDBRANCH  23  29
ENDBRANCH   1  23
TORSDOF 6
ENDMDL
MODEL 6
REMARK VINA RESULT:      -8.3      3.801      8.034
REMARK  Name = 
REMARK  8 active torsions:
REMARK  status: ('A' for Active; 'I' for Inactive)
REMARK    1  A    between atoms: C_1  and  C_2
REMARK    2  A    between atoms: C_5  and  N_6
REMARK    3  A    between atoms: N_6  and  C_7
REMARK    4  A    between atoms: C_9  and  C_10
REMARK    5  A    between atoms: C_12  and  O_13
REMARK    6  A    between atoms: C_14  and  O_15
REMARK    7  A    between atoms: C_16  and  O_17
REMARK    8  A    between atoms: C_26  and  C_27
REMARK                            x       y       z     vdW  Elec       q    Type
REMARK                         _______ _______ _______ _____ _____    ______ ____
ROOT
ATOM      1  C   UNL     1       0.773   9.572  18.642  0.00  0.00    +0.000 A 
ATOM      2  N   UNL     1       1.579   8.685  18.026  0.00  0.00    +0.000 NA
ATOM      3  C   UNL     1       2.206   7.770  18.776  0.00  0.00    +0.000 A 
ATOM      4  N   UNL     1       2.103   7.689  20.110  0.00  0.00    +0.000 NA
ATOM      5  C   UNL     1       1.327   8.582  20.723  0.00  0.00    +0.000 A 
ATOM      6  C   UNL     1       1.228   8.507  22.107  0.00  0.00    +0.000 A 
ATOM      7  C   UNL     1       0.425   9.384  22.839  0.00  0.00    +0.000 A 
ATOM      8  C   UNL     1      -0.299  10.364  22.177  0.00  0.00    +0.000 A 
ATOM      9  C   UNL     1      -0.205  10.469  20.789  0.00  0.00    +0.000 A 
ATOM     10  C   UNL     1       0.612   9.578  20.042  0.00  0.00    +0.000 A 
ENDROOT
BRANCH   3  11
ATOM     11  C   UNL     1       3.034   6.764  18.081  0.00  0.00    +0.000 A 
ATOM     12  C   UNL     1       4.180   7.145  17.343  0.00  0.00    +0.000 A 
ATOM     13  C   UNL     1       4.950   6.192  16.676  0.00  0.00    +0.000 A 
ATOM     14  C   UNL     1       4.597   4.851  16.727  0.00  0.00    +0.000 A 
ATOM     15  C   UNL     1       3.480   4.454  17.445  0.00  0.00    +0.000 A 
ATOM     16  C   UNL     1       2.705   5.391  18.117  0.00  0.00    +0.000 A 
BRANCH  13  17
ATOM     17  O   UNL     1       6.058   6.535  15.955  0.00  0.00    +0.000 OA
ATOM     18  H   UNL     1       6.625   7.089  16.523  0.00  0.00    +0.000 HD
ENDBRANCH  13  17
BRANCH  14  19
ATOM     19  O   UNL     1       5.341   3.908  16.071  0.00  0.00    +0.000 OA
ATOM     20  H   UNL     1       4.699   3.194  15.874  0.00  0.00    +0.000 HD
ENDBRANCH  14  19
BRANCH  15  21
ATOM     21  O   UNL     1       3.133   3.135  17.495  0.00  0.00    +0.000 OA
ATOM     22  H   UNL     1       3.298   2.803  16.589  0.00  0.00    +0.000 HD
ENDBRANCH  15  21
ENDBRANCH   3  11
BRANCH   1  23
ATOM     23  N   UNL     1       0.152  10.576  17.840  0.00  0.00    +0.000 N 
ATOM     24  H   UNL     1       0.549  11.481  18.073  0.00  0.00    +0.000 HD
BRANCH  23  29
ATOM     25  C   UNL     1      -5.563  11.202  17.736  0.00  0.00    +0.000 C 
ATOM     26  C   UNL     1      -4.074  11.032  17.774  0.00  0.00    +0.000 A 
ATOM     27  C   UNL     1      -3.483   9.837  17.369  0.00  0.00    +0.000 A 
ATOM     28  C   UNL     1      -2.095   9.704  17.380  0.00  0.00    +0.000 A 
ATOM     29  C   UNL     1      -1.259  10.767  17.764  0.00  0.00    +0.000 A 
ATOM     30  C   UNL     1      -1.851  11.952  18.236  0.00  0.00    +0.000 A 
ATOM     31  C   UNL     1      -1.049  13.121  18.738  0.00  0.00    +0.000 C 
ATOM     32  C   UNL     1      -3.254  12.075  18.221  0.00  0.00    +0.000 A 
ENDBRANCH  23  29
ENDBRANCH   1  23
TORSDOF 6
ENDMDL
MODEL 7
REMARK VINA RESULT:      -8.2      3.220      6.822
REMARK  Name = 
REMARK  8 active torsions:
REMARK  status: ('A' for Active; 'I' for Inactive)
REMARK    1  A    between atoms: C_1  and  C_2
REMARK    2  A    between atoms: C_5  and  N_6
REMARK    3  A    between atoms: N_6  and  C_7
REMARK    4  A    between atoms: C_9  and  C_10
REMARK    5  A    between atoms: C_12  and  O_13
REMARK    6  A    between atoms: C_14  and  O_15
REMARK    7  A    between atoms: C_16  and  O_17
REMARK    8  A    between atoms: C_26  and  C_27
REMARK                            x       y       z     vdW  Elec       q    Type
REMARK                         _______ _______ _______ _____ _____    ______ ____
ROOT
ATOM      1  C   UNL     1       2.802   5.789  19.372  0.00  0.00    +0.000 A 
ATOM      2  N   UNL     1       3.816   5.896  18.492  0.00  0.00    +0.000 NA
ATOM      3  C   UNL     1       4.111   4.834  17.731  0.00  0.00    +0.000 A 
ATOM      4  N   UNL     1       3.476   3.655  17.803  0.00  0.00    +0.000 NA
ATOM      5  C   UNL     1       2.490   3.539  18.691  0.00  0.00    +0.000 A 
ATOM      6  C   UNL     1       1.838   2.316  18.774  0.00  0.00    +0.000 A 
ATOM      7  C   UNL     1       0.780   2.101  19.659  0.00  0.00    +0.000 A 
ATOM      8  C   UNL     1       0.359   3.131  20.487  0.00  0.00    +0.000 A 
ATOM      9  C   UNL     1       1.007   4.365  20.432  0.00  0.00    +0.000 A 
ATOM     10  C   UNL     1       2.084   4.586  19.532  0.00  0.00    +0.000 A 
ENDROOT
BRANCH   3  11
ATOM     11  C   UNL     1       5.181   4.987  16.725  0.00  0.00    +0.000 A 
ATOM     12  C   UNL     1       5.236   4.152  15.583  0.00  0.00    +0.000 A 
ATOM     13  C   UNL     1       6.258   4.292  14.645  0.00  0.00    +0.000 A 
ATOM     14  C   UNL     1       7.240   5.255  14.821  0.00  0.00    +0.000 A 
ATOM     15  C   UNL     1       7.206   6.086  15.930  0.00  0.00    +0.000 A 
ATOM     16  C   UNL     1       6.193   5.961  16.873  0.00  0.00    +0.000 A 
BRANCH  13  17
ATOM     17  O   UNL     1       6.334   3.496  13.537  0.00  0.00    +0.000 OA
ATOM     18  H   UNL     1       6.124   4.045  12.759  0.00  0.00    +0.000 HD
ENDBRANCH  13  17
BRANCH  14  19
ATOM     19  O   UNL     1       8.251   5.397  13.910  0.00  0.00    +0.000 OA
ATOM     20  H   UNL     1       8.947   4.785  14.230  0.00  0.00    +0.000 HD
ENDBRANCH  14  19
BRANCH  15  21
ATOM     21  O   UNL     1       8.172   7.034  16.104  0.00  0.00    +0.000 OA
ATOM     22  H   UNL     1       7.713   7.770  16.557  0.00  0.00    +0.000 HD
ENDBRANCH  15  21
ENDBRANCH   3  11
BRANCH   1  23
ATOM     23  N   UNL     1       2.530   6.908  20.215  0.00  0.00    +0.000 N 
ATOM     24  H   UNL     1       2.054   6.588  21.051  0.00  0.00    +0.000 HD
BRANCH  23  29
ATOM     25  C   UNL     1      -0.454  11.462  18.363  0.00  0.00    +0.000 C 
ATOM     26  C   UNL     1       0.315  10.267  18.841  0.00  0.00    +0.000 A 
ATOM     27  C   UNL     1       1.068   9.502  17.953  0.00  0.00    +0.000 A 
ATOM     28  C   UNL     1       1.804   8.412  18.417  0.00  0.00    +0.000 A 
ATOM     29  C   UNL     1       1.833   8.074  19.782  0.00  0.00    +0.000 A 
ATOM     30  C   UNL     1       1.024   8.801  20.672  0.00  0.00    +0.000 A 
ATOM     31  C   UNL     1       0.927   8.477  22.137  0.00  0.00    +0.000 C 
ATOM     32  C   UNL     1       0.285   9.900  20.192  0.00  0.00    +0.000 A 
ENDBRANCH  23  29
ENDBRANCH   1  23
TORSDOF 6
ENDMDL
MODEL 8
REMARK VINA RESULT:      -8.1      1.028      1.059
REMARK  Name = 
REMARK  8 active torsions:
REMARK  status: ('A' for Active; 'I' for Inactive)
REMARK    1  A    between atoms: C_1  and  C_2
REMARK    2  A    between atoms: C_5  and  N_6
REMARK    3  A    between atoms: N_6  and  C_7
REMARK    4  A    between atoms: C_9  and  C_10
REMARK    5  A    between atoms: C_12  and  O_13
REMARK    6  A    between atoms: C_14  and  O_15
REMARK    7  A    between atoms: C_16  and  O_17
REMARK    8  A    between atoms: C_26  and  C_27
REMARK                            x       y       z     vdW  Elec       q    Type
REMARK                         _______ _______ _______ _____ _____    ______ ____
ROOT
ATOM      1  C   UNL     1       4.252   4.963  18.563  0.00  0.00    +0.000 A 
ATOM      2  N   UNL     1       3.832   6.242  18.613  0.00  0.00    +0.000 NA
ATOM      3  C   UNL     1       2.542   6.477  18.882  0.00  0.00    +0.000 A 
ATOM      4  N   UNL     1       1.627   5.518  19.084  0.00  0.00    +0.000 NA
ATOM      5  C   UNL     1       2.035   4.252  19.009  0.00  0.00    +0.000 A 
ATOM      6  C   UNL     1       1.086   3.257  19.208  0.00  0.00    +0.000 A 
ATOM      7  C   UNL     1       1.418   1.902  19.169  0.00  0.00    +0.000 A 
ATOM      8  C   UNL     1       2.729   1.523  18.925  0.00  0.00    +0.000 A 
ATOM      9  C   UNL     1       3.698   2.504  18.708  0.00  0.00    +0.000 A 
ATOM     10  C   UNL     1       3.363   3.884  18.747  0.00  0.00    +0.000 A 
ENDROOT
BRANCH   3  11
ATOM     11  C   UNL     1       2.111   7.885  18.998  0.00  0.00    +0.000 A 
ATOM     12  C   UNL     1       2.484   8.846  18.029  0.00  0.00    +0.000 A 
ATOM     13  C   UNL     1       2.087  10.176  18.152  0.00  0.00    +0.000 A 
ATOM     14  C   UNL     1       1.317  10.577  19.235  0.00  0.00    +0.000 A 
ATOM     15  C   UNL     1       0.938   9.654  20.195  0.00  0.00    +0.000 A 
ATOM     16  C   UNL     1       1.324   8.323  20.085  0.00  0.00    +0.000 A 
BRANCH  13  17
ATOM     17  O   UNL     1       2.437  11.123  17.231  0.00  0.00    +0.000 OA
ATOM     18  H   UNL     1       3.364  10.963  16.975  0.00  0.00    +0.000 HD
ENDBRANCH  13  17
BRANCH  14  19
ATOM     19  O   UNL     1       0.926  11.882  19.369  0.00  0.00    +0.000 OA
ATOM     20  H   UNL     1       1.369  12.179  20.191  0.00  0.00    +0.000 HD
ENDBRANCH  14  19
BRANCH  15  21
ATOM     21  O   UNL     1       0.180  10.047  21.260  0.00  0.00    +0.000 OA
ATOM     22  H   UNL     1      -0.028  10.986  21.080  0.00  0.00    +0.000 HD
ENDBRANCH  15  21
ENDBRANCH   3  11
BRANCH   1  23
ATOM     23  N   UNL     1       5.617   4.722  18.223  0.00  0.00    +0.000 N 
ATOM     24  H   UNL     1       6.208   5.361  18.744  0.00  0.00    +0.000 HD
BRANCH  23  29
ATOM     25  C   UNL     1       7.385   4.813  12.751  0.00  0.00    +0.000 C 
ATOM     26  C   UNL     1       6.913   4.794  14.174  0.00  0.00    +0.000 A 
ATOM     27  C   UNL     1       6.044   3.803  14.623  0.00  0.00    +0.000 A 
ATOM     28  C   UNL     1       5.638   3.779  15.957  0.00  0.00    +0.000 A 
ATOM     29  C   UNL     1       6.111   4.724  16.885  0.00  0.00    +0.000 A 
ATOM     30  C   UNL     1       6.935   5.765  16.424  0.00  0.00    +0.000 A 
ATOM     31  C   UNL     1       7.436   6.865  17.318  0.00  0.00    +0.000 C 
ATOM     32  C   UNL     1       7.339   5.779  15.074  0.00  0.00    +0.000 A 
ENDBRANCH  23  29
ENDBRANCH   1  23
TORSDOF 6
ENDMDL
MODEL 9
REMARK VINA RESULT:      -8.1      3.222      6.836
REMARK  Name = 
REMARK  8 active torsions:
REMARK  status: ('A' for Active; 'I' for Inactive)
REMARK    1  A    between atoms: C_1  and  C_2
REMARK    2  A    between atoms: C_5  and  N_6
REMARK    3  A    between atoms: N_6  and  C_7
REMARK    4  A    between atoms: C_9  and  C_10
REMARK    5  A    between atoms: C_12  and  O_13
REMARK    6  A    between atoms: C_14  and  O_15
REMARK    7  A    between atoms: C_16  and  O_17
REMARK    8  A    between atoms: C_26  and  C_27
REMARK                            x       y       z     vdW  Elec       q    Type
REMARK                         _______ _______ _______ _____ _____    ______ ____
ROOT
ATOM      1  C   UNL     1       2.800   5.772  19.388  0.00  0.00    +0.000 A 
ATOM      2  N   UNL     1       3.824   5.874  18.518  0.00  0.00    +0.000 NA
ATOM      3  C   UNL     1       4.117   4.812  17.755  0.00  0.00    +0.000 A 
ATOM      4  N   UNL     1       3.471   3.639  17.816  0.00  0.00    +0.000 NA
ATOM      5  C   UNL     1       2.476   3.528  18.695  0.00  0.00    +0.000 A 
ATOM      6  C   UNL     1       1.813   2.310  18.767  0.00  0.00    +0.000 A 
ATOM      7  C   UNL     1       0.745   2.101  19.641  0.00  0.00    +0.000 A 
ATOM      8  C   UNL     1       0.324   3.131  20.468  0.00  0.00    +0.000 A 
ATOM      9  C   UNL     1       0.983   4.360  20.425  0.00  0.00    +0.000 A 
ATOM     10  C   UNL     1       2.071   4.575  19.536  0.00  0.00    +0.000 A 
ENDROOT
BRANCH   3  11
ATOM     11  C   UNL     1       5.198   4.960  16.760  0.00  0.00    +0.000 A 
ATOM     12  C   UNL     1       6.198   5.951  16.909  0.00  0.00    +0.000 A 
ATOM     13  C   UNL     1       7.207   6.095  15.958  0.00  0.00    +0.000 A 
ATOM     14  C   UNL     1       7.243   5.265  14.847  0.00  0.00    +0.000 A 
ATOM     15  C   UNL     1       6.276   4.286  14.681  0.00  0.00    +0.000 A 
ATOM     16  C   UNL     1       5.265   4.129  15.621  0.00  0.00    +0.000 A 
BRANCH  13  17
ATOM     17  O   UNL     1       8.181   7.046  16.078  0.00  0.00    +0.000 OA
ATOM     18  H   UNL     1       9.036   6.627  15.869  0.00  0.00    +0.000 HD
ENDBRANCH  13  17
BRANCH  14  19
ATOM     19  O   UNL     1       8.225   5.402  13.904  0.00  0.00    +0.000 OA
ATOM     20  H   UNL     1       7.749   5.719  13.109  0.00  0.00    +0.000 HD
ENDBRANCH  14  19
BRANCH  15  21
ATOM     21  O   UNL     1       6.311   3.470  13.589  0.00  0.00    +0.000 OA
ATOM     22  H   UNL     1       7.123   2.937  13.706  0.00  0.00    +0.000 HD
ENDBRANCH  15  21
ENDBRANCH   3  11
BRANCH   1  23
ATOM     23  N   UNL     1       2.531   6.891  20.232  0.00  0.00    +0.000 N 
ATOM     24  H   UNL     1       2.048   6.570  21.065  0.00  0.00    +0.000 HD
BRANCH  23  29
ATOM     25  C   UNL     1      -0.419  11.466  18.378  0.00  0.00    +0.000 C 
ATOM     26  C   UNL     1       0.341  10.265  18.857  0.00  0.00    +0.000 A 
ATOM     27  C   UNL     1       1.093   9.498  17.970  0.00  0.00    +0.000 A 
ATOM     28  C   UNL     1       1.820   8.403  18.435  0.00  0.00    +0.000 A 
ATOM     29  C   UNL     1       1.842   8.062  19.799  0.00  0.00    +0.000 A 
ATOM     30  C   UNL     1       1.033   8.791  20.688  0.00  0.00    +0.000 A 
ATOM     31  C   UNL     1       0.929   8.464  22.152  0.00  0.00    +0.000 C 
ATOM     32  C   UNL     1       0.303   9.896  20.207  0.00  0.00    +0.000 A 
ENDBRANCH  23  29
ENDBRANCH   1  23
TORSDOF 6
ENDMDL
