MODEL 1
REMARK VINA RESULT:      -6.6      0.000      0.000
REMARK  Name = 
REMARK  4 active torsions:
REMARK  status: ('A' for Active; 'I' for Inactive)
REMARK    1  A    between atoms: C_1  and  C_2
REMARK    2  A    between atoms: C_6  and  C_7
REMARK    3  A    between atoms: C_8  and  N_9
REMARK    4  A    between atoms: C_18  and  C_19
REMARK                            x       y       z     vdW  Elec       q    Type
REMARK                         _______ _______ _______ _____ _____    ______ ____
ROOT
ATOM      1  C   UNL     1      11.346  15.853  16.500  0.00  0.00    +0.000 C 
ATOM      2  C   UNL     1      10.603  15.527  17.805  0.00  0.00    +0.000 C 
ATOM      3  C   UNL     1      10.850  16.659  18.806  0.00  0.00    +0.000 C 
ATOM      4  C   UNL     1      10.163  16.399  20.140  0.00  0.00    +0.000 C 
ATOM      5  C   UNL     1      10.660  15.087  20.758  0.00  0.00    +0.000 C 
ATOM      6  C   UNL     1      10.052  14.776  22.152  0.00  0.00    +0.000 C 
ATOM      7  C   UNL     1      10.188  15.946  23.133  0.00  0.00    +0.000 C 
ATOM      8  C   UNL     1       8.584  14.266  22.058  0.00  0.00    +0.000 C 
ATOM      9  O   UNL     1       8.462  13.195  21.136  0.00  0.00    +0.000 OA
ATOM     10  C   UNL     1       8.946  13.470  19.822  0.00  0.00    +0.000 C 
ATOM     11  O   UNL     1       8.709  12.305  19.026  0.00  0.00    +0.000 OA
ATOM     12  C   UNL     1       9.811  11.401  19.142  0.00  0.00    +0.000 C 
ATOM     13  C   UNL     1       9.240   9.985  19.162  0.00  0.00    +0.000 C 
ATOM     14  C   UNL     1      10.755  11.588  17.939  0.00  0.00    +0.000 C 
ATOM     15  C   UNL     1      10.743  13.015  17.376  0.00  0.00    +0.000 C 
ATOM     16  C   UNL     1      11.026  14.152  18.388  0.00  0.00    +0.000 C 
ATOM     17  C   UNL     1      10.445  13.883  19.810  0.00  0.00    +0.000 C 
ATOM     18  O   UNL     1      11.286  12.813  20.323  0.00  0.00    +0.000 OA
ATOM     19  O   UNL     1      10.513  11.570  20.382  0.00  0.00    +0.000 OA
ENDROOT
BRANCH   8  20
ATOM     20  N   UNL     1       8.038  13.862  23.375  0.00  0.00    +0.000 NA
ATOM     21  C   UNL     1       7.954  12.391  23.520  0.00  0.00    +0.000 C 
ATOM     22  C   UNL     1       7.578  11.939  24.937  0.00  0.00    +0.000 C 
ATOM     23  S   UNL     1       5.917  12.491  25.416  0.00  0.00    +0.000 S 
ATOM     24  C   UNL     1       6.134  14.247  24.995  0.00  0.00    +0.000 C 
ATOM     25  C   UNL     1       6.698  14.458  23.582  0.00  0.00    +0.000 C 
ENDBRANCH   8  20
TORSDOF 1
ENDMDL
MODEL 2
REMARK VINA RESULT:      -6.0      9.103     11.077
REMARK  Name = 
REMARK  4 active torsions:
REMARK  status: ('A' for Active; 'I' for Inactive)
REMARK    1  A    between atoms: C_1  and  C_2
REMARK    2  A    between atoms: C_6  and  C_7
REMARK    3  A    between atoms: C_8  and  N_9
REMARK    4  A    between atoms: C_18  and  C_19
REMARK                            x       y       z     vdW  Elec       q    Type
REMARK                         _______ _______ _______ _____ _____    ______ ____
ROOT
ATOM      1  C   UNL     1       1.217   8.560  20.720  0.00  0.00    +0.000 C 
ATOM      2  C   UNL     1       0.668   9.808  21.426  0.00  0.00    +0.000 C 
ATOM      3  C   UNL     1      -0.398   9.372  22.437  0.00  0.00    +0.000 C 
ATOM      4  C   UNL     1      -1.011  10.560  23.166  0.00  0.00    +0.000 C 
ATOM      5  C   UNL     1      -1.655  11.533  22.171  0.00  0.00    +0.000 C 
ATOM      6  C   UNL     1      -2.357  12.745  22.838  0.00  0.00    +0.000 C 
ATOM      7  C   UNL     1      -3.344  12.329  23.936  0.00  0.00    +0.000 C 
ATOM      8  C   UNL     1      -1.344  13.813  23.344  0.00  0.00    +0.000 C 
ATOM      9  O   UNL     1      -0.423  14.180  22.330  0.00  0.00    +0.000 OA
ATOM     10  C   UNL     1       0.295  13.096  21.743  0.00  0.00    +0.000 C 
ATOM     11  O   UNL     1       1.194  13.651  20.779  0.00  0.00    +0.000 OA
ATOM     12  C   UNL     1       0.539  13.779  19.514  0.00  0.00    +0.000 C 
ATOM     13  C   UNL     1       1.022  15.082  18.879  0.00  0.00    +0.000 C 
ATOM     14  C   UNL     1       0.902  12.576  18.625  0.00  0.00    +0.000 C 
ATOM     15  C   UNL     1       1.198  11.300  19.424  0.00  0.00    +0.000 C 
ATOM     16  C   UNL     1       0.102  10.846  20.420  0.00  0.00    +0.000 C 
ATOM     17  C   UNL     1      -0.643  12.029  21.110  0.00  0.00    +0.000 C 
ATOM     18  O   UNL     1      -1.438  12.603  20.035  0.00  0.00    +0.000 OA
ATOM     19  O   UNL     1      -0.883  13.905  19.660  0.00  0.00    +0.000 OA
ENDROOT
BRANCH   8  20
ATOM     20  N   UNL     1      -2.013  15.021  23.881  0.00  0.00    +0.000 NA
ATOM     21  C   UNL     1      -2.219  16.057  22.842  0.00  0.00    +0.000 C 
ATOM     22  C   UNL     1      -3.078  17.234  23.317  0.00  0.00    +0.000 C 
ATOM     23  S   UNL     1      -2.291  18.160  24.665  0.00  0.00    +0.000 S 
ATOM     24  C   UNL     1      -1.937  16.737  25.738  0.00  0.00    +0.000 C 
ATOM     25  C   UNL     1      -1.227  15.592  25.000  0.00  0.00    +0.000 C 
ENDBRANCH   8  20
TORSDOF 1
ENDMDL
MODEL 3
REMARK VINA RESULT:      -5.8      8.387     10.375
REMARK  Name = 
REMARK  4 active torsions:
REMARK  status: ('A' for Active; 'I' for Inactive)
REMARK    1  A    between atoms: C_1  and  C_2
REMARK    2  A    between atoms: C_6  and  C_7
REMARK    3  A    between atoms: C_8  and  N_9
REMARK    4  A    between atoms: C_18  and  C_19
REMARK                            x       y       z     vdW  Elec       q    Type
REMARK                         _______ _______ _______ _____ _____    ______ ____
ROOT
ATOM      1  C   UNL     1       1.777   8.369  18.463  0.00  0.00    +0.000 C 
ATOM      2  C   UNL     1       1.348   9.842  18.553  0.00  0.00    +0.000 C 
ATOM      3  C   UNL     1       2.375  10.698  17.806  0.00  0.00    +0.000 C 
ATOM      4  C   UNL     1       2.032  12.181  17.869  0.00  0.00    +0.000 C 
ATOM      5  C   UNL     1       1.966  12.661  19.323  0.00  0.00    +0.000 C 
ATOM      6  C   UNL     1       1.681  14.178  19.475  0.00  0.00    +0.000 C 
ATOM      7  C   UNL     1       2.629  15.047  18.640  0.00  0.00    +0.000 C 
ATOM      8  C   UNL     1       0.188  14.530  19.211  0.00  0.00    +0.000 C 
ATOM      9  O   UNL     1      -0.684  13.711  19.973  0.00  0.00    +0.000 OA
ATOM     10  C   UNL     1      -0.498  12.307  19.804  0.00  0.00    +0.000 C 
ATOM     11  O   UNL     1      -1.477  11.645  20.609  0.00  0.00    +0.000 OA
ATOM     12  C   UNL     1      -0.975  11.456  21.935  0.00  0.00    +0.000 C 
ATOM     13  C   UNL     1      -2.137  11.679  22.900  0.00  0.00    +0.000 C 
ATOM     14  C   UNL     1      -0.421  10.027  22.074  0.00  0.00    +0.000 C 
ATOM     15  C   UNL     1       0.120   9.455  20.756  0.00  0.00    +0.000 C 
ATOM     16  C   UNL     1       1.181  10.311  20.023  0.00  0.00    +0.000 C 
ATOM     17  C   UNL     1       0.945  11.847  20.155  0.00  0.00    +0.000 C 
ATOM     18  O   UNL     1       1.256  12.120  21.550  0.00  0.00    +0.000 OA
ATOM     19  O   UNL     1       0.021  12.433  22.272  0.00  0.00    +0.000 OA
ENDROOT
BRANCH   8  20
ATOM     20  N   UNL     1      -0.113  15.959  19.463  0.00  0.00    +0.000 NA
ATOM     21  C   UNL     1      -1.139  16.139  20.515  0.00  0.00    +0.000 C 
ATOM     22  C   UNL     1      -1.331  17.601  20.936  0.00  0.00    +0.000 C 
ATOM     23  S   UNL     1      -1.955  18.631  19.578  0.00  0.00    +0.000 S 
ATOM     24  C   UNL     1      -0.716  18.143  18.340  0.00  0.00    +0.000 C 
ATOM     25  C   UNL     1      -0.561  16.620  18.216  0.00  0.00    +0.000 C 
ENDBRANCH   8  20
TORSDOF 1
ENDMDL
MODEL 4
REMARK VINA RESULT:      -5.7      1.948      3.707
REMARK  Name = 
REMARK  4 active torsions:
REMARK  status: ('A' for Active; 'I' for Inactive)
REMARK    1  A    between atoms: C_1  and  C_2
REMARK    2  A    between atoms: C_6  and  C_7
REMARK    3  A    between atoms: C_8  and  N_9
REMARK    4  A    between atoms: C_18  and  C_19
REMARK                            x       y       z     vdW  Elec       q    Type
REMARK                         _______ _______ _______ _____ _____    ______ ____
ROOT
ATOM      1  C   UNL     1      11.958  12.620  17.327  0.00  0.00    +0.000 C 
ATOM      2  C   UNL     1      11.313  12.948  18.683  0.00  0.00    +0.000 C 
ATOM      3  C   UNL     1      11.114  11.643  19.460  0.00  0.00    +0.000 C 
ATOM      4  C   UNL     1      10.454  11.882  20.812  0.00  0.00    +0.000 C 
ATOM      5  C   UNL     1       9.088  12.555  20.637  0.00  0.00    +0.000 C 
ATOM      6  C   UNL     1       8.320  12.780  21.966  0.00  0.00    +0.000 C 
ATOM      7  C   UNL     1       8.213  11.506  22.813  0.00  0.00    +0.000 C 
ATOM      8  C   UNL     1       8.890  13.974  22.786  0.00  0.00    +0.000 C 
ATOM      9  O   UNL     1       9.003  15.145  21.993  0.00  0.00    +0.000 OA
ATOM     10  C   UNL     1       9.764  14.994  20.796  0.00  0.00    +0.000 C 
ATOM     11  O   UNL     1       9.804  16.270  20.150  0.00  0.00    +0.000 OA
ATOM     12  C   UNL     1       8.667  16.421  19.296  0.00  0.00    +0.000 C 
ATOM     13  C   UNL     1       8.208  17.874  19.399  0.00  0.00    +0.000 C 
ATOM     14  C   UNL     1       9.065  16.080  17.848  0.00  0.00    +0.000 C 
ATOM     15  C   UNL     1      10.198  15.049  17.758  0.00  0.00    +0.000 C 
ATOM     16  C   UNL     1       9.976  13.720  18.520  0.00  0.00    +0.000 C 
ATOM     17  C   UNL     1       9.197  13.890  19.860  0.00  0.00    +0.000 C 
ATOM     18  O   UNL     1       7.846  14.214  19.428  0.00  0.00    +0.000 OA
ATOM     19  O   UNL     1       7.561  15.618  19.732  0.00  0.00    +0.000 OA
ENDROOT
BRANCH   8  20
ATOM     20  N   UNL     1       8.092  14.262  24.001  0.00  0.00    +0.000 NA
ATOM     21  C   UNL     1       6.821  14.955  23.685  0.00  0.00    +0.000 C 
ATOM     22  C   UNL     1       5.886  15.093  24.893  0.00  0.00    +0.000 C 
ATOM     23  S   UNL     1       6.601  16.128  26.201  0.00  0.00    +0.000 S 
ATOM     24  C   UNL     1       8.199  15.270  26.318  0.00  0.00    +0.000 C 
ATOM     25  C   UNL     1       8.878  15.080  24.953  0.00  0.00    +0.000 C 
ENDBRANCH   8  20
TORSDOF 1
ENDMDL
MODEL 5
REMARK VINA RESULT:      -5.6     11.544     14.294
REMARK  Name = 
REMARK  4 active torsions:
REMARK  status: ('A' for Active; 'I' for Inactive)
REMARK    1  A    between atoms: C_1  and  C_2
REMARK    2  A    between atoms: C_6  and  C_7
REMARK    3  A    between atoms: C_8  and  N_9
REMARK    4  A    between atoms: C_18  and  C_19
REMARK                            x       y       z     vdW  Elec       q    Type
REMARK                         _______ _______ _______ _____ _____    ______ ____
ROOT
ATOM      1  C   UNL     1      -5.970  11.453  18.195  0.00  0.00    +0.000 C 
ATOM      2  C   UNL     1      -5.140  12.308  19.166  0.00  0.00    +0.000 C 
ATOM      3  C   UNL     1      -3.664  11.925  19.018  0.00  0.00    +0.000 C 
ATOM      4  C   UNL     1      -2.773  12.715  19.968  0.00  0.00    +0.000 C 
ATOM      5  C   UNL     1      -3.192  12.480  21.424  0.00  0.00    +0.000 C 
ATOM      6  C   UNL     1      -2.296  13.203  22.464  0.00  0.00    +0.000 C 
ATOM      7  C   UNL     1      -0.802  12.922  22.257  0.00  0.00    +0.000 C 
ATOM      8  C   UNL     1      -2.592  14.729  22.543  0.00  0.00    +0.000 C 
ATOM      9  O   UNL     1      -3.977  14.982  22.717  0.00  0.00    +0.000 OA
ATOM     10  C   UNL     1      -4.828  14.392  21.737  0.00  0.00    +0.000 C 
ATOM     11  O   UNL     1      -6.170  14.781  22.044  0.00  0.00    +0.000 OA
ATOM     12  C   UNL     1      -6.748  13.855  22.968  0.00  0.00    +0.000 C 
ATOM     13  C   UNL     1      -7.611  14.658  23.939  0.00  0.00    +0.000 C 
ATOM     14  C   UNL     1      -7.606  12.832  22.200  0.00  0.00    +0.000 C 
ATOM     15  C   UNL     1      -7.105  12.573  20.773  0.00  0.00    +0.000 C 
ATOM     16  C   UNL     1      -5.620  12.154  20.634  0.00  0.00    +0.000 C 
ATOM     17  C   UNL     1      -4.677  12.846  21.665  0.00  0.00    +0.000 C 
ATOM     18  O   UNL     1      -5.043  12.226  22.929  0.00  0.00    +0.000 OA
ATOM     19  O   UNL     1      -5.750  13.200  23.764  0.00  0.00    +0.000 OA
ENDROOT
BRANCH   8  20
ATOM     20  N   UNL     1      -1.817  15.404  23.611  0.00  0.00    +0.000 NA
ATOM     21  C   UNL     1      -2.332  15.085  24.964  0.00  0.00    +0.000 C 
ATOM     22  C   UNL     1      -1.437  15.607  26.094  0.00  0.00    +0.000 C 
ATOM     23  S   UNL     1      -1.340  17.420  26.112  0.00  0.00    +0.000 S 
ATOM     24  C   UNL     1      -0.899  17.637  24.361  0.00  0.00    +0.000 C 
ATOM     25  C   UNL     1      -1.830  16.870  23.410  0.00  0.00    +0.000 C 
ENDBRANCH   8  20
TORSDOF 1
ENDMDL
MODEL 6
REMARK VINA RESULT:      -5.6     10.735     12.629
REMARK  Name = 
REMARK  4 active torsions:
REMARK  status: ('A' for Active; 'I' for Inactive)
REMARK    1  A    between atoms: C_1  and  C_2
REMARK    2  A    between atoms: C_6  and  C_7
REMARK    3  A    between atoms: C_8  and  N_9
REMARK    4  A    between atoms: C_18  and  C_19
REMARK                            x       y       z     vdW  Elec       q    Type
REMARK                         _______ _______ _______ _____ _____    ______ ____
ROOT
ATOM      1  C   UNL     1       1.708   9.445  18.196  0.00  0.00    +0.000 C 
ATOM      2  C   UNL     1       0.326   9.986  18.594  0.00  0.00    +0.000 C 
ATOM      3  C   UNL     1      -0.700   9.524  17.555  0.00  0.00    +0.000 C 
ATOM      4  C   UNL     1      -2.098  10.041  17.866  0.00  0.00    +0.000 C 
ATOM      5  C   UNL     1      -2.111  11.574  17.913  0.00  0.00    +0.000 C 
ATOM      6  C   UNL     1      -3.514  12.186  18.166  0.00  0.00    +0.000 C 
ATOM      7  C   UNL     1      -4.580  11.644  17.206  0.00  0.00    +0.000 C 
ATOM      8  C   UNL     1      -3.956  12.060  19.653  0.00  0.00    +0.000 C 
ATOM      9  O   UNL     1      -2.958  12.547  20.537  0.00  0.00    +0.000 OA
ATOM     10  C   UNL     1      -1.671  11.954  20.381  0.00  0.00    +0.000 C 
ATOM     11  O   UNL     1      -0.811  12.531  21.368  0.00  0.00    +0.000 OA
ATOM     12  C   UNL     1      -0.217  13.729  20.861  0.00  0.00    +0.000 C 
ATOM     13  C   UNL     1      -0.154  14.730  22.012  0.00  0.00    +0.000 C 
ATOM     14  C   UNL     1       1.196  13.417  20.335  0.00  0.00    +0.000 C 
ATOM     15  C   UNL     1       1.346  11.981  19.816  0.00  0.00    +0.000 C 
ATOM     16  C   UNL     1       0.326  11.531  18.742  0.00  0.00    +0.000 C 
ATOM     17  C   UNL     1      -1.100  12.129  18.945  0.00  0.00    +0.000 C 
ATOM     18  O   UNL     1      -0.927  13.537  18.620  0.00  0.00    +0.000 OA
ATOM     19  O   UNL     1      -1.026  14.336  19.843  0.00  0.00    +0.000 OA
ENDROOT
BRANCH   8  20
ATOM     20  N   UNL     1      -5.245  12.741  19.922  0.00  0.00    +0.000 NA
ATOM     21  C   UNL     1      -5.084  13.911  20.817  0.00  0.00    +0.000 C 
ATOM     22  C   UNL     1      -6.361  14.749  20.958  0.00  0.00    +0.000 C 
ATOM     23  S   UNL     1      -7.710  13.820  21.739  0.00  0.00    +0.000 S 
ATOM     24  C   UNL     1      -7.635  12.362  20.656  0.00  0.00    +0.000 C 
ATOM     25  C   UNL     1      -6.215  11.793  20.516  0.00  0.00    +0.000 C 
ENDBRANCH   8  20
TORSDOF 1
ENDMDL
MODEL 7
REMARK VINA RESULT:      -5.6      9.742     11.449
REMARK  Name = 
REMARK  4 active torsions:
REMARK  status: ('A' for Active; 'I' for Inactive)
REMARK    1  A    between atoms: C_1  and  C_2
REMARK    2  A    between atoms: C_6  and  C_7
REMARK    3  A    between atoms: C_8  and  N_9
REMARK    4  A    between atoms: C_18  and  C_19
REMARK                            x       y       z     vdW  Elec       q    Type
REMARK                         _______ _______ _______ _____ _____    ______ ____
ROOT
ATOM      1  C   UNL     1       3.303  14.113  20.299  0.00  0.00    +0.000 C 
ATOM      2  C   UNL     1       1.779  14.023  20.473  0.00  0.00    +0.000 C 
ATOM      3  C   UNL     1       1.404  14.620  21.833  0.00  0.00    +0.000 C 
ATOM      4  C   UNL     1      -0.095  14.546  22.093  0.00  0.00    +0.000 C 
ATOM      5  C   UNL     1      -0.581  13.093  22.051  0.00  0.00    +0.000 C 
ATOM      6  C   UNL     1      -2.091  12.923  22.366  0.00  0.00    +0.000 C 
ATOM      7  C   UNL     1      -2.507  13.617  23.669  0.00  0.00    +0.000 C 
ATOM      8  C   UNL     1      -2.997  13.342  21.172  0.00  0.00    +0.000 C 
ATOM      9  O   UNL     1      -2.596  12.711  19.966  0.00  0.00    +0.000 OA
ATOM     10  C   UNL     1      -1.230  12.906  19.607  0.00  0.00    +0.000 C 
ATOM     11  O   UNL     1      -1.016  12.238  18.359  0.00  0.00    +0.000 OA
ATOM     12  C   UNL     1      -0.663  10.872  18.590  0.00  0.00    +0.000 C 
ATOM     13  C   UNL     1      -1.337  10.037  17.503  0.00  0.00    +0.000 C 
ATOM     14  C   UNL     1       0.867  10.719  18.519  0.00  0.00    +0.000 C 
ATOM     15  C   UNL     1       1.622  11.986  18.943  0.00  0.00    +0.000 C 
ATOM     16  C   UNL     1       1.261  12.566  20.333  0.00  0.00    +0.000 C 
ATOM     17  C   UNL     1      -0.245  12.410  20.703  0.00  0.00    +0.000 C 
ATOM     18  O   UNL     1      -0.392  10.981  20.930  0.00  0.00    +0.000 OA
ATOM     19  O   UNL     1      -1.175  10.392  19.841  0.00  0.00    +0.000 OA
ENDROOT
BRANCH   8  20
ATOM     20  N   UNL     1      -4.433  13.078  21.428  0.00  0.00    +0.000 NA
ATOM     21  C   UNL     1      -5.059  12.289  20.341  0.00  0.00    +0.000 C 
ATOM     22  C   UNL     1      -6.487  11.833  20.665  0.00  0.00    +0.000 C 
ATOM     23  S   UNL     1      -7.627  13.232  20.864  0.00  0.00    +0.000 S 
ATOM     24  C   UNL     1      -6.625  14.170  22.057  0.00  0.00    +0.000 C 
ATOM     25  C   UNL     1      -5.169  14.351  21.603  0.00  0.00    +0.000 C 
ENDBRANCH   8  20
TORSDOF 1
ENDMDL
MODEL 8
REMARK VINA RESULT:      -5.6      9.587     11.597
REMARK  Name = 
REMARK  4 active torsions:
REMARK  status: ('A' for Active; 'I' for Inactive)
REMARK    1  A    between atoms: C_1  and  C_2
REMARK    2  A    between atoms: C_6  and  C_7
REMARK    3  A    between atoms: C_8  and  N_9
REMARK    4  A    between atoms: C_18  and  C_19
REMARK                            x       y       z     vdW  Elec       q    Type
REMARK                         _______ _______ _______ _____ _____    ______ ____
ROOT
ATOM      1  C   UNL     1       1.874   9.704  17.830  0.00  0.00    +0.000 C 
ATOM      2  C   UNL     1       0.700  10.278  18.639  0.00  0.00    +0.000 C 
ATOM      3  C   UNL     1      -0.611   9.795  18.013  0.00  0.00    +0.000 C 
ATOM      4  C   UNL     1      -1.828  10.342  18.747  0.00  0.00    +0.000 C 
ATOM      5  C   UNL     1      -1.822  11.875  18.738  0.00  0.00    +0.000 C 
ATOM      6  C   UNL     1      -3.062  12.516  19.416  0.00  0.00    +0.000 C 
ATOM      7  C   UNL     1      -4.386  11.956  18.880  0.00  0.00    +0.000 C 
ATOM      8  C   UNL     1      -2.991  12.447  20.969  0.00  0.00    +0.000 C 
ATOM      9  O   UNL     1      -1.757  12.950  21.457  0.00  0.00    +0.000 OA
ATOM     10  C   UNL     1      -0.594  12.334  20.909  0.00  0.00    +0.000 C 
ATOM     11  O   UNL     1       0.544  12.932  21.537  0.00  0.00    +0.000 OA
ATOM     12  C   UNL     1       0.940  14.103  20.819  0.00  0.00    +0.000 C 
ATOM     13  C   UNL     1       1.380  15.143  21.847  0.00  0.00    +0.000 C 
ATOM     14  C   UNL     1       2.101  13.754  19.870  0.00  0.00    +0.000 C 
ATOM     15  C   UNL     1       2.069  12.299  19.383  0.00  0.00    +0.000 C 
ATOM     16  C   UNL     1       0.751  11.827  18.722  0.00  0.00    +0.000 C 
ATOM     17  C   UNL     1      -0.527  12.452  19.360  0.00  0.00    +0.000 C 
ATOM     18  O   UNL     1      -0.468  13.845  18.944  0.00  0.00    +0.000 OA
ATOM     19  O   UNL     1      -0.157  14.687  20.101  0.00  0.00    +0.000 OA
ENDROOT
BRANCH   8  20
ATOM     20  N   UNL     1      -4.118  13.155  21.621  0.00  0.00    +0.000 NA
ATOM     21  C   UNL     1      -4.051  14.622  21.420  0.00  0.00    +0.000 C 
ATOM     22  C   UNL     1      -5.300  15.362  21.913  0.00  0.00    +0.000 C 
ATOM     23  S   UNL     1      -5.528  15.206  23.707  0.00  0.00    +0.000 S 
ATOM     24  C   UNL     1      -5.389  13.396  23.795  0.00  0.00    +0.000 C 
ATOM     25  C   UNL     1      -4.146  12.855  23.071  0.00  0.00    +0.000 C 
ENDBRANCH   8  20
TORSDOF 1
ENDMDL
MODEL 9
REMARK VINA RESULT:      -5.5      8.156     10.238
REMARK  Name = 
REMARK  4 active torsions:
REMARK  status: ('A' for Active; 'I' for Inactive)
REMARK    1  A    between atoms: C_1  and  C_2
REMARK    2  A    between atoms: C_6  and  C_7
REMARK    3  A    between atoms: C_8  and  N_9
REMARK    4  A    between atoms: C_18  and  C_19
REMARK                            x       y       z     vdW  Elec       q    Type
REMARK                         _______ _______ _______ _____ _____    ______ ____
ROOT
ATOM      1  C   UNL     1       1.791   9.702  17.932  0.00  0.00    +0.000 C 
ATOM      2  C   UNL     1       1.136  10.624  18.972  0.00  0.00    +0.000 C 
ATOM      3  C   UNL     1      -0.274  10.107  19.269  0.00  0.00    +0.000 C 
ATOM      4  C   UNL     1      -1.002  10.984  20.279  0.00  0.00    +0.000 C 
ATOM      5  C   UNL     1      -1.112  12.425  19.765  0.00  0.00    +0.000 C 
ATOM      6  C   UNL     1      -1.894  13.374  20.710  0.00  0.00    +0.000 C 
ATOM      7  C   UNL     1      -3.265  12.815  21.111  0.00  0.00    +0.000 C 
ATOM      8  C   UNL     1      -1.056  13.799  21.951  0.00  0.00    +0.000 C 
ATOM      9  O   UNL     1       0.217  14.299  21.574  0.00  0.00    +0.000 OA
ATOM     10  C   UNL     1       0.995  13.422  20.763  0.00  0.00    +0.000 C 
ATOM     11  O   UNL     1       2.248  14.067  20.515  0.00  0.00    +0.000 OA
ATOM     12  C   UNL     1       2.149  14.898  19.356  0.00  0.00    +0.000 C 
ATOM     13  C   UNL     1       2.965  16.160  19.628  0.00  0.00    +0.000 C 
ATOM     14  C   UNL     1       2.708  14.145  18.135  0.00  0.00    +0.000 C 
ATOM     15  C   UNL     1       2.544  12.622  18.236  0.00  0.00    +0.000 C 
ATOM     16  C   UNL     1       1.109  12.104  18.504  0.00  0.00    +0.000 C 
ATOM     17  C   UNL     1       0.275  13.030  19.441  0.00  0.00    +0.000 C 
ATOM     18  O   UNL     1       0.019  14.203  18.619  0.00  0.00    +0.000 OA
ATOM     19  O   UNL     1       0.801  15.333  19.124  0.00  0.00    +0.000 OA
ENDROOT
BRANCH   8  20
ATOM     20  N   UNL     1      -1.759  14.793  22.798  0.00  0.00    +0.000 NA
ATOM     21  C   UNL     1      -1.503  16.184  22.358  0.00  0.00    +0.000 C 
ATOM     22  C   UNL     1      -2.366  17.221  23.088  0.00  0.00    +0.000 C 
ATOM     23  S   UNL     1      -2.009  17.283  24.866  0.00  0.00    +0.000 S 
ATOM     24  C   UNL     1      -2.171  15.501  25.190  0.00  0.00    +0.000 C 
ATOM     25  C   UNL     1      -1.356  14.639  24.214  0.00  0.00    +0.000 C 
ENDBRANCH   8  20
TORSDOF 1
ENDMDL
