MODEL 1
REMARK VINA RESULT:      -8.0      0.000      0.000
REMARK  Name = 
REMARK  7 active torsions:
REMARK  status: ('A' for Active; 'I' for Inactive)
REMARK    1  A    between atoms: C_1  and  N_2
REMARK    2  A    between atoms: N_2  and  C_3
REMARK    3  A    between atoms: N_2  and  C_5
REMARK    4  A    between atoms: C_5  and  C_6
REMARK    5  A    between atoms: N_8  and  C_9
REMARK    6  A    between atoms: C_12  and  N_13
REMARK    7  A    between atoms: N_16  and  C_17
REMARK                            x       y       z     vdW  Elec       q    Type
REMARK                         _______ _______ _______ _____ _____    ______ ____
ROOT
ATOM      1  C   UNL     1       2.347   6.700  18.822  0.00  0.00    +0.000 A 
ATOM      2  C   UNL     1       1.976   6.594  20.164  0.00  0.00    +0.000 A 
ATOM      3  C   UNL     1       1.451   7.688  20.869  0.00  0.00    +0.000 A 
ATOM      4  C   UNL     1       1.264   8.939  20.274  0.00  0.00    +0.000 A 
ATOM      5  C   UNL     1       1.621   9.023  18.919  0.00  0.00    +0.000 A 
ATOM      6  F   UNL     1       1.425  10.163  18.233  0.00  0.00    +0.000 F 
ATOM      7  C   UNL     1       2.150   7.938  18.204  0.00  0.00    +0.000 A 
ENDROOT
BRANCH   1  10
ATOM      8  C   UNL     1       4.482   4.135  17.239  0.00  0.00    +0.000 C 
ATOM      9  C   UNL     1       4.300   5.557  17.730  0.00  0.00    +0.000 C 
ATOM     10  N   UNL     1       2.922   5.607  18.121  0.00  0.00    +0.000 N 
ATOM     11  C   UNL     1       2.265   4.477  17.663  0.00  0.00    +0.000 C 
ATOM     12  O   UNL     1       1.077   4.200  17.719  0.00  0.00    +0.000 OA
ATOM     13  O   UNL     1       3.153   3.634  17.059  0.00  0.00    +0.000 OA
BRANCH   8  14
ATOM     14  C   UNL     1       5.236   4.059  15.906  0.00  0.00    +0.000 C 
BRANCH  14  16
ATOM     15  C   UNL     1       7.243   5.022  14.770  0.00  0.00    +0.000 C 
ATOM     16  N   UNL     1       6.626   4.546  16.003  0.00  0.00    +0.000 N 
BRANCH  16  17
ATOM     17  C   UNL     1       7.401   4.447  17.153  0.00  0.00    +0.000 C 
ATOM     18  S   UNL     1       7.670   5.635  18.295  0.00  0.00    +0.000 S 
ENDBRANCH  16  17
ENDBRANCH  14  16
ENDBRANCH   8  14
ENDBRANCH   1  10
BRANCH   4  19
ATOM     19  N   UNL     1       0.781   9.999  21.018  0.00  0.00    +0.000 N 
ATOM     20  C   UNL     1       0.243  11.228  20.409  0.00  0.00    +0.000 C 
ATOM     21  C   UNL     1      -1.237  11.423  20.788  0.00  0.00    +0.000 C 
ATOM     22  N   UNL     1      -1.421  11.368  22.252  0.00  0.00    +0.000 N 
ATOM     23  C   UNL     1      -0.869  10.157  22.892  0.00  0.00    +0.000 C 
ATOM     24  C   UNL     1       0.608   9.918  22.482  0.00  0.00    +0.000 C 
BRANCH  22  25
ATOM     25  C   UNL     1      -1.817  12.456  23.002  0.00  0.00    +0.000 A 
ATOM     26  C   UNL     1      -3.092  12.502  23.589  0.00  0.00    +0.000 A 
ATOM     27  C   UNL     1      -3.535  13.613  24.317  0.00  0.00    +0.000 A 
ATOM     28  C   UNL     1      -2.702  14.713  24.482  0.00  0.00    +0.000 A 
ATOM     29  C   UNL     1      -1.430  14.694  23.923  0.00  0.00    +0.000 A 
ATOM     30  C   UNL     1      -0.999  13.580  23.191  0.00  0.00    +0.000 A 
ENDBRANCH  22  25
ENDBRANCH   4  19
TORSDOF 6
ENDMDL
MODEL 2
REMARK VINA RESULT:      -7.9      3.010      4.060
REMARK  Name = 
REMARK  7 active torsions:
REMARK  status: ('A' for Active; 'I' for Inactive)
REMARK    1  A    between atoms: C_1  and  N_2
REMARK    2  A    between atoms: N_2  and  C_3
REMARK    3  A    between atoms: N_2  and  C_5
REMARK    4  A    between atoms: C_5  and  C_6
REMARK    5  A    between atoms: N_8  and  C_9
REMARK    6  A    between atoms: C_12  and  N_13
REMARK    7  A    between atoms: N_16  and  C_17
REMARK                            x       y       z     vdW  Elec       q    Type
REMARK                         _______ _______ _______ _____ _____    ______ ____
ROOT
ATOM      1  C   UNL     1       2.439   7.117  18.667  0.00  0.00    +0.000 A 
ATOM      2  C   UNL     1       2.288   8.145  17.734  0.00  0.00    +0.000 A 
ATOM      3  C   UNL     1       1.696   9.369  18.079  0.00  0.00    +0.000 A 
ATOM      4  C   UNL     1       1.227   9.635  19.369  0.00  0.00    +0.000 A 
ATOM      5  C   UNL     1       1.406   8.599  20.301  0.00  0.00    +0.000 A 
ATOM      6  F   UNL     1       1.047   8.772  21.586  0.00  0.00    +0.000 F 
ATOM      7  C   UNL     1       1.994   7.370  19.968  0.00  0.00    +0.000 A 
ENDROOT
BRANCH   1  10
ATOM      8  C   UNL     1       3.271   3.775  17.333  0.00  0.00    +0.000 C 
ATOM      9  C   UNL     1       2.224   4.783  17.764  0.00  0.00    +0.000 C 
ATOM     10  N   UNL     1       2.995   5.862  18.307  0.00  0.00    +0.000 N 
ATOM     11  C   UNL     1       4.311   5.460  18.468  0.00  0.00    +0.000 C 
ATOM     12  O   UNL     1       5.243   6.061  18.980  0.00  0.00    +0.000 OA
ATOM     13  O   UNL     1       4.476   4.196  17.981  0.00  0.00    +0.000 OA
BRANCH   8  14
ATOM     14  C   UNL     1       2.934   2.345  17.771  0.00  0.00    +0.000 C 
BRANCH  14  16
ATOM     15  C   UNL     1       0.700   2.170  18.877  0.00  0.00    +0.000 C 
ATOM     16  N   UNL     1       2.146   2.296  19.018  0.00  0.00    +0.000 N 
BRANCH  16  17
ATOM     17  C   UNL     1       2.687   2.499  20.282  0.00  0.00    +0.000 C 
ATOM     18  S   UNL     1       1.906   3.096  21.632  0.00  0.00    +0.000 S 
ENDBRANCH  16  17
ENDBRANCH  14  16
ENDBRANCH   8  14
ENDBRANCH   1  10
BRANCH   4  19
ATOM     19  N   UNL     1       0.614  10.840  19.654  0.00  0.00    +0.000 N 
ATOM     20  C   UNL     1       1.248  11.891  20.469  0.00  0.00    +0.000 C 
ATOM     21  C   UNL     1       1.438  13.179  19.647  0.00  0.00    +0.000 C 
ATOM     22  N   UNL     1       0.167  13.606  19.031  0.00  0.00    +0.000 N 
ATOM     23  C   UNL     1      -0.504  12.564  18.228  0.00  0.00    +0.000 C 
ATOM     24  C   UNL     1      -0.659  11.242  19.024  0.00  0.00    +0.000 C 
BRANCH  22  25
ATOM     25  C   UNL     1      -0.488  14.769  19.384  0.00  0.00    +0.000 A 
ATOM     26  C   UNL     1      -1.376  14.795  20.472  0.00  0.00    +0.000 A 
ATOM     27  C   UNL     1      -2.086  15.949  20.823  0.00  0.00    +0.000 A 
ATOM     28  C   UNL     1      -1.918  17.118  20.091  0.00  0.00    +0.000 A 
ATOM     29  C   UNL     1      -1.038  17.128  19.015  0.00  0.00    +0.000 A 
ATOM     30  C   UNL     1      -0.337  15.966  18.669  0.00  0.00    +0.000 A 
ENDBRANCH  22  25
ENDBRANCH   4  19
TORSDOF 6
ENDMDL
MODEL 3
REMARK VINA RESULT:      -7.9      2.756      3.635
REMARK  Name = 
REMARK  7 active torsions:
REMARK  status: ('A' for Active; 'I' for Inactive)
REMARK    1  A    between atoms: C_1  and  N_2
REMARK    2  A    between atoms: N_2  and  C_3
REMARK    3  A    between atoms: N_2  and  C_5
REMARK    4  A    between atoms: C_5  and  C_6
REMARK    5  A    between atoms: N_8  and  C_9
REMARK    6  A    between atoms: C_12  and  N_13
REMARK    7  A    between atoms: N_16  and  C_17
REMARK                            x       y       z     vdW  Elec       q    Type
REMARK                         _______ _______ _______ _____ _____    ______ ____
ROOT
ATOM      1  C   UNL     1       2.400   7.059  18.589  0.00  0.00    +0.000 A 
ATOM      2  C   UNL     1       2.172   8.159  17.758  0.00  0.00    +0.000 A 
ATOM      3  C   UNL     1       1.631   9.355  18.256  0.00  0.00    +0.000 A 
ATOM      4  C   UNL     1       1.293   9.518  19.603  0.00  0.00    +0.000 A 
ATOM      5  C   UNL     1       1.549   8.411  20.428  0.00  0.00    +0.000 A 
ATOM      6  F   UNL     1       1.318   8.481  21.750  0.00  0.00    +0.000 F 
ATOM      7  C   UNL     1       2.086   7.209  19.942  0.00  0.00    +0.000 A 
ENDROOT
BRANCH   1  10
ATOM      8  C   UNL     1       2.998   3.709  17.151  0.00  0.00    +0.000 C 
ATOM      9  C   UNL     1       2.106   4.650  17.936  0.00  0.00    +0.000 C 
ATOM     10  N   UNL     1       2.903   5.834  18.078  0.00  0.00    +0.000 N 
ATOM     11  C   UNL     1       4.208   5.566  17.700  0.00  0.00    +0.000 C 
ATOM     12  O   UNL     1       5.193   6.285  17.764  0.00  0.00    +0.000 OA
ATOM     13  O   UNL     1       4.306   4.286  17.234  0.00  0.00    +0.000 OA
BRANCH   8  14
ATOM     14  C   UNL     1       3.031   2.294  17.739  0.00  0.00    +0.000 C 
BRANCH  14  16
ATOM     15  C   UNL     1       4.329   2.279  19.875  0.00  0.00    +0.000 C 
ATOM     16  N   UNL     1       3.028   2.285  19.215  0.00  0.00    +0.000 N 
BRANCH  16  17
ATOM     17  C   UNL     1       1.879   2.144  19.985  0.00  0.00    +0.000 C 
ATOM     18  S   UNL     1       1.551   2.870  21.452  0.00  0.00    +0.000 S 
ENDBRANCH  16  17
ENDBRANCH  14  16
ENDBRANCH   8  14
ENDBRANCH   1  10
BRANCH   4  19
ATOM     19  N   UNL     1       0.726  10.699  20.040  0.00  0.00    +0.000 N 
ATOM     20  C   UNL     1       1.324  12.022  19.783  0.00  0.00    +0.000 C 
ATOM     21  C   UNL     1       0.376  12.895  18.941  0.00  0.00    +0.000 C 
ATOM     22  N   UNL     1      -0.962  12.971  19.559  0.00  0.00    +0.000 N 
ATOM     23  C   UNL     1      -1.576  11.660  19.850  0.00  0.00    +0.000 C 
ATOM     24  C   UNL     1      -0.615  10.747  20.656  0.00  0.00    +0.000 C 
BRANCH  22  25
ATOM     25  C   UNL     1      -1.488  14.138  20.076  0.00  0.00    +0.000 A 
ATOM     26  C   UNL     1      -0.831  15.366  19.899  0.00  0.00    +0.000 A 
ATOM     27  C   UNL     1      -1.320  16.556  20.451  0.00  0.00    +0.000 A 
ATOM     28  C   UNL     1      -2.493  16.546  21.196  0.00  0.00    +0.000 A 
ATOM     29  C   UNL     1      -3.173  15.348  21.380  0.00  0.00    +0.000 A 
ATOM     30  C   UNL     1      -2.672  14.162  20.828  0.00  0.00    +0.000 A 
ENDBRANCH  22  25
ENDBRANCH   4  19
TORSDOF 6
ENDMDL
MODEL 4
REMARK VINA RESULT:      -7.8      2.688      3.257
REMARK  Name = 
REMARK  7 active torsions:
REMARK  status: ('A' for Active; 'I' for Inactive)
REMARK    1  A    between atoms: C_1  and  N_2
REMARK    2  A    between atoms: N_2  and  C_3
REMARK    3  A    between atoms: N_2  and  C_5
REMARK    4  A    between atoms: C_5  and  C_6
REMARK    5  A    between atoms: N_8  and  C_9
REMARK    6  A    between atoms: C_12  and  N_13
REMARK    7  A    between atoms: N_16  and  C_17
REMARK                            x       y       z     vdW  Elec       q    Type
REMARK                         _______ _______ _______ _____ _____    ______ ____
ROOT
ATOM      1  C   UNL     1       2.379   7.285  18.944  0.00  0.00    +0.000 A 
ATOM      2  C   UNL     1       2.249   8.283  17.975  0.00  0.00    +0.000 A 
ATOM      3  C   UNL     1       1.651   9.518  18.269  0.00  0.00    +0.000 A 
ATOM      4  C   UNL     1       1.156   9.824  19.540  0.00  0.00    +0.000 A 
ATOM      5  C   UNL     1       1.314   8.819  20.508  0.00  0.00    +0.000 A 
ATOM      6  F   UNL     1       0.929   9.032  21.778  0.00  0.00    +0.000 F 
ATOM      7  C   UNL     1       1.907   7.579  20.226  0.00  0.00    +0.000 A 
ENDROOT
BRANCH   1  10
ATOM      8  C   UNL     1       4.464   4.371  18.045  0.00  0.00    +0.000 C 
ATOM      9  C   UNL     1       4.171   5.853  17.919  0.00  0.00    +0.000 C 
ATOM     10  N   UNL     1       2.941   6.018  18.636  0.00  0.00    +0.000 N 
ATOM     11  C   UNL     1       2.391   4.777  18.913  0.00  0.00    +0.000 C 
ATOM     12  O   UNL     1       1.316   4.507  19.424  0.00  0.00    +0.000 OA
ATOM     13  O   UNL     1       3.233   3.789  18.491  0.00  0.00    +0.000 OA
BRANCH   8  14
ATOM     14  C   UNL     1       4.873   3.731  16.713  0.00  0.00    +0.000 C 
BRANCH  14  16
ATOM     15  C   UNL     1       7.228   4.488  17.066  0.00  0.00    +0.000 C 
ATOM     16  N   UNL     1       6.107   4.313  16.150  0.00  0.00    +0.000 N 
BRANCH  16  17
ATOM     17  C   UNL     1       6.203   4.819  14.859  0.00  0.00    +0.000 C 
ATOM     18  S   UNL     1       6.235   3.948  13.433  0.00  0.00    +0.000 S 
ENDBRANCH  16  17
ENDBRANCH  14  16
ENDBRANCH   8  14
ENDBRANCH   1  10
BRANCH   4  19
ATOM     19  N   UNL     1       0.539  11.038  19.773  0.00  0.00    +0.000 N 
ATOM     20  C   UNL     1       1.175  12.131  20.529  0.00  0.00    +0.000 C 
ATOM     21  C   UNL     1       1.347  13.379  19.643  0.00  0.00    +0.000 C 
ATOM     22  N   UNL     1       0.066  13.768  19.022  0.00  0.00    +0.000 N 
ATOM     23  C   UNL     1      -0.607  12.685  18.278  0.00  0.00    +0.000 C 
ATOM     24  C   UNL     1      -0.745  11.402  19.140  0.00  0.00    +0.000 C 
BRANCH  22  25
ATOM     25  C   UNL     1      -0.593  14.943  19.327  0.00  0.00    +0.000 A 
ATOM     26  C   UNL     1      -1.523  14.998  20.377  0.00  0.00    +0.000 A 
ATOM     27  C   UNL     1      -2.236  16.164  20.678  0.00  0.00    +0.000 A 
ATOM     28  C   UNL     1      -2.029  17.317  19.930  0.00  0.00    +0.000 A 
ATOM     29  C   UNL     1      -1.108  17.298  18.890  0.00  0.00    +0.000 A 
ATOM     30  C   UNL     1      -0.404  16.124  18.595  0.00  0.00    +0.000 A 
ENDBRANCH  22  25
ENDBRANCH   4  19
TORSDOF 6
ENDMDL
MODEL 5
REMARK VINA RESULT:      -7.8      2.478      3.453
REMARK  Name = 
REMARK  7 active torsions:
REMARK  status: ('A' for Active; 'I' for Inactive)
REMARK    1  A    between atoms: C_1  and  N_2
REMARK    2  A    between atoms: N_2  and  C_3
REMARK    3  A    between atoms: N_2  and  C_5
REMARK    4  A    between atoms: C_5  and  C_6
REMARK    5  A    between atoms: N_8  and  C_9
REMARK    6  A    between atoms: C_12  and  N_13
REMARK    7  A    between atoms: N_16  and  C_17
REMARK                            x       y       z     vdW  Elec       q    Type
REMARK                         _______ _______ _______ _____ _____    ______ ____
ROOT
ATOM      1  C   UNL     1       2.476   7.069  18.461  0.00  0.00    +0.000 A 
ATOM      2  C   UNL     1       2.208   8.111  17.571  0.00  0.00    +0.000 A 
ATOM      3  C   UNL     1       1.617   9.309  18.000  0.00  0.00    +0.000 A 
ATOM      4  C   UNL     1       1.267   9.533  19.335  0.00  0.00    +0.000 A 
ATOM      5  C   UNL     1       1.562   8.484  20.221  0.00  0.00    +0.000 A 
ATOM      6  F   UNL     1       1.323   8.618  21.537  0.00  0.00    +0.000 F 
ATOM      7  C   UNL     1       2.150   7.280  19.804  0.00  0.00    +0.000 A 
ENDROOT
BRANCH   1  10
ATOM      8  C   UNL     1       3.218   3.687  17.175  0.00  0.00    +0.000 C 
ATOM      9  C   UNL     1       2.267   4.633  17.879  0.00  0.00    +0.000 C 
ATOM     10  N   UNL     1       3.030   5.838  18.021  0.00  0.00    +0.000 N 
ATOM     11  C   UNL     1       4.359   5.588  17.720  0.00  0.00    +0.000 C 
ATOM     12  O   UNL     1       5.324   6.331  17.809  0.00  0.00    +0.000 OA
ATOM     13  O   UNL     1       4.508   4.296  17.304  0.00  0.00    +0.000 OA
BRANCH   8  14
ATOM     14  C   UNL     1       3.250   2.293  17.813  0.00  0.00    +0.000 C 
BRANCH  14  16
ATOM     15  C   UNL     1       4.357   2.324  20.054  0.00  0.00    +0.000 C 
ATOM     16  N   UNL     1       3.119   2.331  19.283  0.00  0.00    +0.000 N 
BRANCH  16  17
ATOM     17  C   UNL     1       1.905   2.235  19.953  0.00  0.00    +0.000 C 
ATOM     18  S   UNL     1       1.560   2.760  21.500  0.00  0.00    +0.000 S 
ENDBRANCH  16  17
ENDBRANCH  14  16
ENDBRANCH   8  14
ENDBRANCH   1  10
BRANCH   4  19
ATOM     19  N   UNL     1       0.650  10.713  19.705  0.00  0.00    +0.000 N 
ATOM     20  C   UNL     1      -0.617  10.756  20.456  0.00  0.00    +0.000 C 
ATOM     21  C   UNL     1      -0.422  11.450  21.817  0.00  0.00    +0.000 C 
ATOM     22  N   UNL     1       0.202  12.778  21.649  0.00  0.00    +0.000 N 
ATOM     23  C   UNL     1       1.461  12.768  20.878  0.00  0.00    +0.000 C 
ATOM     24  C   UNL     1       1.296  12.028  19.525  0.00  0.00    +0.000 C 
BRANCH  22  25
ATOM     25  C   UNL     1      -0.453  13.959  21.936  0.00  0.00    +0.000 A 
ATOM     26  C   UNL     1       0.262  15.155  22.114  0.00  0.00    +0.000 A 
ATOM     27  C   UNL     1      -0.374  16.356  22.450  0.00  0.00    +0.000 A 
ATOM     28  C   UNL     1      -1.753  16.391  22.610  0.00  0.00    +0.000 A 
ATOM     29  C   UNL     1      -2.490  15.227  22.429  0.00  0.00    +0.000 A 
ATOM     30  C   UNL     1      -1.844  14.029  22.100  0.00  0.00    +0.000 A 
ENDBRANCH  22  25
ENDBRANCH   4  19
TORSDOF 6
ENDMDL
MODEL 6
REMARK VINA RESULT:      -7.8      2.573      3.385
REMARK  Name = 
REMARK  7 active torsions:
REMARK  status: ('A' for Active; 'I' for Inactive)
REMARK    1  A    between atoms: C_1  and  N_2
REMARK    2  A    between atoms: N_2  and  C_3
REMARK    3  A    between atoms: N_2  and  C_5
REMARK    4  A    between atoms: C_5  and  C_6
REMARK    5  A    between atoms: N_8  and  C_9
REMARK    6  A    between atoms: C_12  and  N_13
REMARK    7  A    between atoms: N_16  and  C_17
REMARK                            x       y       z     vdW  Elec       q    Type
REMARK                         _______ _______ _______ _____ _____    ______ ____
ROOT
ATOM      1  C   UNL     1       2.642   7.037  18.463  0.00  0.00    +0.000 A 
ATOM      2  C   UNL     1       2.593   8.127  17.592  0.00  0.00    +0.000 A 
ATOM      3  C   UNL     1       1.976   9.333  17.959  0.00  0.00    +0.000 A 
ATOM      4  C   UNL     1       1.382   9.517  19.211  0.00  0.00    +0.000 A 
ATOM      5  C   UNL     1       1.459   8.419  20.083  0.00  0.00    +0.000 A 
ATOM      6  F   UNL     1       0.974   8.509  21.334  0.00  0.00    +0.000 F 
ATOM      7  C   UNL     1       2.070   7.207  19.727  0.00  0.00    +0.000 A 
ENDROOT
BRANCH   1  10
ATOM      8  C   UNL     1       3.478   3.661  17.217  0.00  0.00    +0.000 C 
ATOM      9  C   UNL     1       2.461   4.619  17.804  0.00  0.00    +0.000 C 
ATOM     10  N   UNL     1       3.224   5.801  18.076  0.00  0.00    +0.000 N 
ATOM     11  C   UNL     1       4.576   5.522  17.957  0.00  0.00    +0.000 C 
ATOM     12  O   UNL     1       5.535   6.239  18.194  0.00  0.00    +0.000 OA
ATOM     13  O   UNL     1       4.751   4.235  17.536  0.00  0.00    +0.000 OA
BRANCH   8  14
ATOM     14  C   UNL     1       3.390   2.256  17.823  0.00  0.00    +0.000 C 
BRANCH  14  16
ATOM     15  C   UNL     1       4.410   2.237  20.104  0.00  0.00    +0.000 C 
ATOM     16  N   UNL     1       3.203   2.271  19.286  0.00  0.00    +0.000 N 
BRANCH  16  17
ATOM     17  C   UNL     1       1.962   2.179  19.907  0.00  0.00    +0.000 C 
ATOM     18  S   UNL     1       1.478   2.938  21.314  0.00  0.00    +0.000 S 
ENDBRANCH  16  17
ENDBRANCH  14  16
ENDBRANCH   8  14
ENDBRANCH   1  10
BRANCH   4  19
ATOM     19  N   UNL     1       0.751  10.708  19.514  0.00  0.00    +0.000 N 
ATOM     20  C   UNL     1      -0.322  11.283  18.684  0.00  0.00    +0.000 C 
ATOM     21  C   UNL     1      -1.633  11.393  19.485  0.00  0.00    +0.000 C 
ATOM     22  N   UNL     1      -1.419  12.124  20.750  0.00  0.00    +0.000 N 
ATOM     23  C   UNL     1      -0.333  11.584  21.591  0.00  0.00    +0.000 C 
ATOM     24  C   UNL     1       0.983  11.419  20.787  0.00  0.00    +0.000 C 
BRANCH  22  25
ATOM     25  C   UNL     1      -1.982  13.358  21.011  0.00  0.00    +0.000 A 
ATOM     26  C   UNL     1      -1.181  14.455  21.365  0.00  0.00    +0.000 A 
ATOM     27  C   UNL     1      -1.730  15.704  21.678  0.00  0.00    +0.000 A 
ATOM     28  C   UNL     1      -3.106  15.888  21.638  0.00  0.00    +0.000 A 
ATOM     29  C   UNL     1      -3.926  14.824  21.282  0.00  0.00    +0.000 A 
ATOM     30  C   UNL     1      -3.366  13.577  20.976  0.00  0.00    +0.000 A 
ENDBRANCH  22  25
ENDBRANCH   4  19
TORSDOF 6
ENDMDL
MODEL 7
REMARK VINA RESULT:      -7.7      2.769      3.304
REMARK  Name = 
REMARK  7 active torsions:
REMARK  status: ('A' for Active; 'I' for Inactive)
REMARK    1  A    between atoms: C_1  and  N_2
REMARK    2  A    between atoms: N_2  and  C_3
REMARK    3  A    between atoms: N_2  and  C_5
REMARK    4  A    between atoms: C_5  and  C_6
REMARK    5  A    between atoms: N_8  and  C_9
REMARK    6  A    between atoms: C_12  and  N_13
REMARK    7  A    between atoms: N_16  and  C_17
REMARK                            x       y       z     vdW  Elec       q    Type
REMARK                         _______ _______ _______ _____ _____    ______ ____
ROOT
ATOM      1  C   UNL     1       2.167   7.383  19.569  0.00  0.00    +0.000 A 
ATOM      2  C   UNL     1       1.497   7.796  20.723  0.00  0.00    +0.000 A 
ATOM      3  C   UNL     1       0.885   9.056  20.806  0.00  0.00    +0.000 A 
ATOM      4  C   UNL     1       0.905   9.967  19.745  0.00  0.00    +0.000 A 
ATOM      5  C   UNL     1       1.564   9.528  18.585  0.00  0.00    +0.000 A 
ATOM      6  F   UNL     1       1.590  10.300  17.484  0.00  0.00    +0.000 F 
ATOM      7  C   UNL     1       2.182   8.272  18.491  0.00  0.00    +0.000 A 
ENDROOT
BRANCH   1  10
ATOM      8  C   UNL     1       4.447   4.510  19.130  0.00  0.00    +0.000 C 
ATOM      9  C   UNL     1       3.987   5.887  18.695  0.00  0.00    +0.000 C 
ATOM     10  N   UNL     1       2.826   6.128  19.501  0.00  0.00    +0.000 N 
ATOM     11  C   UNL     1       2.442   4.954  20.129  0.00  0.00    +0.000 C 
ATOM     12  O   UNL     1       1.460   4.735  20.821  0.00  0.00    +0.000 OA
ATOM     13  O   UNL     1       3.337   3.961  19.851  0.00  0.00    +0.000 OA
BRANCH   8  14
ATOM     14  C   UNL     1       4.784   3.595  17.947  0.00  0.00    +0.000 C 
BRANCH  14  16
ATOM     15  C   UNL     1       7.076   4.515  17.571  0.00  0.00    +0.000 C 
ATOM     16  N   UNL     1       5.766   4.191  17.020  0.00  0.00    +0.000 N 
BRANCH  16  17
ATOM     17  C   UNL     1       5.465   4.577  15.719  0.00  0.00    +0.000 C 
ATOM     18  S   UNL     1       6.334   4.230  14.336  0.00  0.00    +0.000 S 
ENDBRANCH  16  17
ENDBRANCH  14  16
ENDBRANCH   8  14
ENDBRANCH   1  10
BRANCH   4  19
ATOM     19  N   UNL     1       0.325  11.213  19.885  0.00  0.00    +0.000 N 
ATOM     20  C   UNL     1       0.872  12.260  20.766  0.00  0.00    +0.000 C 
ATOM     21  C   UNL     1       1.273  13.503  19.951  0.00  0.00    +0.000 C 
ATOM     22  N   UNL     1       0.151  13.973  19.115  0.00  0.00    +0.000 N 
ATOM     23  C   UNL     1      -0.434  12.937  18.240  0.00  0.00    +0.000 C 
ATOM     24  C   UNL     1      -0.799  11.657  19.036  0.00  0.00    +0.000 C 
BRANCH  22  25
ATOM     25  C   UNL     1      -0.486  15.181  19.317  0.00  0.00    +0.000 A 
ATOM     26  C   UNL     1      -1.305  15.386  20.439  0.00  0.00    +0.000 A 
ATOM     27  C   UNL     1      -1.996  16.586  20.644  0.00  0.00    +0.000 A 
ATOM     28  C   UNL     1      -1.877  17.622  19.725  0.00  0.00    +0.000 A 
ATOM     29  C   UNL     1      -1.066  17.454  18.610  0.00  0.00    +0.000 A 
ATOM     30  C   UNL     1      -0.384  16.247  18.412  0.00  0.00    +0.000 A 
ENDBRANCH  22  25
ENDBRANCH   4  19
TORSDOF 6
ENDMDL
MODEL 8
REMARK VINA RESULT:      -7.7      2.269      2.856
REMARK  Name = 
REMARK  7 active torsions:
REMARK  status: ('A' for Active; 'I' for Inactive)
REMARK    1  A    between atoms: C_1  and  N_2
REMARK    2  A    between atoms: N_2  and  C_3
REMARK    3  A    between atoms: N_2  and  C_5
REMARK    4  A    between atoms: C_5  and  C_6
REMARK    5  A    between atoms: N_8  and  C_9
REMARK    6  A    between atoms: C_12  and  N_13
REMARK    7  A    between atoms: N_16  and  C_17
REMARK                            x       y       z     vdW  Elec       q    Type
REMARK                         _______ _______ _______ _____ _____    ______ ____
ROOT
ATOM      1  C   UNL     1       2.425   7.517  18.844  0.00  0.00    +0.000 A 
ATOM      2  C   UNL     1       2.266   8.383  17.760  0.00  0.00    +0.000 A 
ATOM      3  C   UNL     1       1.564   9.593  17.883  0.00  0.00    +0.000 A 
ATOM      4  C   UNL     1       0.989  10.003  19.090  0.00  0.00    +0.000 A 
ATOM      5  C   UNL     1       1.176   9.131  20.175  0.00  0.00    +0.000 A 
ATOM      6  F   UNL     1       0.717   9.457  21.396  0.00  0.00    +0.000 F 
ATOM      7  C   UNL     1       1.872   7.918  20.064  0.00  0.00    +0.000 A 
ENDROOT
BRANCH   1  10
ATOM      8  C   UNL     1       4.758   4.694  18.361  0.00  0.00    +0.000 C 
ATOM      9  C   UNL     1       4.354   6.120  18.044  0.00  0.00    +0.000 C 
ATOM     10  N   UNL     1       3.093   6.272  18.709  0.00  0.00    +0.000 N 
ATOM     11  C   UNL     1       2.634   5.034  19.128  0.00  0.00    +0.000 C 
ATOM     12  O   UNL     1       1.568   4.742  19.648  0.00  0.00    +0.000 OA
ATOM     13  O   UNL     1       3.564   4.073  18.851  0.00  0.00    +0.000 OA
BRANCH   8  14
ATOM     14  C   UNL     1       5.256   3.930  17.128  0.00  0.00    +0.000 C 
BRANCH  14  16
ATOM     15  C   UNL     1       7.590   4.595  17.724  0.00  0.00    +0.000 C 
ATOM     16  N   UNL     1       6.594   4.366  16.684  0.00  0.00    +0.000 N 
BRANCH  16  17
ATOM     17  C   UNL     1       6.902   4.695  15.368  0.00  0.00    +0.000 C 
ATOM     18  S   UNL     1       6.216   4.063  13.983  0.00  0.00    +0.000 S 
ENDBRANCH  16  17
ENDBRANCH  14  16
ENDBRANCH   8  14
ENDBRANCH   1  10
BRANCH   4  19
ATOM     19  N   UNL     1       0.273  11.182  19.155  0.00  0.00    +0.000 N 
ATOM     20  C   UNL     1      -1.200  11.228  19.160  0.00  0.00    +0.000 C 
ATOM     21  C   UNL     1      -1.722  11.859  20.464  0.00  0.00    +0.000 C 
ATOM     22  N   UNL     1      -1.097  13.174  20.703  0.00  0.00    +0.000 N 
ATOM     23  C   UNL     1       0.380  13.162  20.680  0.00  0.00    +0.000 C 
ATOM     24  C   UNL     1       0.924  12.486  19.394  0.00  0.00    +0.000 C 
BRANCH  22  25
ATOM     25  C   UNL     1      -1.804  14.360  20.678  0.00  0.00    +0.000 A 
ATOM     26  C   UNL     1      -1.223  15.535  20.174  0.00  0.00    +0.000 A 
ATOM     27  C   UNL     1      -1.902  16.759  20.178  0.00  0.00    +0.000 A 
ATOM     28  C   UNL     1      -3.193  16.835  20.685  0.00  0.00    +0.000 A 
ATOM     29  C   UNL     1      -3.800  15.688  21.182  0.00  0.00    +0.000 A 
ATOM     30  C   UNL     1      -3.109  14.470  21.179  0.00  0.00    +0.000 A 
ENDBRANCH  22  25
ENDBRANCH   4  19
TORSDOF 6
ENDMDL
MODEL 9
REMARK VINA RESULT:      -7.6      2.538      3.795
REMARK  Name = 
REMARK  7 active torsions:
REMARK  status: ('A' for Active; 'I' for Inactive)
REMARK    1  A    between atoms: C_1  and  N_2
REMARK    2  A    between atoms: N_2  and  C_3
REMARK    3  A    between atoms: N_2  and  C_5
REMARK    4  A    between atoms: C_5  and  C_6
REMARK    5  A    between atoms: N_8  and  C_9
REMARK    6  A    between atoms: C_12  and  N_13
REMARK    7  A    between atoms: N_16  and  C_17
REMARK                            x       y       z     vdW  Elec       q    Type
REMARK                         _______ _______ _______ _____ _____    ______ ____
ROOT
ATOM      1  C   UNL     1       1.143   9.069  20.345  0.00  0.00    +0.000 A 
ATOM      2  C   UNL     1       0.683  10.255  19.768  0.00  0.00    +0.000 A 
ATOM      3  C   UNL     1      -0.011  11.215  20.520  0.00  0.00    +0.000 A 
ATOM      4  C   UNL     1      -0.280  11.047  21.882  0.00  0.00    +0.000 A 
ATOM      5  C   UNL     1       0.208   9.859  22.451  0.00  0.00    +0.000 A 
ATOM      6  F   UNL     1       0.059   9.625  23.766  0.00  0.00    +0.000 F 
ATOM      7  C   UNL     1       0.901   8.890  21.710  0.00  0.00    +0.000 A 
ENDROOT
BRANCH   1  10
ATOM      8  C   UNL     1       2.623   6.025  18.865  0.00  0.00    +0.000 C 
ATOM      9  C   UNL     1       2.175   6.792  20.093  0.00  0.00    +0.000 C 
ATOM     10  N   UNL     1       1.804   8.076  19.576  0.00  0.00    +0.000 N 
ATOM     11  C   UNL     1       2.238   8.194  18.265  0.00  0.00    +0.000 C 
ATOM     12  O   UNL     1       2.191   9.162  17.522  0.00  0.00    +0.000 OA
ATOM     13  O   UNL     1       2.806   7.023  17.854  0.00  0.00    +0.000 OA
BRANCH   8  14
ATOM     14  C   UNL     1       3.942   5.275  19.081  0.00  0.00    +0.000 C 
BRANCH  14  16
ATOM     15  C   UNL     1       4.417   3.891  17.055  0.00  0.00    +0.000 C 
ATOM     16  N   UNL     1       3.961   3.946  18.440  0.00  0.00    +0.000 N 
BRANCH  16  17
ATOM     17  C   UNL     1       3.446   2.797  19.028  0.00  0.00    +0.000 C 
ATOM     18  S   UNL     1       1.868   2.254  18.974  0.00  0.00    +0.000 S 
ENDBRANCH  16  17
ENDBRANCH  14  16
ENDBRANCH   8  14
ENDBRANCH   1  10
BRANCH   4  19
ATOM     19  N   UNL     1      -1.002  12.001  22.572  0.00  0.00    +0.000 N 
ATOM     20  C   UNL     1      -0.616  13.422  22.621  0.00  0.00    +0.000 C 
ATOM     21  C   UNL     1      -1.710  14.307  21.995  0.00  0.00    +0.000 C 
ATOM     22  N   UNL     1      -3.024  14.038  22.611  0.00  0.00    +0.000 N 
ATOM     23  C   UNL     1      -3.426  12.618  22.598  0.00  0.00    +0.000 C 
ATOM     24  C   UNL     1      -2.315  11.705  23.180  0.00  0.00    +0.000 C 
BRANCH  22  25
ATOM     25  C   UNL     1      -3.701  14.967  23.377  0.00  0.00    +0.000 A 
ATOM     26  C   UNL     1      -5.101  15.066  23.320  0.00  0.00    +0.000 A 
ATOM     27  C   UNL     1      -5.806  16.028  24.052  0.00  0.00    +0.000 A 
ATOM     28  C   UNL     1      -5.122  16.919  24.870  0.00  0.00    +0.000 A 
ATOM     29  C   UNL     1      -3.738  16.840  24.956  0.00  0.00    +0.000 A 
ATOM     30  C   UNL     1      -3.041  15.877  24.215  0.00  0.00    +0.000 A 
ENDBRANCH  22  25
ENDBRANCH   4  19
TORSDOF 6
ENDMDL
