MODEL 1
REMARK VINA RESULT:      -6.7      0.000      0.000
REMARK  Name = 
REMARK  7 active torsions:
REMARK  status: ('A' for Active; 'I' for Inactive)
REMARK    1  A    between atoms: C_1  and  O_2
REMARK    2  A    between atoms: O_2  and  C_3
REMARK    3  A    between atoms: C_7  and  C_8
REMARK    4  A    between atoms: N_9  and  N_10
REMARK    5  A    between atoms: C_16  and  O_17
REMARK    6  A    between atoms: O_17  and  C_18
REMARK    7  A    between atoms: C_18  and  C_19
REMARK                            x       y       z     vdW  Elec       q    Type
REMARK                         _______ _______ _______ _____ _____    ______ ____
ROOT
ATOM      1  C   UNL     1       3.019   3.814  19.419  0.00  0.00    +0.000 A 
ATOM      2  C   UNL     1       2.129   2.796  19.048  0.00  0.00    +0.000 A 
ATOM      3  C   UNL     1       2.172   2.242  17.769  0.00  0.00    +0.000 A 
ATOM      4  C   UNL     1       3.071   2.738  16.832  0.00  0.00    +0.000 A 
ATOM      5  C   UNL     1       3.902   3.818  17.157  0.00  0.00    +0.000 A 
ATOM      6  C   UNL     1       3.871   4.384  18.452  0.00  0.00    +0.000 A 
ENDROOT
BRANCH   1   8
ATOM      7  C   UNL     1       2.233   3.606  21.658  0.00  0.00    +0.000 C 
ATOM      8  O   UNL     1       3.067   4.278  20.710  0.00  0.00    +0.000 OA
ENDBRANCH   1   8
BRANCH   5   9
ATOM      9  C   UNL     1       4.823   4.346  16.113  0.00  0.00    +0.000 C 
ATOM     10  N   UNL     1       5.842   3.662  15.687  0.00  0.00    +0.000 NA
BRANCH  10  11
ATOM     11  N   UNL     1       6.628   4.296  14.760  0.00  0.00    +0.000 N 
ATOM     12  N   UNL     1       7.489   5.300  15.035  0.00  0.00    +0.000 NA
ATOM     13  N   UNL     1       8.066   5.617  13.886  0.00  0.00    +0.000 NA
ATOM     14  N   UNL     1       7.595   4.842  12.859  0.00  0.00    +0.000 NA
ATOM     15  C   UNL     1       6.705   4.032  13.387  0.00  0.00    +0.000 A 
ATOM     16  N   UNL     1       5.959   3.099  12.745  0.00  0.00    +0.000 N 
ATOM     17  H   UNL     1       5.937   3.158  11.731  0.00  0.00    +0.000 HD
ATOM     18  H   UNL     1       5.085   2.798  13.165  0.00  0.00    +0.000 HD
ENDBRANCH  10  11
ENDBRANCH   5   9
BRANCH   6  19
ATOM     19  O   UNL     1       4.747   5.420  18.674  0.00  0.00    +0.000 OA
BRANCH  19  20
ATOM     20  C   UNL     1       6.021   5.117  19.260  0.00  0.00    +0.000 C 
BRANCH  20  21
ATOM     21  C   UNL     1       7.056   6.004  18.689  0.00  0.00    +0.000 C 
ATOM     22  N   UNL     1       7.854   6.700  18.206  0.00  0.00    +0.000 NA
ENDBRANCH  20  21
ENDBRANCH  19  20
ENDBRANCH   6  19
TORSDOF 6
ENDMDL
MODEL 2
REMARK VINA RESULT:      -6.6      1.147      1.152
REMARK  Name = 
REMARK  7 active torsions:
REMARK  status: ('A' for Active; 'I' for Inactive)
REMARK    1  A    between atoms: C_1  and  O_2
REMARK    2  A    between atoms: O_2  and  C_3
REMARK    3  A    between atoms: C_7  and  C_8
REMARK    4  A    between atoms: N_9  and  N_10
REMARK    5  A    between atoms: C_16  and  O_17
REMARK    6  A    between atoms: O_17  and  C_18
REMARK    7  A    between atoms: C_18  and  C_19
REMARK                            x       y       z     vdW  Elec       q    Type
REMARK                         _______ _______ _______ _____ _____    ______ ____
ROOT
ATOM      1  C   UNL     1       3.672   2.670  19.674  0.00  0.00    +0.000 A 
ATOM      2  C   UNL     1       2.391   2.251  19.284  0.00  0.00    +0.000 A 
ATOM      3  C   UNL     1       1.975   2.366  17.959  0.00  0.00    +0.000 A 
ATOM      4  C   UNL     1       2.817   2.950  17.019  0.00  0.00    +0.000 A 
ATOM      5  C   UNL     1       4.062   3.459  17.410  0.00  0.00    +0.000 A 
ATOM      6  C   UNL     1       4.496   3.343  18.751  0.00  0.00    +0.000 A 
ENDROOT
BRANCH   1   8
ATOM      7  C   UNL     1       5.039   1.351  21.110  0.00  0.00    +0.000 C 
ATOM      8  O   UNL     1       4.135   2.447  20.947  0.00  0.00    +0.000 OA
ENDBRANCH   1   8
BRANCH   5   9
ATOM      9  C   UNL     1       4.918   4.114  16.382  0.00  0.00    +0.000 C 
ATOM     10  N   UNL     1       5.809   3.451  15.709  0.00  0.00    +0.000 NA
BRANCH  10  11
ATOM     11  N   UNL     1       6.555   4.195  14.832  0.00  0.00    +0.000 N 
ATOM     12  N   UNL     1       7.370   5.213  15.183  0.00  0.00    +0.000 NA
ATOM     13  N   UNL     1       7.920   5.649  14.060  0.00  0.00    +0.000 NA
ATOM     14  N   UNL     1       7.476   4.939  12.976  0.00  0.00    +0.000 NA
ATOM     15  C   UNL     1       6.630   4.047  13.441  0.00  0.00    +0.000 A 
ATOM     16  N   UNL     1       5.923   3.135  12.730  0.00  0.00    +0.000 N 
ATOM     17  H   UNL     1       5.888   3.275  11.725  0.00  0.00    +0.000 HD
ATOM     18  H   UNL     1       5.069   2.759  13.129  0.00  0.00    +0.000 HD
ENDBRANCH  10  11
ENDBRANCH   5   9
BRANCH   6  19
ATOM     19  O   UNL     1       5.746   3.850  19.021  0.00  0.00    +0.000 OA
BRANCH  19  20
ATOM     20  C   UNL     1       5.842   5.202  19.492  0.00  0.00    +0.000 C 
BRANCH  20  21
ATOM     21  C   UNL     1       7.082   5.821  18.980  0.00  0.00    +0.000 C 
ATOM     22  N   UNL     1       8.078   6.286  18.598  0.00  0.00    +0.000 NA
ENDBRANCH  20  21
ENDBRANCH  19  20
ENDBRANCH   6  19
TORSDOF 6
ENDMDL
MODEL 3
REMARK VINA RESULT:      -6.5      2.082      3.166
REMARK  Name = 
REMARK  7 active torsions:
REMARK  status: ('A' for Active; 'I' for Inactive)
REMARK    1  A    between atoms: C_1  and  O_2
REMARK    2  A    between atoms: O_2  and  C_3
REMARK    3  A    between atoms: C_7  and  C_8
REMARK    4  A    between atoms: N_9  and  N_10
REMARK    5  A    between atoms: C_16  and  O_17
REMARK    6  A    between atoms: O_17  and  C_18
REMARK    7  A    between atoms: C_18  and  C_19
REMARK                            x       y       z     vdW  Elec       q    Type
REMARK                         _______ _______ _______ _____ _____    ______ ____
ROOT
ATOM      1  C   UNL     1       1.680   4.108  19.853  0.00  0.00    +0.000 A 
ATOM      2  C   UNL     1       1.664   5.325  20.552  0.00  0.00    +0.000 A 
ATOM      3  C   UNL     1       2.358   6.433  20.069  0.00  0.00    +0.000 A 
ATOM      4  C   UNL     1       3.119   6.321  18.911  0.00  0.00    +0.000 A 
ATOM      5  C   UNL     1       3.221   5.089  18.253  0.00  0.00    +0.000 A 
ATOM      6  C   UNL     1       2.517   3.959  18.730  0.00  0.00    +0.000 A 
ENDROOT
BRANCH   1   8
ATOM      7  C   UNL     1       1.230   2.462  21.514  0.00  0.00    +0.000 C 
ATOM      8  O   UNL     1       0.902   3.050  20.253  0.00  0.00    +0.000 OA
ENDBRANCH   1   8
BRANCH   5   9
ATOM      9  C   UNL     1       4.078   5.001  17.037  0.00  0.00    +0.000 C 
ATOM     10  N   UNL     1       5.318   4.619  17.099  0.00  0.00    +0.000 NA
BRANCH  10  11
ATOM     11  N   UNL     1       5.996   4.633  15.908  0.00  0.00    +0.000 N 
ATOM     12  N   UNL     1       5.751   3.804  14.870  0.00  0.00    +0.000 NA
ATOM     13  N   UNL     1       6.596   4.153  13.912  0.00  0.00    +0.000 NA
ATOM     14  N   UNL     1       7.396   5.193  14.304  0.00  0.00    +0.000 NA
ATOM     15  C   UNL     1       7.039   5.490  15.534  0.00  0.00    +0.000 A 
ATOM     16  N   UNL     1       7.572   6.442  16.338  0.00  0.00    +0.000 N 
ATOM     17  H   UNL     1       8.460   6.837  16.043  0.00  0.00    +0.000 HD
ATOM     18  H   UNL     1       7.472   6.346  17.344  0.00  0.00    +0.000 HD
ENDBRANCH  10  11
ENDBRANCH   5   9
BRANCH   6  19
ATOM     19  O   UNL     1       2.665   2.807  17.993  0.00  0.00    +0.000 OA
BRANCH  19  20
ATOM     20  C   UNL     1       3.340   1.696  18.600  0.00  0.00    +0.000 C 
BRANCH  20  21
ATOM     21  C   UNL     1       4.322   2.189  19.588  0.00  0.00    +0.000 C 
ATOM     22  N   UNL     1       5.068   2.590  20.386  0.00  0.00    +0.000 NA
ENDBRANCH  20  21
ENDBRANCH  19  20
ENDBRANCH   6  19
TORSDOF 6
ENDMDL
MODEL 4
REMARK VINA RESULT:      -6.5      1.209      1.719
REMARK  Name = 
REMARK  7 active torsions:
REMARK  status: ('A' for Active; 'I' for Inactive)
REMARK    1  A    between atoms: C_1  and  O_2
REMARK    2  A    between atoms: O_2  and  C_3
REMARK    3  A    between atoms: C_7  and  C_8
REMARK    4  A    between atoms: N_9  and  N_10
REMARK    5  A    between atoms: C_16  and  O_17
REMARK    6  A    between atoms: O_17  and  C_18
REMARK    7  A    between atoms: C_18  and  C_19
REMARK                            x       y       z     vdW  Elec       q    Type
REMARK                         _______ _______ _______ _____ _____    ______ ____
ROOT
ATOM      1  C   UNL     1       2.786   3.172  19.939  0.00  0.00    +0.000 A 
ATOM      2  C   UNL     1       1.502   2.904  19.442  0.00  0.00    +0.000 A 
ATOM      3  C   UNL     1       1.280   2.777  18.072  0.00  0.00    +0.000 A 
ATOM      4  C   UNL     1       2.330   2.969  17.181  0.00  0.00    +0.000 A 
ATOM      5  C   UNL     1       3.597   3.330  17.655  0.00  0.00    +0.000 A 
ATOM      6  C   UNL     1       3.836   3.457  19.043  0.00  0.00    +0.000 A 
ENDROOT
BRANCH   1   8
ATOM      7  C   UNL     1       1.932   2.868  22.141  0.00  0.00    +0.000 C 
ATOM      8  O   UNL     1       3.038   3.176  21.288  0.00  0.00    +0.000 OA
ENDBRANCH   1   8
BRANCH   5   9
ATOM      9  C   UNL     1       4.686   3.567  16.667  0.00  0.00    +0.000 C 
ATOM     10  N   UNL     1       4.792   4.687  16.018  0.00  0.00    +0.000 NA
BRANCH  10  11
ATOM     11  N   UNL     1       5.813   4.743  15.106  0.00  0.00    +0.000 N 
ATOM     12  N   UNL     1       5.828   4.092  13.923  0.00  0.00    +0.000 NA
ATOM     13  N   UNL     1       6.967   4.423  13.333  0.00  0.00    +0.000 NA
ATOM     14  N   UNL     1       7.703   5.277  14.111  0.00  0.00    +0.000 NA
ATOM     15  C   UNL     1       7.004   5.474  15.207  0.00  0.00    +0.000 A 
ATOM     16  N   UNL     1       7.348   6.232  16.277  0.00  0.00    +0.000 N 
ATOM     17  H   UNL     1       8.319   6.523  16.331  0.00  0.00    +0.000 HD
ATOM     18  H   UNL     1       6.921   6.031  17.176  0.00  0.00    +0.000 HD
ENDBRANCH  10  11
ENDBRANCH   5   9
BRANCH   6  19
ATOM     19  O   UNL     1       5.122   3.788  19.402  0.00  0.00    +0.000 OA
BRANCH  19  20
ATOM     20  C   UNL     1       5.461   5.177  19.507  0.00  0.00    +0.000 C 
BRANCH  20  21
ATOM     21  C   UNL     1       6.928   5.338  19.444  0.00  0.00    +0.000 C 
ATOM     22  N   UNL     1       8.080   5.501  19.401  0.00  0.00    +0.000 NA
ENDBRANCH  20  21
ENDBRANCH  19  20
ENDBRANCH   6  19
TORSDOF 6
ENDMDL
MODEL 5
REMARK VINA RESULT:      -6.5      1.827      2.003
REMARK  Name = 
REMARK  7 active torsions:
REMARK  status: ('A' for Active; 'I' for Inactive)
REMARK    1  A    between atoms: C_1  and  O_2
REMARK    2  A    between atoms: O_2  and  C_3
REMARK    3  A    between atoms: C_7  and  C_8
REMARK    4  A    between atoms: N_9  and  N_10
REMARK    5  A    between atoms: C_16  and  O_17
REMARK    6  A    between atoms: O_17  and  C_18
REMARK    7  A    between atoms: C_18  and  C_19
REMARK                            x       y       z     vdW  Elec       q    Type
REMARK                         _______ _______ _______ _____ _____    ______ ____
ROOT
ATOM      1  C   UNL     1       3.235   4.198  19.364  0.00  0.00    +0.000 A 
ATOM      2  C   UNL     1       2.771   2.878  19.270  0.00  0.00    +0.000 A 
ATOM      3  C   UNL     1       3.151   2.062  18.205  0.00  0.00    +0.000 A 
ATOM      4  C   UNL     1       3.958   2.575  17.196  0.00  0.00    +0.000 A 
ATOM      5  C   UNL     1       4.353   3.919  17.227  0.00  0.00    +0.000 A 
ATOM      6  C   UNL     1       3.977   4.754  18.303  0.00  0.00    +0.000 A 
ENDROOT
BRANCH   1   8
ATOM      7  C   UNL     1       1.587   5.129  20.810  0.00  0.00    +0.000 C 
ATOM      8  O   UNL     1       2.967   4.968  20.469  0.00  0.00    +0.000 OA
ENDBRANCH   1   8
BRANCH   5   9
ATOM      9  C   UNL     1       5.184   4.441  16.106  0.00  0.00    +0.000 C 
ATOM     10  N   UNL     1       5.957   3.666  15.406  0.00  0.00    +0.000 NA
BRANCH  10  11
ATOM     11  N   UNL     1       6.698   4.295  14.439  0.00  0.00    +0.000 N 
ATOM     12  N   UNL     1       7.541   5.326  14.663  0.00  0.00    +0.000 NA
ATOM     13  N   UNL     1       8.075   5.627  13.488  0.00  0.00    +0.000 NA
ATOM     14  N   UNL     1       7.592   4.815  12.497  0.00  0.00    +0.000 NA
ATOM     15  C   UNL     1       6.739   3.998  13.071  0.00  0.00    +0.000 A 
ATOM     16  N   UNL     1       5.997   3.031  12.477  0.00  0.00    +0.000 N 
ATOM     17  H   UNL     1       5.942   3.063  11.463  0.00  0.00    +0.000 HD
ATOM     18  H   UNL     1       5.144   2.720  12.931  0.00  0.00    +0.000 HD
ENDBRANCH  10  11
ENDBRANCH   5   9
BRANCH   6  19
ATOM     19  O   UNL     1       4.442   6.047  18.249  0.00  0.00    +0.000 OA
BRANCH  19  20
ATOM     20  C   UNL     1       3.707   7.000  17.468  0.00  0.00    +0.000 C 
BRANCH  20  21
ATOM     21  C   UNL     1       2.750   7.721  18.333  0.00  0.00    +0.000 C 
ATOM     22  N   UNL     1       1.969   8.273  18.995  0.00  0.00    +0.000 NA
ENDBRANCH  20  21
ENDBRANCH  19  20
ENDBRANCH   6  19
TORSDOF 6
ENDMDL
MODEL 6
REMARK VINA RESULT:      -6.3      3.390      4.440
REMARK  Name = 
REMARK  7 active torsions:
REMARK  status: ('A' for Active; 'I' for Inactive)
REMARK    1  A    between atoms: C_1  and  O_2
REMARK    2  A    between atoms: O_2  and  C_3
REMARK    3  A    between atoms: C_7  and  C_8
REMARK    4  A    between atoms: N_9  and  N_10
REMARK    5  A    between atoms: C_16  and  O_17
REMARK    6  A    between atoms: O_17  and  C_18
REMARK    7  A    between atoms: C_18  and  C_19
REMARK                            x       y       z     vdW  Elec       q    Type
REMARK                         _______ _______ _______ _____ _____    ______ ____
ROOT
ATOM      1  C   UNL     1       1.551   8.122  19.993  0.00  0.00    +0.000 A 
ATOM      2  C   UNL     1       1.115   9.240  19.266  0.00  0.00    +0.000 A 
ATOM      3  C   UNL     1       1.558   9.461  17.964  0.00  0.00    +0.000 A 
ATOM      4  C   UNL     1       2.484   8.595  17.393  0.00  0.00    +0.000 A 
ATOM      5  C   UNL     1       3.001   7.528  18.137  0.00  0.00    +0.000 A 
ATOM      6  C   UNL     1       2.555   7.291  19.458  0.00  0.00    +0.000 A 
ENDROOT
BRANCH   1   8
ATOM      7  C   UNL     1       1.027   8.891  22.185  0.00  0.00    +0.000 C 
ATOM      8  O   UNL     1       1.027   7.828  21.227  0.00  0.00    +0.000 OA
ENDBRANCH   1   8
BRANCH   5   9
ATOM      9  C   UNL     1       4.021   6.646  17.503  0.00  0.00    +0.000 C 
ATOM     10  N   UNL     1       5.281   6.963  17.480  0.00  0.00    +0.000 NA
BRANCH  10  11
ATOM     11  N   UNL     1       6.095   6.079  16.820  0.00  0.00    +0.000 N 
ATOM     12  N   UNL     1       6.348   6.107  15.494  0.00  0.00    +0.000 NA
ATOM     13  N   UNL     1       7.191   5.112  15.258  0.00  0.00    +0.000 NA
ATOM     14  N   UNL     1       7.491   4.429  16.407  0.00  0.00    +0.000 NA
ATOM     15  C   UNL     1       6.816   5.012  17.371  0.00  0.00    +0.000 A 
ATOM     16  N   UNL     1       6.784   4.664  18.681  0.00  0.00    +0.000 N 
ATOM     17  H   UNL     1       7.159   3.749  18.914  0.00  0.00    +0.000 HD
ATOM     18  H   UNL     1       5.985   4.942  19.242  0.00  0.00    +0.000 HD
ENDBRANCH  10  11
ENDBRANCH   5   9
BRANCH   6  19
ATOM     19  O   UNL     1       3.106   6.200  20.089  0.00  0.00    +0.000 OA
BRANCH  19  20
ATOM     20  C   UNL     1       2.418   4.944  19.999  0.00  0.00    +0.000 C 
BRANCH  20  21
ATOM     21  C   UNL     1       3.388   3.863  19.728  0.00  0.00    +0.000 C 
ATOM     22  N   UNL     1       4.179   3.034  19.525  0.00  0.00    +0.000 NA
ENDBRANCH  20  21
ENDBRANCH  19  20
ENDBRANCH   6  19
TORSDOF 6
ENDMDL
MODEL 7
REMARK VINA RESULT:      -6.3      5.031      6.769
REMARK  Name = 
REMARK  7 active torsions:
REMARK  status: ('A' for Active; 'I' for Inactive)
REMARK    1  A    between atoms: C_1  and  O_2
REMARK    2  A    between atoms: O_2  and  C_3
REMARK    3  A    between atoms: C_7  and  C_8
REMARK    4  A    between atoms: N_9  and  N_10
REMARK    5  A    between atoms: C_16  and  O_17
REMARK    6  A    between atoms: O_17  and  C_18
REMARK    7  A    between atoms: C_18  and  C_19
REMARK                            x       y       z     vdW  Elec       q    Type
REMARK                         _______ _______ _______ _____ _____    ______ ____
ROOT
ATOM      1  C   UNL     1       3.763   4.199  17.970  0.00  0.00    +0.000 A 
ATOM      2  C   UNL     1       4.699   4.488  16.966  0.00  0.00    +0.000 A 
ATOM      3  C   UNL     1       4.933   5.802  16.566  0.00  0.00    +0.000 A 
ATOM      4  C   UNL     1       4.195   6.837  17.128  0.00  0.00    +0.000 A 
ATOM      5  C   UNL     1       3.191   6.557  18.064  0.00  0.00    +0.000 A 
ATOM      6  C   UNL     1       2.948   5.228  18.481  0.00  0.00    +0.000 A 
ENDROOT
BRANCH   1   8
ATOM      7  C   UNL     1       2.595   2.127  17.850  0.00  0.00    +0.000 C 
ATOM      8  O   UNL     1       3.615   2.924  18.458  0.00  0.00    +0.000 OA
ENDBRANCH   1   8
BRANCH   5   9
ATOM      9  C   UNL     1       2.394   7.690  18.613  0.00  0.00    +0.000 C 
ATOM     10  N   UNL     1       2.322   8.835  18.005  0.00  0.00    +0.000 NA
BRANCH  10  11
ATOM     11  N   UNL     1       1.593   9.799  18.653  0.00  0.00    +0.000 N 
ATOM     12  N   UNL     1       0.662   9.555  19.600  0.00  0.00    +0.000 NA
ATOM     13  N   UNL     1       0.210  10.738  19.987  0.00  0.00    +0.000 NA
ATOM     14  N   UNL     1       0.825  11.755  19.306  0.00  0.00    +0.000 NA
ATOM     15  C   UNL     1       1.671  11.186  18.477  0.00  0.00    +0.000 A 
ATOM     16  N   UNL     1       2.486  11.799  17.583  0.00  0.00    +0.000 N 
ATOM     17  H   UNL     1       2.290  12.776  17.391  0.00  0.00    +0.000 HD
ATOM     18  H   UNL     1       2.815  11.272  16.780  0.00  0.00    +0.000 HD
ENDBRANCH  10  11
ENDBRANCH   5   9
BRANCH   6  19
ATOM     19  O   UNL     1       1.960   5.068  19.424  0.00  0.00    +0.000 OA
BRANCH  19  20
ATOM     20  C   UNL     1       2.336   5.073  20.808  0.00  0.00    +0.000 C 
BRANCH  20  21
ATOM     21  C   UNL     1       2.059   3.749  21.404  0.00  0.00    +0.000 C 
ATOM     22  N   UNL     1       1.832   2.694  21.840  0.00  0.00    +0.000 NA
ENDBRANCH  20  21
ENDBRANCH  19  20
ENDBRANCH   6  19
TORSDOF 6
ENDMDL
MODEL 8
REMARK VINA RESULT:      -6.3      1.948      3.386
REMARK  Name = 
REMARK  7 active torsions:
REMARK  status: ('A' for Active; 'I' for Inactive)
REMARK    1  A    between atoms: C_1  and  O_2
REMARK    2  A    between atoms: O_2  and  C_3
REMARK    3  A    between atoms: C_7  and  C_8
REMARK    4  A    between atoms: N_9  and  N_10
REMARK    5  A    between atoms: C_16  and  O_17
REMARK    6  A    between atoms: O_17  and  C_18
REMARK    7  A    between atoms: C_18  and  C_19
REMARK                            x       y       z     vdW  Elec       q    Type
REMARK                         _______ _______ _______ _____ _____    ______ ____
ROOT
ATOM      1  C   UNL     1       2.639   4.520  20.756  0.00  0.00    +0.000 A 
ATOM      2  C   UNL     1       1.917   5.723  20.745  0.00  0.00    +0.000 A 
ATOM      3  C   UNL     1       2.072   6.638  19.706  0.00  0.00    +0.000 A 
ATOM      4  C   UNL     1       2.989   6.384  18.693  0.00  0.00    +0.000 A 
ATOM      5  C   UNL     1       3.785   5.233  18.738  0.00  0.00    +0.000 A 
ATOM      6  C   UNL     1       3.634   4.295  19.784  0.00  0.00    +0.000 A 
ENDROOT
BRANCH   1   8
ATOM      7  C   UNL     1       1.227   2.764  21.528  0.00  0.00    +0.000 C 
ATOM      8  O   UNL     1       2.402   3.559  21.707  0.00  0.00    +0.000 OA
ENDBRANCH   1   8
BRANCH   5   9
ATOM      9  C   UNL     1       4.785   5.017  17.655  0.00  0.00    +0.000 C 
ATOM     10  N   UNL     1       4.735   5.673  16.534  0.00  0.00    +0.000 NA
BRANCH  10  11
ATOM     11  N   UNL     1       5.692   5.334  15.613  0.00  0.00    +0.000 N 
ATOM     12  N   UNL     1       5.493   4.509  14.562  0.00  0.00    +0.000 NA
ATOM     13  N   UNL     1       6.644   4.460  13.909  0.00  0.00    +0.000 NA
ATOM     14  N   UNL     1       7.597   5.234  14.516  0.00  0.00    +0.000 NA
ATOM     15  C   UNL     1       7.022   5.770  15.569  0.00  0.00    +0.000 A 
ATOM     16  N   UNL     1       7.587   6.594  16.485  0.00  0.00    +0.000 N 
ATOM     17  H   UNL     1       8.601   6.652  16.475  0.00  0.00    +0.000 HD
ATOM     18  H   UNL     1       7.175   6.652  17.411  0.00  0.00    +0.000 HD
ENDBRANCH  10  11
ENDBRANCH   5   9
BRANCH   6  19
ATOM     19  O   UNL     1       4.445   3.187  19.717  0.00  0.00    +0.000 OA
BRANCH  19  20
ATOM     20  C   UNL     1       3.843   1.923  19.404  0.00  0.00    +0.000 C 
BRANCH  20  21
ATOM     21  C   UNL     1       2.933   2.077  18.250  0.00  0.00    +0.000 C 
ATOM     22  N   UNL     1       2.242   2.219  17.325  0.00  0.00    +0.000 NA
ENDBRANCH  20  21
ENDBRANCH  19  20
ENDBRANCH   6  19
TORSDOF 6
ENDMDL
MODEL 9
REMARK VINA RESULT:      -6.2      1.902      2.304
REMARK  Name = 
REMARK  7 active torsions:
REMARK  status: ('A' for Active; 'I' for Inactive)
REMARK    1  A    between atoms: C_1  and  O_2
REMARK    2  A    between atoms: O_2  and  C_3
REMARK    3  A    between atoms: C_7  and  C_8
REMARK    4  A    between atoms: N_9  and  N_10
REMARK    5  A    between atoms: C_16  and  O_17
REMARK    6  A    between atoms: O_17  and  C_18
REMARK    7  A    between atoms: C_18  and  C_19
REMARK                            x       y       z     vdW  Elec       q    Type
REMARK                         _______ _______ _______ _____ _____    ______ ____
ROOT
ATOM      1  C   UNL     1       1.766   3.413  19.882  0.00  0.00    +0.000 A 
ATOM      2  C   UNL     1       1.159   2.301  19.280  0.00  0.00    +0.000 A 
ATOM      3  C   UNL     1       1.598   1.832  18.043  0.00  0.00    +0.000 A 
ATOM      4  C   UNL     1       2.614   2.502  17.371  0.00  0.00    +0.000 A 
ATOM      5  C   UNL     1       3.166   3.669  17.914  0.00  0.00    +0.000 A 
ATOM      6  C   UNL     1       2.732   4.151  19.170  0.00  0.00    +0.000 A 
ENDROOT
BRANCH   1   8
ATOM      7  C   UNL     1       1.432   2.788  22.155  0.00  0.00    +0.000 C 
ATOM      8  O   UNL     1       1.425   3.807  21.152  0.00  0.00    +0.000 OA
ENDBRANCH   1   8
BRANCH   5   9
ATOM      9  C   UNL     1       4.224   4.380  17.144  0.00  0.00    +0.000 C 
ATOM     10  N   UNL     1       5.477   4.046  17.229  0.00  0.00    +0.000 NA
BRANCH  10  11
ATOM     11  N   UNL     1       6.342   4.821  16.501  0.00  0.00    +0.000 N 
ATOM     12  N   UNL     1       6.951   5.935  16.960  0.00  0.00    +0.000 NA
ATOM     13  N   UNL     1       7.715   6.372  15.969  0.00  0.00    +0.000 NA
ATOM     14  N   UNL     1       7.613   5.567  14.866  0.00  0.00    +0.000 NA
ATOM     15  C   UNL     1       6.764   4.614  15.182  0.00  0.00    +0.000 A 
ATOM     16  N   UNL     1       6.337   3.598  14.392  0.00  0.00    +0.000 N 
ATOM     17  H   UNL     1       6.533   3.685  13.400  0.00  0.00    +0.000 HD
ATOM     18  H   UNL     1       5.449   3.154  14.605  0.00  0.00    +0.000 HD
ENDBRANCH  10  11
ENDBRANCH   5   9
BRANCH   6  19
ATOM     19  O   UNL     1       3.360   5.288  19.624  0.00  0.00    +0.000 OA
BRANCH  19  20
ATOM     20  C   UNL     1       2.566   6.464  19.835  0.00  0.00    +0.000 C 
BRANCH  20  21
ATOM     21  C   UNL     1       2.676   7.356  18.662  0.00  0.00    +0.000 C 
ATOM     22  N   UNL     1       2.753   8.087  17.760  0.00  0.00    +0.000 NA
ENDBRANCH  20  21
ENDBRANCH  19  20
ENDBRANCH   6  19
TORSDOF 6
ENDMDL
