MODEL 1
REMARK VINA RESULT:      -7.7      0.000      0.000
REMARK  Name = 
REMARK  7 active torsions:
REMARK  status: ('A' for Active; 'I' for Inactive)
REMARK    1  A    between atoms: C_1  and  C_2
REMARK    2  A    between atoms: C_2  and  C_3
REMARK    3  A    between atoms: C_2  and  C_6
REMARK    4  A    between atoms: C_3  and  O_5
REMARK    5  A    between atoms: C_9  and  C_10
REMARK    6  A    between atoms: C_10  and  C_11
REMARK    7  A    between atoms: C_15  and  O_16
REMARK                            x       y       z     vdW  Elec       q    Type
REMARK                         _______ _______ _______ _____ _____    ______ ____
ROOT
ATOM      1  C   UNL     1       5.020   5.647  17.003  0.00  0.00    +0.000 A 
ATOM      2  C   UNL     1       4.721   4.301  16.749  0.00  0.00    +0.000 A 
ATOM      3  C   UNL     1       3.495   3.754  17.133  0.00  0.00    +0.000 A 
ATOM      4  C   UNL     1       2.529   4.531  17.783  0.00  0.00    +0.000 A 
ATOM      5  C   UNL     1       2.831   5.872  18.055  0.00  0.00    +0.000 A 
ATOM      6  C   UNL     1       4.060   6.427  17.665  0.00  0.00    +0.000 A 
ENDROOT
BRANCH   1   8
ATOM      7  C   UNL     1       6.954   7.148  17.535  0.00  0.00    +0.000 C 
ATOM      8  C   UNL     1       6.331   6.224  16.486  0.00  0.00    +0.000 C 
BRANCH   8   9
ATOM      9  C   UNL     1       7.336   5.183  16.001  0.00  0.00    +0.000 C 
ATOM     10  O   UNL     1       7.948   4.411  16.723  0.00  0.00    +0.000 OA
BRANCH   9  11
ATOM     11  O   UNL     1       7.557   5.225  14.662  0.00  0.00    +0.000 OA
ATOM     12  H   UNL     1       7.870   6.097  14.350  0.00  0.00    +0.000 HD
ENDBRANCH   9  11
ENDBRANCH   8   9
ENDBRANCH   1   8
BRANCH   4  13
ATOM     13  C   UNL     1       1.156   3.949  18.050  0.00  0.00    +0.000 C 
BRANCH  13  14
ATOM     14  C   UNL     1       0.850   3.523  19.499  0.00  0.00    +0.000 C 
ATOM     15  C   UNL     1       1.272   4.570  20.545  0.00  0.00    +0.000 C 
ATOM     16  C   UNL     1       2.552   4.057  21.215  0.00  0.00    +0.000 C 
ATOM     17  C   UNL     1       2.930   2.774  20.494  0.00  0.00    +0.000 C 
ATOM     18  C   UNL     1       1.608   2.258  19.944  0.00  0.00    +0.000 C 
BRANCH  18  19
ATOM     19  O   UNL     1       1.798   1.307  18.916  0.00  0.00    +0.000 OA
ATOM     20  H   UNL     1       0.935   0.930  18.671  0.00  0.00    +0.000 HD
ENDBRANCH  18  19
ENDBRANCH  13  14
ENDBRANCH   4  13
TORSDOF 6
ENDMDL
MODEL 2
REMARK VINA RESULT:      -7.6      1.172      1.825
REMARK  Name = 
REMARK  7 active torsions:
REMARK  status: ('A' for Active; 'I' for Inactive)
REMARK    1  A    between atoms: C_1  and  C_2
REMARK    2  A    between atoms: C_2  and  C_3
REMARK    3  A    between atoms: C_2  and  C_6
REMARK    4  A    between atoms: C_3  and  O_5
REMARK    5  A    between atoms: C_9  and  C_10
REMARK    6  A    between atoms: C_10  and  C_11
REMARK    7  A    between atoms: C_15  and  O_16
REMARK                            x       y       z     vdW  Elec       q    Type
REMARK                         _______ _______ _______ _____ _____    ______ ____
ROOT
ATOM      1  C   UNL     1       5.539   5.456  17.339  0.00  0.00    +0.000 A 
ATOM      2  C   UNL     1       4.618   6.401  17.810  0.00  0.00    +0.000 A 
ATOM      3  C   UNL     1       3.265   6.082  17.937  0.00  0.00    +0.000 A 
ATOM      4  C   UNL     1       2.787   4.810  17.598  0.00  0.00    +0.000 A 
ATOM      5  C   UNL     1       3.703   3.868  17.109  0.00  0.00    +0.000 A 
ATOM      6  C   UNL     1       5.064   4.184  16.985  0.00  0.00    +0.000 A 
ENDROOT
BRANCH   1   8
ATOM      7  C   UNL     1       7.198   7.332  17.451  0.00  0.00    +0.000 C 
ATOM      8  C   UNL     1       7.018   5.819  17.302  0.00  0.00    +0.000 C 
BRANCH   8   9
ATOM      9  C   UNL     1       7.883   5.059  18.304  0.00  0.00    +0.000 C 
ATOM     10  O   UNL     1       8.088   5.406  19.457  0.00  0.00    +0.000 OA
BRANCH   9  11
ATOM     11  O   UNL     1       8.485   3.962  17.778  0.00  0.00    +0.000 OA
ATOM     12  H   UNL     1       8.591   3.233  18.421  0.00  0.00    +0.000 HD
ENDBRANCH   9  11
ENDBRANCH   8   9
ENDBRANCH   1   8
BRANCH   4  13
ATOM     13  C   UNL     1       1.345   4.450  17.889  0.00  0.00    +0.000 C 
BRANCH  13  14
ATOM     14  C   UNL     1       1.011   4.022  19.331  0.00  0.00    +0.000 C 
ATOM     15  C   UNL     1       2.111   4.380  20.344  0.00  0.00    +0.000 C 
ATOM     16  C   UNL     1       2.859   3.086  20.686  0.00  0.00    +0.000 C 
ATOM     17  C   UNL     1       2.268   2.003  19.800  0.00  0.00    +0.000 C 
ATOM     18  C   UNL     1       0.861   2.498  19.502  0.00  0.00    +0.000 C 
BRANCH  18  19
ATOM     19  O   UNL     1       0.295   1.844  18.384  0.00  0.00    +0.000 OA
ATOM     20  H   UNL     1       0.992   1.344  17.925  0.00  0.00    +0.000 HD
ENDBRANCH  18  19
ENDBRANCH  13  14
ENDBRANCH   4  13
TORSDOF 6
ENDMDL
MODEL 3
REMARK VINA RESULT:      -7.4      1.332      1.859
REMARK  Name = 
REMARK  7 active torsions:
REMARK  status: ('A' for Active; 'I' for Inactive)
REMARK    1  A    between atoms: C_1  and  C_2
REMARK    2  A    between atoms: C_2  and  C_3
REMARK    3  A    between atoms: C_2  and  C_6
REMARK    4  A    between atoms: C_3  and  O_5
REMARK    5  A    between atoms: C_9  and  C_10
REMARK    6  A    between atoms: C_10  and  C_11
REMARK    7  A    between atoms: C_15  and  O_16
REMARK                            x       y       z     vdW  Elec       q    Type
REMARK                         _______ _______ _______ _____ _____    ______ ____
ROOT
ATOM      1  C   UNL     1       5.093   4.870  17.165  0.00  0.00    +0.000 A 
ATOM      2  C   UNL     1       5.367   4.537  18.498  0.00  0.00    +0.000 A 
ATOM      3  C   UNL     1       4.564   3.627  19.190  0.00  0.00    +0.000 A 
ATOM      4  C   UNL     1       3.463   3.021  18.573  0.00  0.00    +0.000 A 
ATOM      5  C   UNL     1       3.175   3.365  17.246  0.00  0.00    +0.000 A 
ATOM      6  C   UNL     1       3.983   4.275  16.546  0.00  0.00    +0.000 A 
ENDROOT
BRANCH   1   8
ATOM      7  C   UNL     1       6.410   6.997  17.300  0.00  0.00    +0.000 C 
ATOM      8  C   UNL     1       6.047   5.796  16.422  0.00  0.00    +0.000 C 
BRANCH   8   9
ATOM      9  C   UNL     1       7.297   5.114  15.874  0.00  0.00    +0.000 C 
ATOM     10  O   UNL     1       8.031   4.378  16.515  0.00  0.00    +0.000 OA
BRANCH   9  11
ATOM     11  O   UNL     1       7.580   5.452  14.590  0.00  0.00    +0.000 OA
ATOM     12  H   UNL     1       7.277   6.351  14.352  0.00  0.00    +0.000 HD
ENDBRANCH   9  11
ENDBRANCH   8   9
ENDBRANCH   1   8
BRANCH   4  13
ATOM     13  C   UNL     1       2.705   1.929  19.301  0.00  0.00    +0.000 C 
BRANCH  13  14
ATOM     14  C   UNL     1       1.500   2.368  20.154  0.00  0.00    +0.000 C 
ATOM     15  C   UNL     1       0.742   3.571  19.567  0.00  0.00    +0.000 C 
ATOM     16  C   UNL     1       1.118   4.801  20.401  0.00  0.00    +0.000 C 
ATOM     17  C   UNL     1       2.166   4.338  21.399  0.00  0.00    +0.000 C 
ATOM     18  C   UNL     1       1.886   2.852  21.565  0.00  0.00    +0.000 C 
BRANCH  18  19
ATOM     19  O   UNL     1       2.985   2.166  22.131  0.00  0.00    +0.000 OA
ATOM     20  H   UNL     1       3.798   2.667  21.948  0.00  0.00    +0.000 HD
ENDBRANCH  18  19
ENDBRANCH  13  14
ENDBRANCH   4  13
TORSDOF 6
ENDMDL
MODEL 4
REMARK VINA RESULT:      -7.4      1.052      1.286
REMARK  Name = 
REMARK  7 active torsions:
REMARK  status: ('A' for Active; 'I' for Inactive)
REMARK    1  A    between atoms: C_1  and  C_2
REMARK    2  A    between atoms: C_2  and  C_3
REMARK    3  A    between atoms: C_2  and  C_6
REMARK    4  A    between atoms: C_3  and  O_5
REMARK    5  A    between atoms: C_9  and  C_10
REMARK    6  A    between atoms: C_10  and  C_11
REMARK    7  A    between atoms: C_15  and  O_16
REMARK                            x       y       z     vdW  Elec       q    Type
REMARK                         _______ _______ _______ _____ _____    ______ ____
ROOT
ATOM      1  C   UNL     1       5.427   5.261  17.637  0.00  0.00    +0.000 A 
ATOM      2  C   UNL     1       5.014   3.979  17.253  0.00  0.00    +0.000 A 
ATOM      3  C   UNL     1       3.687   3.574  17.414  0.00  0.00    +0.000 A 
ATOM      4  C   UNL     1       2.731   4.436  17.966  0.00  0.00    +0.000 A 
ATOM      5  C   UNL     1       3.145   5.713  18.368  0.00  0.00    +0.000 A 
ATOM      6  C   UNL     1       4.476   6.124  18.202  0.00  0.00    +0.000 A 
ENDROOT
BRANCH   1   8
ATOM      7  C   UNL     1       6.971   7.218  17.378  0.00  0.00    +0.000 C 
ATOM      8  C   UNL     1       6.862   5.691  17.359  0.00  0.00    +0.000 C 
BRANCH   8   9
ATOM      9  C   UNL     1       7.905   5.051  18.270  0.00  0.00    +0.000 C 
ATOM     10  O   UNL     1       8.237   5.480  19.364  0.00  0.00    +0.000 OA
BRANCH   9  11
ATOM     11  O   UNL     1       8.508   3.964  17.724  0.00  0.00    +0.000 OA
ATOM     12  H   UNL     1       8.111   3.117  18.009  0.00  0.00    +0.000 HD
ENDBRANCH   9  11
ENDBRANCH   8   9
ENDBRANCH   1   8
BRANCH   4  13
ATOM     13  C   UNL     1       1.274   4.020  17.989  0.00  0.00    +0.000 C 
BRANCH  13  14
ATOM     14  C   UNL     1       0.708   3.539  19.339  0.00  0.00    +0.000 C 
ATOM     15  C   UNL     1       0.983   4.514  20.498  0.00  0.00    +0.000 C 
ATOM     16  C   UNL     1       2.109   3.911  21.346  0.00  0.00    +0.000 C 
ATOM     17  C   UNL     1       2.558   2.649  20.629  0.00  0.00    +0.000 C 
ATOM     18  C   UNL     1       1.332   2.221  19.835  0.00  0.00    +0.000 C 
BRANCH  18  19
ATOM     19  O   UNL     1       1.662   1.313  18.803  0.00  0.00    +0.000 OA
ATOM     20  H   UNL     1       1.481   1.733  17.944  0.00  0.00    +0.000 HD
ENDBRANCH  18  19
ENDBRANCH  13  14
ENDBRANCH   4  13
TORSDOF 6
ENDMDL
MODEL 5
REMARK VINA RESULT:      -7.4      0.371      1.408
REMARK  Name = 
REMARK  7 active torsions:
REMARK  status: ('A' for Active; 'I' for Inactive)
REMARK    1  A    between atoms: C_1  and  C_2
REMARK    2  A    between atoms: C_2  and  C_3
REMARK    3  A    between atoms: C_2  and  C_6
REMARK    4  A    between atoms: C_3  and  O_5
REMARK    5  A    between atoms: C_9  and  C_10
REMARK    6  A    between atoms: C_10  and  C_11
REMARK    7  A    between atoms: C_15  and  O_16
REMARK                            x       y       z     vdW  Elec       q    Type
REMARK                         _______ _______ _______ _____ _____    ______ ____
ROOT
ATOM      1  C   UNL     1       5.051   5.461  17.195  0.00  0.00    +0.000 A 
ATOM      2  C   UNL     1       4.075   6.277  17.781  0.00  0.00    +0.000 A 
ATOM      3  C   UNL     1       2.786   5.795  18.021  0.00  0.00    +0.000 A 
ATOM      4  C   UNL     1       2.431   4.483  17.683  0.00  0.00    +0.000 A 
ATOM      5  C   UNL     1       3.400   3.670  17.081  0.00  0.00    +0.000 A 
ATOM      6  C   UNL     1       4.698   4.150  16.843  0.00  0.00    +0.000 A 
ENDROOT
BRANCH   1   8
ATOM      7  C   UNL     1       7.075   6.307  18.406  0.00  0.00    +0.000 C 
ATOM      8  C   UNL     1       6.467   5.999  17.036  0.00  0.00    +0.000 C 
BRANCH   8   9
ATOM      9  C   UNL     1       7.393   5.114  16.206  0.00  0.00    +0.000 C 
ATOM     10  O   UNL     1       7.540   5.193  14.996  0.00  0.00    +0.000 OA
BRANCH   9  11
ATOM     11  O   UNL     1       8.016   4.150  16.933  0.00  0.00    +0.000 OA
ATOM     12  H   UNL     1       7.775   4.165  17.880  0.00  0.00    +0.000 HD
ENDBRANCH   9  11
ENDBRANCH   8   9
ENDBRANCH   1   8
BRANCH   4  13
ATOM     13  C   UNL     1       1.075   3.946  18.093  0.00  0.00    +0.000 C 
BRANCH  13  14
ATOM     14  C   UNL     1       0.892   3.575  19.577  0.00  0.00    +0.000 C 
ATOM     15  C   UNL     1       1.391   4.663  20.544  0.00  0.00    +0.000 C 
ATOM     16  C   UNL     1       2.725   4.182  21.125  0.00  0.00    +0.000 C 
ATOM     17  C   UNL     1       3.052   2.874  20.425  0.00  0.00    +0.000 C 
ATOM     18  C   UNL     1       1.694   2.332  20.006  0.00  0.00    +0.000 C 
BRANCH  18  19
ATOM     19  O   UNL     1       1.806   1.342  19.003  0.00  0.00    +0.000 OA
ATOM     20  H   UNL     1       2.022   0.491  19.421  0.00  0.00    +0.000 HD
ENDBRANCH  18  19
ENDBRANCH  13  14
ENDBRANCH   4  13
TORSDOF 6
ENDMDL
MODEL 6
REMARK VINA RESULT:      -7.4      1.873      6.297
REMARK  Name = 
REMARK  7 active torsions:
REMARK  status: ('A' for Active; 'I' for Inactive)
REMARK    1  A    between atoms: C_1  and  C_2
REMARK    2  A    between atoms: C_2  and  C_3
REMARK    3  A    between atoms: C_2  and  C_6
REMARK    4  A    between atoms: C_3  and  O_5
REMARK    5  A    between atoms: C_9  and  C_10
REMARK    6  A    between atoms: C_10  and  C_11
REMARK    7  A    between atoms: C_15  and  O_16
REMARK                            x       y       z     vdW  Elec       q    Type
REMARK                         _______ _______ _______ _____ _____    ______ ____
ROOT
ATOM      1  C   UNL     1       2.558   4.124  19.245  0.00  0.00    +0.000 A 
ATOM      2  C   UNL     1       3.212   5.284  19.682  0.00  0.00    +0.000 A 
ATOM      3  C   UNL     1       4.082   5.978  18.838  0.00  0.00    +0.000 A 
ATOM      4  C   UNL     1       4.327   5.537  17.532  0.00  0.00    +0.000 A 
ATOM      5  C   UNL     1       3.690   4.367  17.098  0.00  0.00    +0.000 A 
ATOM      6  C   UNL     1       2.811   3.670  17.941  0.00  0.00    +0.000 A 
ENDROOT
BRANCH   1   8
ATOM      7  C   UNL     1       0.668   2.483  19.372  0.00  0.00    +0.000 C 
ATOM      8  C   UNL     1       1.550   3.451  20.167  0.00  0.00    +0.000 C 
BRANCH   8   9
ATOM      9  C   UNL     1       2.162   2.766  21.385  0.00  0.00    +0.000 C 
ATOM     10  O   UNL     1       3.327   2.411  21.477  0.00  0.00    +0.000 OA
BRANCH   9  11
ATOM     11  O   UNL     1       1.265   2.511  22.372  0.00  0.00    +0.000 OA
ATOM     12  H   UNL     1       1.678   2.184  23.195  0.00  0.00    +0.000 HD
ENDBRANCH   9  11
ENDBRANCH   8   9
ENDBRANCH   1   8
BRANCH   4  13
ATOM     13  C   UNL     1       5.156   6.393  16.596  0.00  0.00    +0.000 C 
BRANCH  13  14
ATOM     14  C   UNL     1       6.642   6.017  16.440  0.00  0.00    +0.000 C 
ATOM     15  C   UNL     1       6.979   4.619  16.988  0.00  0.00    +0.000 C 
ATOM     16  C   UNL     1       7.705   4.813  18.324  0.00  0.00    +0.000 C 
ATOM     17  C   UNL     1       7.699   6.307  18.603  0.00  0.00    +0.000 C 
ATOM     18  C   UNL     1       7.597   6.938  17.222  0.00  0.00    +0.000 C 
BRANCH  18  19
ATOM     19  O   UNL     1       7.176   8.286  17.286  0.00  0.00    +0.000 OA
ATOM     20  H   UNL     1       7.811   8.839  16.798  0.00  0.00    +0.000 HD
ENDBRANCH  18  19
ENDBRANCH  13  14
ENDBRANCH   4  13
TORSDOF 6
ENDMDL
MODEL 7
REMARK VINA RESULT:      -7.4      1.400      1.980
REMARK  Name = 
REMARK  7 active torsions:
REMARK  status: ('A' for Active; 'I' for Inactive)
REMARK    1  A    between atoms: C_1  and  C_2
REMARK    2  A    between atoms: C_2  and  C_3
REMARK    3  A    between atoms: C_2  and  C_6
REMARK    4  A    between atoms: C_3  and  O_5
REMARK    5  A    between atoms: C_9  and  C_10
REMARK    6  A    between atoms: C_10  and  C_11
REMARK    7  A    between atoms: C_15  and  O_16
REMARK                            x       y       z     vdW  Elec       q    Type
REMARK                         _______ _______ _______ _____ _____    ______ ____
ROOT
ATOM      1  C   UNL     1       5.149   4.657  17.173  0.00  0.00    +0.000 A 
ATOM      2  C   UNL     1       4.058   4.017  16.568  0.00  0.00    +0.000 A 
ATOM      3  C   UNL     1       3.278   3.103  17.279  0.00  0.00    +0.000 A 
ATOM      4  C   UNL     1       3.562   2.797  18.616  0.00  0.00    +0.000 A 
ATOM      5  C   UNL     1       4.662   3.421  19.218  0.00  0.00    +0.000 A 
ATOM      6  C   UNL     1       5.445   4.345  18.508  0.00  0.00    +0.000 A 
ENDROOT
BRANCH   1   8
ATOM      7  C   UNL     1       6.231   6.915  17.284  0.00  0.00    +0.000 C 
ATOM      8  C   UNL     1       5.915   5.714  16.388  0.00  0.00    +0.000 C 
BRANCH   8   9
ATOM      9  C   UNL     1       7.171   5.200  15.690  0.00  0.00    +0.000 C 
ATOM     10  O   UNL     1       7.449   5.393  14.516  0.00  0.00    +0.000 OA
BRANCH   9  11
ATOM     11  O   UNL     1       7.953   4.424  16.484  0.00  0.00    +0.000 OA
ATOM     12  H   UNL     1       7.454   3.966  17.188  0.00  0.00    +0.000 HD
ENDBRANCH   9  11
ENDBRANCH   8   9
ENDBRANCH   1   8
BRANCH   4  13
ATOM     13  C   UNL     1       2.610   1.918  19.401  0.00  0.00    +0.000 C 
BRANCH  13  14
ATOM     14  C   UNL     1       1.425   2.619  20.093  0.00  0.00    +0.000 C 
ATOM     15  C   UNL     1       0.971   3.902  19.375  0.00  0.00    +0.000 C 
ATOM     16  C   UNL     1       1.482   5.091  20.197  0.00  0.00    +0.000 C 
ATOM     17  C   UNL     1       2.314   4.507  21.326  0.00  0.00    +0.000 C 
ATOM     18  C   UNL     1       1.745   3.110  21.518  0.00  0.00    +0.000 C 
BRANCH  18  19
ATOM     19  O   UNL     1       2.631   2.271  22.232  0.00  0.00    +0.000 OA
ATOM     20  H   UNL     1       2.366   2.256  23.168  0.00  0.00    +0.000 HD
ENDBRANCH  18  19
ENDBRANCH  13  14
ENDBRANCH   4  13
TORSDOF 6
ENDMDL
MODEL 8
REMARK VINA RESULT:      -7.3      1.289      1.811
REMARK  Name = 
REMARK  7 active torsions:
REMARK  status: ('A' for Active; 'I' for Inactive)
REMARK    1  A    between atoms: C_1  and  C_2
REMARK    2  A    between atoms: C_2  and  C_3
REMARK    3  A    between atoms: C_2  and  C_6
REMARK    4  A    between atoms: C_3  and  O_5
REMARK    5  A    between atoms: C_9  and  C_10
REMARK    6  A    between atoms: C_10  and  C_11
REMARK    7  A    between atoms: C_15  and  O_16
REMARK                            x       y       z     vdW  Elec       q    Type
REMARK                         _______ _______ _______ _____ _____    ______ ____
ROOT
ATOM      1  C   UNL     1       5.429   5.657  18.109  0.00  0.00    +0.000 A 
ATOM      2  C   UNL     1       4.282   6.446  18.265  0.00  0.00    +0.000 A 
ATOM      3  C   UNL     1       3.006   5.889  18.147  0.00  0.00    +0.000 A 
ATOM      4  C   UNL     1       2.836   4.527  17.868  0.00  0.00    +0.000 A 
ATOM      5  C   UNL     1       3.982   3.739  17.693  0.00  0.00    +0.000 A 
ATOM      6  C   UNL     1       5.264   4.295  17.817  0.00  0.00    +0.000 A 
ENDROOT
BRANCH   1   8
ATOM      7  C   UNL     1       7.787   5.237  18.846  0.00  0.00    +0.000 C 
ATOM      8  C   UNL     1       6.797   6.288  18.336  0.00  0.00    +0.000 C 
BRANCH   8   9
ATOM      9  C   UNL     1       7.359   7.038  17.132  0.00  0.00    +0.000 C 
ATOM     10  O   UNL     1       7.603   8.234  17.104  0.00  0.00    +0.000 OA
BRANCH   9  11
ATOM     11  O   UNL     1       7.509   6.259  16.030  0.00  0.00    +0.000 OA
ATOM     12  H   UNL     1       6.878   6.475  15.315  0.00  0.00    +0.000 HD
ENDBRANCH   9  11
ENDBRANCH   8   9
ENDBRANCH   1   8
BRANCH   4  13
ATOM     13  C   UNL     1       1.446   3.926  17.894  0.00  0.00    +0.000 C 
BRANCH  13  14
ATOM     14  C   UNL     1       0.878   3.545  19.275  0.00  0.00    +0.000 C 
ATOM     15  C   UNL     1       1.185   4.583  20.369  0.00  0.00    +0.000 C 
ATOM     16  C   UNL     1       2.302   4.007  21.246  0.00  0.00    +0.000 C 
ATOM     17  C   UNL     1       2.715   2.692  20.607  0.00  0.00    +0.000 C 
ATOM     18  C   UNL     1       1.474   2.245  19.849  0.00  0.00    +0.000 C 
BRANCH  18  19
ATOM     19  O   UNL     1       1.774   1.267  18.874  0.00  0.00    +0.000 OA
ATOM     20  H   UNL     1       2.523   0.730  19.185  0.00  0.00    +0.000 HD
ENDBRANCH  18  19
ENDBRANCH  13  14
ENDBRANCH   4  13
TORSDOF 6
ENDMDL
MODEL 9
REMARK VINA RESULT:      -7.3      0.632      1.040
REMARK  Name = 
REMARK  7 active torsions:
REMARK  status: ('A' for Active; 'I' for Inactive)
REMARK    1  A    between atoms: C_1  and  C_2
REMARK    2  A    between atoms: C_2  and  C_3
REMARK    3  A    between atoms: C_2  and  C_6
REMARK    4  A    between atoms: C_3  and  O_5
REMARK    5  A    between atoms: C_9  and  C_10
REMARK    6  A    between atoms: C_10  and  C_11
REMARK    7  A    between atoms: C_15  and  O_16
REMARK                            x       y       z     vdW  Elec       q    Type
REMARK                         _______ _______ _______ _____ _____    ______ ____
ROOT
ATOM      1  C   UNL     1       5.292   5.885  17.147  0.00  0.00    +0.000 A 
ATOM      2  C   UNL     1       4.951   4.530  17.040  0.00  0.00    +0.000 A 
ATOM      3  C   UNL     1       3.676   4.081  17.391  0.00  0.00    +0.000 A 
ATOM      4  C   UNL     1       2.702   4.970  17.862  0.00  0.00    +0.000 A 
ATOM      5  C   UNL     1       3.045   6.323  17.987  0.00  0.00    +0.000 A 
ATOM      6  C   UNL     1       4.324   6.777  17.630  0.00  0.00    +0.000 A 
ENDROOT
BRANCH   1   8
ATOM      7  C   UNL     1       7.475   6.904  17.838  0.00  0.00    +0.000 C 
ATOM      8  C   UNL     1       6.664   6.343  16.667  0.00  0.00    +0.000 C 
BRANCH   8   9
ATOM      9  C   UNL     1       7.455   5.284  15.904  0.00  0.00    +0.000 C 
ATOM     10  O   UNL     1       7.496   5.183  14.687  0.00  0.00    +0.000 OA
BRANCH   9  11
ATOM     11  O   UNL     1       8.080   4.388  16.710  0.00  0.00    +0.000 OA
ATOM     12  H   UNL     1       8.887   4.744  17.131  0.00  0.00    +0.000 HD
ENDBRANCH   9  11
ENDBRANCH   8   9
ENDBRANCH   1   8
BRANCH   4  13
ATOM     13  C   UNL     1       1.287   4.477  18.090  0.00  0.00    +0.000 C 
BRANCH  13  14
ATOM     14  C   UNL     1       0.955   3.942  19.497  0.00  0.00    +0.000 C 
ATOM     15  C   UNL     1       2.033   4.270  20.545  0.00  0.00    +0.000 C 
ATOM     16  C   UNL     1       2.823   2.983  20.808  0.00  0.00    +0.000 C 
ATOM     17  C   UNL     1       2.278   1.941  19.846  0.00  0.00    +0.000 C 
ATOM     18  C   UNL     1       0.857   2.406  19.565  0.00  0.00    +0.000 C 
BRANCH  18  19
ATOM     19  O   UNL     1       0.326   1.809  18.399  0.00  0.00    +0.000 OA
ATOM     20  H   UNL     1       0.968   1.165  18.053  0.00  0.00    +0.000 HD
ENDBRANCH  18  19
ENDBRANCH  13  14
ENDBRANCH   4  13
TORSDOF 6
ENDMDL
