MODEL 1
REMARK VINA RESULT:      -7.1      0.000      0.000
REMARK  Name = 
REMARK  3 active torsions:
REMARK  status: ('A' for Active; 'I' for Inactive)
REMARK    1  A    between atoms: C_1  and  O_2
REMARK    2  A    between atoms: O_2  and  C_3
REMARK    3  A    between atoms: C_11  and  C_12
REMARK                            x       y       z     vdW  Elec       q    Type
REMARK                         _______ _______ _______ _____ _____    ______ ____
ROOT
ATOM      1  C   UNL     1       6.341   5.524  17.591  0.00  0.00    +0.000 A 
ATOM      2  C   UNL     1       6.628   4.857  16.398  0.00  0.00    +0.000 A 
ATOM      3  C   UNL     1       5.666   4.067  15.766  0.00  0.00    +0.000 A 
ATOM      4  C   UNL     1       4.382   3.981  16.293  0.00  0.00    +0.000 A 
ATOM      5  C   UNL     1       4.056   4.679  17.462  0.00  0.00    +0.000 A 
ATOM      6  C   UNL     1       5.057   5.407  18.141  0.00  0.00    +0.000 A 
ATOM      7  O   UNL     1       4.784   6.050  19.320  0.00  0.00    +0.000 OA
ATOM      8  C   UNL     1       3.607   5.578  19.964  0.00  0.00    +0.000 C 
ATOM      9  C   UNL     1       2.398   5.708  19.046  0.00  0.00    +0.000 C 
ATOM     10  C   UNL     1       2.629   4.645  17.962  0.00  0.00    +0.000 C 
ENDROOT
BRANCH   9  11
ATOM     11  C   UNL     1       2.167   7.099  18.407  0.00  0.00    +0.000 C 
ATOM     12  O   UNL     1       2.126   7.226  17.181  0.00  0.00    +0.000 OA
ATOM     13  N   UNL     1       1.884   8.192  19.225  0.00  0.00    +0.000 N 
ATOM     14  C   UNL     1       1.623   9.494  18.590  0.00  0.00    +0.000 C 
ATOM     15  C   UNL     1       1.666  10.692  19.552  0.00  0.00    +0.000 C 
ATOM     16  C   UNL     1       0.778  10.416  20.738  0.00  0.00    +0.000 A 
ATOM     17  C   UNL     1      -0.012  11.394  21.345  0.00  0.00    +0.000 A 
ATOM     18  C   UNL     1      -0.823  11.059  22.433  0.00  0.00    +0.000 A 
ATOM     19  C   UNL     1      -0.836   9.757  22.929  0.00  0.00    +0.000 A 
ATOM     20  C   UNL     1      -0.031   8.787  22.348  0.00  0.00    +0.000 A 
ATOM     21  C   UNL     1       0.775   9.110  21.251  0.00  0.00    +0.000 A 
ATOM     22  C   UNL     1       1.697   8.090  20.663  0.00  0.00    +0.000 C 
ENDBRANCH   9  11
BRANCH   1  24
ATOM     23  C   UNL     1       7.559   7.581  17.527  0.00  0.00    +0.000 C 
ATOM     24  O   UNL     1       7.388   6.276  18.060  0.00  0.00    +0.000 OA
ENDBRANCH   1  24
TORSDOF 2
ENDMDL
MODEL 2
REMARK VINA RESULT:      -6.8      4.101      6.202
REMARK  Name = 
REMARK  3 active torsions:
REMARK  status: ('A' for Active; 'I' for Inactive)
REMARK    1  A    between atoms: C_1  and  O_2
REMARK    2  A    between atoms: O_2  and  C_3
REMARK    3  A    between atoms: C_11  and  C_12
REMARK                            x       y       z     vdW  Elec       q    Type
REMARK                         _______ _______ _______ _____ _____    ______ ____
ROOT
ATOM      1  C   UNL     1       2.241   8.189  18.766  0.00  0.00    +0.000 A 
ATOM      2  C   UNL     1       2.243   7.126  19.671  0.00  0.00    +0.000 A 
ATOM      3  C   UNL     1       1.522   7.195  20.865  0.00  0.00    +0.000 A 
ATOM      4  C   UNL     1       0.740   8.311  21.140  0.00  0.00    +0.000 A 
ATOM      5  C   UNL     1       0.684   9.370  20.227  0.00  0.00    +0.000 A 
ATOM      6  C   UNL     1       1.481   9.330  19.062  0.00  0.00    +0.000 A 
ATOM      7  O   UNL     1       1.494  10.378  18.179  0.00  0.00    +0.000 OA
ATOM      8  C   UNL     1       1.007  11.593  18.735  0.00  0.00    +0.000 C 
ATOM      9  C   UNL     1      -0.411  11.417  19.263  0.00  0.00    +0.000 C 
ATOM     10  C   UNL     1      -0.246  10.531  20.506  0.00  0.00    +0.000 C 
ENDROOT
BRANCH   9  11
ATOM     11  C   UNL     1      -1.438  10.798  18.283  0.00  0.00    +0.000 C 
ATOM     12  O   UNL     1      -1.131   9.830  17.583  0.00  0.00    +0.000 OA
ATOM     13  N   UNL     1      -2.751  11.264  18.280  0.00  0.00    +0.000 N 
ATOM     14  C   UNL     1      -3.719  10.629  17.371  0.00  0.00    +0.000 C 
ATOM     15  C   UNL     1      -5.026  11.416  17.180  0.00  0.00    +0.000 C 
ATOM     16  C   UNL     1      -5.607  11.759  18.528  0.00  0.00    +0.000 A 
ATOM     17  C   UNL     1      -6.976  11.737  18.798  0.00  0.00    +0.000 A 
ATOM     18  C   UNL     1      -7.440  12.054  20.077  0.00  0.00    +0.000 A 
ATOM     19  C   UNL     1      -6.545  12.408  21.085  0.00  0.00    +0.000 A 
ATOM     20  C   UNL     1      -5.184  12.459  20.816  0.00  0.00    +0.000 A 
ATOM     21  C   UNL     1      -4.710  12.132  19.540  0.00  0.00    +0.000 A 
ATOM     22  C   UNL     1      -3.254  12.251  19.221  0.00  0.00    +0.000 C 
ENDBRANCH   9  11
BRANCH   1  24
ATOM     23  C   UNL     1       3.879   6.847  17.655  0.00  0.00    +0.000 C 
ATOM     24  O   UNL     1       2.977   7.945  17.635  0.00  0.00    +0.000 OA
ENDBRANCH   1  24
TORSDOF 2
ENDMDL
MODEL 3
REMARK VINA RESULT:      -6.7      2.481      7.730
REMARK  Name = 
REMARK  3 active torsions:
REMARK  status: ('A' for Active; 'I' for Inactive)
REMARK    1  A    between atoms: C_1  and  O_2
REMARK    2  A    between atoms: O_2  and  C_3
REMARK    3  A    between atoms: C_11  and  C_12
REMARK                            x       y       z     vdW  Elec       q    Type
REMARK                         _______ _______ _______ _____ _____    ______ ____
ROOT
ATOM      1  C   UNL     1       2.097   7.385  18.805  0.00  0.00    +0.000 A 
ATOM      2  C   UNL     1       1.804   7.875  20.080  0.00  0.00    +0.000 A 
ATOM      3  C   UNL     1       1.770   7.027  21.188  0.00  0.00    +0.000 A 
ATOM      4  C   UNL     1       2.088   5.681  21.042  0.00  0.00    +0.000 A 
ATOM      5  C   UNL     1       2.432   5.175  19.783  0.00  0.00    +0.000 A 
ATOM      6  C   UNL     1       2.381   6.021  18.654  0.00  0.00    +0.000 A 
ATOM      7  O   UNL     1       2.653   5.539  17.399  0.00  0.00    +0.000 OA
ATOM      8  C   UNL     1       2.561   4.124  17.304  0.00  0.00    +0.000 C 
ATOM      9  C   UNL     1       3.500   3.451  18.297  0.00  0.00    +0.000 C 
ATOM     10  C   UNL     1       2.864   3.729  19.667  0.00  0.00    +0.000 C 
ENDROOT
BRANCH   9  11
ATOM     11  C   UNL     1       4.976   3.920  18.275  0.00  0.00    +0.000 C 
ATOM     12  O   UNL     1       5.694   3.777  19.268  0.00  0.00    +0.000 OA
ATOM     13  N   UNL     1       5.527   4.396  17.087  0.00  0.00    +0.000 N 
ATOM     14  C   UNL     1       6.945   4.792  17.080  0.00  0.00    +0.000 C 
ATOM     15  C   UNL     1       7.369   5.617  15.853  0.00  0.00    +0.000 C 
ATOM     16  C   UNL     1       6.942   4.903  14.597  0.00  0.00    +0.000 A 
ATOM     17  C   UNL     1       7.719   4.866  13.437  0.00  0.00    +0.000 A 
ATOM     18  C   UNL     1       7.262   4.172  12.313  0.00  0.00    +0.000 A 
ATOM     19  C   UNL     1       6.026   3.528  12.336  0.00  0.00    +0.000 A 
ATOM     20  C   UNL     1       5.236   3.585  13.476  0.00  0.00    +0.000 A 
ATOM     21  C   UNL     1       5.691   4.269  14.609  0.00  0.00    +0.000 A 
ATOM     22  C   UNL     1       4.818   4.395  15.817  0.00  0.00    +0.000 C 
ENDBRANCH   9  11
BRANCH   1  24
ATOM     23  C   UNL     1       1.317   9.513  18.044  0.00  0.00    +0.000 C 
ATOM     24  O   UNL     1       2.115   8.356  17.838  0.00  0.00    +0.000 OA
ENDBRANCH   1  24
TORSDOF 2
ENDMDL
MODEL 4
REMARK VINA RESULT:      -6.7      6.341     10.350
REMARK  Name = 
REMARK  3 active torsions:
REMARK  status: ('A' for Active; 'I' for Inactive)
REMARK    1  A    between atoms: C_1  and  O_2
REMARK    2  A    between atoms: O_2  and  C_3
REMARK    3  A    between atoms: C_11  and  C_12
REMARK                            x       y       z     vdW  Elec       q    Type
REMARK                         _______ _______ _______ _____ _____    ______ ____
ROOT
ATOM      1  C   UNL     1      -6.930  10.846  20.267  0.00  0.00    +0.000 A 
ATOM      2  C   UNL     1      -6.641  10.383  18.982  0.00  0.00    +0.000 A 
ATOM      3  C   UNL     1      -5.645  10.981  18.207  0.00  0.00    +0.000 A 
ATOM      4  C   UNL     1      -4.884  12.018  18.735  0.00  0.00    +0.000 A 
ATOM      5  C   UNL     1      -5.123  12.469  20.038  0.00  0.00    +0.000 A 
ATOM      6  C   UNL     1      -6.187  11.917  20.784  0.00  0.00    +0.000 A 
ATOM      7  O   UNL     1      -6.484  12.380  22.039  0.00  0.00    +0.000 OA
ATOM      8  C   UNL     1      -5.942  13.666  22.311  0.00  0.00    +0.000 C 
ATOM      9  C   UNL     1      -4.428  13.664  22.138  0.00  0.00    +0.000 C 
ATOM     10  C   UNL     1      -4.221  13.535  20.622  0.00  0.00    +0.000 C 
ENDROOT
BRANCH   9  11
ATOM     11  C   UNL     1      -3.651  12.557  22.892  0.00  0.00    +0.000 C 
ATOM     12  O   UNL     1      -4.142  12.011  23.883  0.00  0.00    +0.000 OA
ATOM     13  N   UNL     1      -2.442  12.095  22.377  0.00  0.00    +0.000 N 
ATOM     14  C   UNL     1      -1.745  11.010  23.088  0.00  0.00    +0.000 C 
ATOM     15  C   UNL     1      -0.282  10.806  22.661  0.00  0.00    +0.000 C 
ATOM     16  C   UNL     1      -0.210  10.680  21.160  0.00  0.00    +0.000 A 
ATOM     17  C   UNL     1       0.652   9.797  20.508  0.00  0.00    +0.000 A 
ATOM     18  C   UNL     1       0.653   9.726  19.113  0.00  0.00    +0.000 A 
ATOM     19  C   UNL     1      -0.192  10.543  18.364  0.00  0.00    +0.000 A 
ATOM     20  C   UNL     1      -1.032  11.444  19.006  0.00  0.00    +0.000 A 
ATOM     21  C   UNL     1      -1.047  11.513  20.403  0.00  0.00    +0.000 A 
ATOM     22  C   UNL     1      -1.896  12.528  21.101  0.00  0.00    +0.000 C 
ENDBRANCH   9  11
BRANCH   1  24
ATOM     23  C   UNL     1      -7.817   8.713  20.881  0.00  0.00    +0.000 C 
ATOM     24  O   UNL     1      -7.915  10.130  20.897  0.00  0.00    +0.000 OA
ENDBRANCH   1  24
TORSDOF 2
ENDMDL
MODEL 5
REMARK VINA RESULT:      -6.7      3.158      7.637
REMARK  Name = 
REMARK  3 active torsions:
REMARK  status: ('A' for Active; 'I' for Inactive)
REMARK    1  A    between atoms: C_1  and  O_2
REMARK    2  A    between atoms: O_2  and  C_3
REMARK    3  A    between atoms: C_11  and  C_12
REMARK                            x       y       z     vdW  Elec       q    Type
REMARK                         _______ _______ _______ _____ _____    ______ ____
ROOT
ATOM      1  C   UNL     1      -1.655  11.848  19.311  0.00  0.00    +0.000 A 
ATOM      2  C   UNL     1      -2.871  11.607  18.667  0.00  0.00    +0.000 A 
ATOM      3  C   UNL     1      -2.962  10.689  17.619  0.00  0.00    +0.000 A 
ATOM      4  C   UNL     1      -1.844   9.956  17.239  0.00  0.00    +0.000 A 
ATOM      5  C   UNL     1      -0.625  10.144  17.900  0.00  0.00    +0.000 A 
ATOM      6  C   UNL     1      -0.520  11.134  18.901  0.00  0.00    +0.000 A 
ATOM      7  O   UNL     1       0.676  11.384  19.524  0.00  0.00    +0.000 OA
ATOM      8  C   UNL     1       1.801  10.896  18.805  0.00  0.00    +0.000 C 
ATOM      9  C   UNL     1       1.682   9.397  18.563  0.00  0.00    +0.000 C 
ATOM     10  C   UNL     1       0.553   9.268  17.530  0.00  0.00    +0.000 C 
ENDROOT
BRANCH   9  11
ATOM     11  C   UNL     1       1.389   8.521  19.806  0.00  0.00    +0.000 C 
ATOM     12  O   UNL     1       0.651   8.935  20.704  0.00  0.00    +0.000 OA
ATOM     13  N   UNL     1       1.865   7.212  19.851  0.00  0.00    +0.000 N 
ATOM     14  C   UNL     1       1.534   6.385  21.023  0.00  0.00    +0.000 C 
ATOM     15  C   UNL     1       2.371   5.102  21.154  0.00  0.00    +0.000 C 
ATOM     16  C   UNL     1       2.331   4.341  19.854  0.00  0.00    +0.000 A 
ATOM     17  C   UNL     1       2.263   2.949  19.786  0.00  0.00    +0.000 A 
ATOM     18  C   UNL     1       2.214   2.312  18.542  0.00  0.00    +0.000 A 
ATOM     19  C   UNL     1       2.249   3.059  17.366  0.00  0.00    +0.000 A 
ATOM     20  C   UNL     1       2.344   4.443  17.427  0.00  0.00    +0.000 A 
ATOM     21  C   UNL     1       2.382   5.088  18.668  0.00  0.00    +0.000 A 
ATOM     22  C   UNL     1       2.555   6.572  18.743  0.00  0.00    +0.000 C 
ENDBRANCH   9  11
BRANCH   1  24
ATOM     23  C   UNL     1      -1.971  12.257  21.645  0.00  0.00    +0.000 C 
ATOM     24  O   UNL     1      -1.749  12.756  20.334  0.00  0.00    +0.000 OA
ENDBRANCH   1  24
TORSDOF 2
ENDMDL
MODEL 6
REMARK VINA RESULT:      -6.6      4.389      7.477
REMARK  Name = 
REMARK  3 active torsions:
REMARK  status: ('A' for Active; 'I' for Inactive)
REMARK    1  A    between atoms: C_1  and  O_2
REMARK    2  A    between atoms: O_2  and  C_3
REMARK    3  A    between atoms: C_11  and  C_12
REMARK                            x       y       z     vdW  Elec       q    Type
REMARK                         _______ _______ _______ _____ _____    ______ ____
ROOT
ATOM      1  C   UNL     1       1.035   9.126  20.462  0.00  0.00    +0.000 A 
ATOM      2  C   UNL     1       0.867   8.631  21.757  0.00  0.00    +0.000 A 
ATOM      3  C   UNL     1       0.110   9.326  22.701  0.00  0.00    +0.000 A 
ATOM      4  C   UNL     1      -0.539  10.503  22.341  0.00  0.00    +0.000 A 
ATOM      5  C   UNL     1      -0.425  10.995  21.036  0.00  0.00    +0.000 A 
ATOM      6  C   UNL     1       0.411  10.331  20.111  0.00  0.00    +0.000 A 
ATOM      7  O   UNL     1       0.591  10.823  18.844  0.00  0.00    +0.000 OA
ATOM      8  C   UNL     1       0.235  12.193  18.713  0.00  0.00    +0.000 C 
ATOM      9  C   UNL     1      -1.215  12.418  19.121  0.00  0.00    +0.000 C 
ATOM     10  C   UNL     1      -1.214  12.224  20.645  0.00  0.00    +0.000 C 
ENDROOT
BRANCH   9  11
ATOM     11  C   UNL     1      -2.268  11.499  18.454  0.00  0.00    +0.000 C 
ATOM     12  O   UNL     1      -1.915  10.531  17.775  0.00  0.00    +0.000 OA
ATOM     13  N   UNL     1      -3.621  11.699  18.721  0.00  0.00    +0.000 N 
ATOM     14  C   UNL     1      -4.599  10.783  18.111  0.00  0.00    +0.000 C 
ATOM     15  C   UNL     1      -6.055  11.275  18.170  0.00  0.00    +0.000 C 
ATOM     16  C   UNL     1      -6.397  11.658  19.587  0.00  0.00    +0.000 A 
ATOM     17  C   UNL     1      -7.641  11.405  20.168  0.00  0.00    +0.000 A 
ATOM     18  C   UNL     1      -7.881  11.777  21.493  0.00  0.00    +0.000 A 
ATOM     19  C   UNL     1      -6.891  12.415  22.237  0.00  0.00    +0.000 A 
ATOM     20  C   UNL     1      -5.661  12.696  21.657  0.00  0.00    +0.000 A 
ATOM     21  C   UNL     1      -5.409  12.317  20.334  0.00  0.00    +0.000 A 
ATOM     22  C   UNL     1      -4.113  12.676  19.678  0.00  0.00    +0.000 C 
ENDBRANCH   9  11
BRANCH   1  24
ATOM     23  C   UNL     1       2.106   7.012  20.146  0.00  0.00    +0.000 C 
ATOM     24  O   UNL     1       1.783   8.306  19.657  0.00  0.00    +0.000 OA
ENDBRANCH   1  24
TORSDOF 2
ENDMDL
MODEL 7
REMARK VINA RESULT:      -6.4      4.453      8.607
REMARK  Name = 
REMARK  3 active torsions:
REMARK  status: ('A' for Active; 'I' for Inactive)
REMARK    1  A    between atoms: C_1  and  O_2
REMARK    2  A    between atoms: O_2  and  C_3
REMARK    3  A    between atoms: C_11  and  C_12
REMARK                            x       y       z     vdW  Elec       q    Type
REMARK                         _______ _______ _______ _____ _____    ______ ____
ROOT
ATOM      1  C   UNL     1      -4.408  11.192  18.301  0.00  0.00    +0.000 A 
ATOM      2  C   UNL     1      -4.090  10.564  17.095  0.00  0.00    +0.000 A 
ATOM      3  C   UNL     1      -2.819  10.686  16.532  0.00  0.00    +0.000 A 
ATOM      4  C   UNL     1      -1.828  11.395  17.202  0.00  0.00    +0.000 A 
ATOM      5  C   UNL     1      -2.108  11.994  18.436  0.00  0.00    +0.000 A 
ATOM      6  C   UNL     1      -3.419  11.937  18.957  0.00  0.00    +0.000 A 
ATOM      7  O   UNL     1      -3.738  12.566  20.133  0.00  0.00    +0.000 OA
ATOM      8  C   UNL     1      -2.804  13.569  20.510  0.00  0.00    +0.000 C 
ATOM      9  C   UNL     1      -1.403  12.985  20.636  0.00  0.00    +0.000 C 
ATOM     10  C   UNL     1      -0.988  12.679  19.189  0.00  0.00    +0.000 C 
ENDROOT
BRANCH   9  11
ATOM     11  C   UNL     1      -1.260  11.724  21.523  0.00  0.00    +0.000 C 
ATOM     12  O   UNL     1      -2.106  11.463  22.383  0.00  0.00    +0.000 OA
ATOM     13  N   UNL     1      -0.234  10.816  21.266  0.00  0.00    +0.000 N 
ATOM     14  C   UNL     1      -0.148   9.602  22.094  0.00  0.00    +0.000 C 
ATOM     15  C   UNL     1       1.187   8.847  21.979  0.00  0.00    +0.000 C 
ATOM     16  C   UNL     1       1.502   8.603  20.526  0.00  0.00    +0.000 A 
ATOM     17  C   UNL     1       2.084   7.424  20.057  0.00  0.00    +0.000 A 
ATOM     18  C   UNL     1       2.335   7.264  18.692  0.00  0.00    +0.000 A 
ATOM     19  C   UNL     1       2.022   8.282  17.793  0.00  0.00    +0.000 A 
ATOM     20  C   UNL     1       1.469   9.468  18.256  0.00  0.00    +0.000 A 
ATOM     21  C   UNL     1       1.205   9.632  19.620  0.00  0.00    +0.000 A 
ATOM     22  C   UNL     1       0.674  10.932  20.137  0.00  0.00    +0.000 C 
ENDBRANCH   9  11
BRANCH   1  24
ATOM     23  C   UNL     1      -6.747  11.628  18.067  0.00  0.00    +0.000 C 
ATOM     24  O   UNL     1      -5.689  10.945  18.724  0.00  0.00    +0.000 OA
ENDBRANCH   1  24
TORSDOF 2
ENDMDL
MODEL 8
REMARK VINA RESULT:      -6.4      4.495      7.632
REMARK  Name = 
REMARK  3 active torsions:
REMARK  status: ('A' for Active; 'I' for Inactive)
REMARK    1  A    between atoms: C_1  and  O_2
REMARK    2  A    between atoms: O_2  and  C_3
REMARK    3  A    between atoms: C_11  and  C_12
REMARK                            x       y       z     vdW  Elec       q    Type
REMARK                         _______ _______ _______ _____ _____    ______ ____
ROOT
ATOM      1  C   UNL     1       0.959   9.619  19.256  0.00  0.00    +0.000 A 
ATOM      2  C   UNL     1       1.195   8.674  20.256  0.00  0.00    +0.000 A 
ATOM      3  C   UNL     1       0.773   8.893  21.569  0.00  0.00    +0.000 A 
ATOM      4  C   UNL     1       0.057  10.042  21.885  0.00  0.00    +0.000 A 
ATOM      5  C   UNL     1      -0.234  10.983  20.891  0.00  0.00    +0.000 A 
ATOM      6  C   UNL     1       0.269  10.794  19.584  0.00  0.00    +0.000 A 
ATOM      7  O   UNL     1       0.053  11.728  18.604  0.00  0.00    +0.000 OA
ATOM      8  C   UNL     1      -0.313  13.006  19.110  0.00  0.00    +0.000 C 
ATOM      9  C   UNL     1      -1.564  12.908  19.974  0.00  0.00    +0.000 C 
ATOM     10  C   UNL     1      -1.094  12.177  21.240  0.00  0.00    +0.000 C 
ENDROOT
BRANCH   9  11
ATOM     11  C   UNL     1      -2.780  12.185  19.345  0.00  0.00    +0.000 C 
ATOM     12  O   UNL     1      -2.617  11.327  18.474  0.00  0.00    +0.000 OA
ATOM     13  N   UNL     1      -4.057  12.421  19.852  0.00  0.00    +0.000 N 
ATOM     14  C   UNL     1      -5.191  11.687  19.267  0.00  0.00    +0.000 C 
ATOM     15  C   UNL     1      -6.573  12.252  19.634  0.00  0.00    +0.000 C 
ATOM     16  C   UNL     1      -6.669  12.409  21.130  0.00  0.00    +0.000 A 
ATOM     17  C   UNL     1      -7.833  12.140  21.853  0.00  0.00    +0.000 A 
ATOM     18  C   UNL     1      -7.843  12.295  23.242  0.00  0.00    +0.000 A 
ATOM     19  C   UNL     1      -6.702  12.733  23.911  0.00  0.00    +0.000 A 
ATOM     20  C   UNL     1      -5.550  13.030  23.195  0.00  0.00    +0.000 A 
ATOM     21  C   UNL     1      -5.528  12.867  21.806  0.00  0.00    +0.000 A 
ATOM     22  C   UNL     1      -4.316  13.250  21.018  0.00  0.00    +0.000 C 
ENDBRANCH   9  11
BRANCH   1  24
ATOM     23  C   UNL     1       2.421   8.233  17.968  0.00  0.00    +0.000 C 
ATOM     24  O   UNL     1       1.413   9.233  18.021  0.00  0.00    +0.000 OA
ENDBRANCH   1  24
TORSDOF 2
ENDMDL
MODEL 9
REMARK VINA RESULT:      -6.4      1.784      2.093
REMARK  Name = 
REMARK  3 active torsions:
REMARK  status: ('A' for Active; 'I' for Inactive)
REMARK    1  A    between atoms: C_1  and  O_2
REMARK    2  A    between atoms: O_2  and  C_3
REMARK    3  A    between atoms: C_11  and  C_12
REMARK                            x       y       z     vdW  Elec       q    Type
REMARK                         _______ _______ _______ _____ _____    ______ ____
ROOT
ATOM      1  C   UNL     1       5.651   4.999  18.819  0.00  0.00    +0.000 A 
ATOM      2  C   UNL     1       6.090   4.143  17.807  0.00  0.00    +0.000 A 
ATOM      3  C   UNL     1       5.215   3.683  16.822  0.00  0.00    +0.000 A 
ATOM      4  C   UNL     1       3.895   4.122  16.806  0.00  0.00    +0.000 A 
ATOM      5  C   UNL     1       3.443   5.018  17.782  0.00  0.00    +0.000 A 
ATOM      6  C   UNL     1       4.311   5.412  18.823  0.00  0.00    +0.000 A 
ATOM      7  O   UNL     1       3.879   6.239  19.827  0.00  0.00    +0.000 OA
ATOM      8  C   UNL     1       2.463   6.294  19.945  0.00  0.00    +0.000 C 
ATOM      9  C   UNL     1       1.827   6.744  18.636  0.00  0.00    +0.000 C 
ATOM     10  C   UNL     1       2.031   5.553  17.687  0.00  0.00    +0.000 C 
ENDROOT
BRANCH   9  11
ATOM     11  C   UNL     1       2.388   8.044  18.009  0.00  0.00    +0.000 C 
ATOM     12  O   UNL     1       3.171   7.993  17.057  0.00  0.00    +0.000 OA
ATOM     13  N   UNL     1       1.911   9.278  18.447  0.00  0.00    +0.000 N 
ATOM     14  C   UNL     1       2.427  10.498  17.803  0.00  0.00    +0.000 C 
ATOM     15  C   UNL     1       2.122  11.798  18.566  0.00  0.00    +0.000 C 
ATOM     16  C   UNL     1       0.648  11.862  18.877  0.00  0.00    +0.000 A 
ATOM     17  C   UNL     1      -0.093  13.044  18.822  0.00  0.00    +0.000 A 
ATOM     18  C   UNL     1      -1.460  13.024  19.111  0.00  0.00    +0.000 A 
ATOM     19  C   UNL     1      -2.088  11.833  19.470  0.00  0.00    +0.000 A 
ATOM     20  C   UNL     1      -1.351  10.660  19.554  0.00  0.00    +0.000 A 
ATOM     21  C   UNL     1       0.016  10.669  19.255  0.00  0.00    +0.000 A 
ATOM     22  C   UNL     1       0.832   9.425  19.410  0.00  0.00    +0.000 C 
ENDBRANCH   9  11
BRANCH   1  24
ATOM     23  C   UNL     1       7.846   5.895  19.132  0.00  0.00    +0.000 C 
ATOM     24  O   UNL     1       6.645   5.375  19.685  0.00  0.00    +0.000 OA
ENDBRANCH   1  24
TORSDOF 2
ENDMDL
