MODEL 1
REMARK VINA RESULT:      -9.1      0.000      0.000
REMARK  Name = 
REMARK  7 active torsions:
REMARK  status: ('A' for Active; 'I' for Inactive)
REMARK    1  A    between atoms: C_1  and  O_2
REMARK    2  A    between atoms: O_2  and  C_3
REMARK    3  A    between atoms: C_6  and  C_7
REMARK    4  A    between atoms: C_12  and  C_13
REMARK    5  A    between atoms: C_19  and  N_20
REMARK    6  A    between atoms: N_20  and  C_21
REMARK    7  A    between atoms: C_27  and  O_28
REMARK                            x       y       z     vdW  Elec       q    Type
REMARK                         _______ _______ _______ _____ _____    ______ ____
ROOT
ATOM      1  C   UNL     1       3.178   6.925  18.340  0.00  0.00    +0.000 A 
ATOM      2  N   UNL     1       2.723   8.145  17.895  0.00  0.00    +0.000 NA
ATOM      3  C   UNL     1       1.974   8.611  18.866  0.00  0.00    +0.000 A 
ATOM      4  C   UNL     1       1.264   9.842  18.966  0.00  0.00    +0.000 A 
ATOM      5  C   UNL     1       0.549  10.121  20.074  0.00  0.00    +0.000 A 
ATOM      6  C   UNL     1       0.477   9.183  21.193  0.00  0.00    +0.000 A 
ATOM      7  C   UNL     1       1.169   8.028  21.092  0.00  0.00    +0.000 A 
ATOM      8  N   UNL     1       1.910   7.734  19.952  0.00  0.00    +0.000 N 
ATOM      9  C   UNL     1       2.730   6.650  19.638  0.00  0.00    +0.000 A 
ENDROOT
BRANCH   1  13
ATOM     10  C   UNL     1       5.729   4.507  15.878  0.00  0.00    +0.000 A 
ATOM     11  C   UNL     1       4.464   4.051  16.268  0.00  0.00    +0.000 A 
ATOM     12  C   UNL     1       3.625   4.832  17.065  0.00  0.00    +0.000 A 
ATOM     13  C   UNL     1       4.041   6.089  17.514  0.00  0.00    +0.000 A 
ATOM     14  C   UNL     1       5.299   6.560  17.112  0.00  0.00    +0.000 A 
ATOM     15  C   UNL     1       6.139   5.774  16.305  0.00  0.00    +0.000 A 
BRANCH  10  17
ATOM     16  C   UNL     1       6.342   3.753  13.691  0.00  0.00    +0.000 C 
ATOM     17  O   UNL     1       6.396   3.603  15.100  0.00  0.00    +0.000 OA
ENDBRANCH  10  17
BRANCH  15  18
ATOM     18  O   UNL     1       7.362   6.281  15.954  0.00  0.00    +0.000 OA
ATOM     19  H   UNL     1       7.278   6.751  15.107  0.00  0.00    +0.000 HD
ENDBRANCH  15  18
ENDBRANCH   1  13
BRANCH   6  20
ATOM     20  C   UNL     1      -0.325   9.521  22.418  0.00  0.00    +0.000 C 
ATOM     21  F   UNL     1      -1.087  10.633  22.269  0.00  0.00    +0.000 F 
ATOM     22  F   UNL     1      -1.164   8.508  22.753  0.00  0.00    +0.000 F 
ATOM     23  F   UNL     1       0.479   9.733  23.491  0.00  0.00    +0.000 F 
ENDBRANCH   6  20
BRANCH   9  24
ATOM     24  N   UNL     1       3.099   5.642  20.492  0.00  0.00    +0.000 N 
ATOM     25  H   UNL     1       4.102   5.580  20.669  0.00  0.00    +0.000 HD
BRANCH  24  26
ATOM     26  C   UNL     1       2.417   4.371  20.702  0.00  0.00    +0.000 C 
ATOM     27  C   UNL     1       1.065   4.270  20.004  0.00  0.00    +0.000 C 
ATOM     28  C   UNL     1       0.859   2.783  19.741  0.00  0.00    +0.000 C 
ATOM     29  C   UNL     1       2.246   2.159  19.665  0.00  0.00    +0.000 C 
ATOM     30  C   UNL     1       3.238   3.242  20.065  0.00  0.00    +0.000 C 
ENDBRANCH  24  26
ENDBRANCH   9  24
TORSDOF 6
ENDMDL
MODEL 2
REMARK VINA RESULT:      -8.7      0.806      1.609
REMARK  Name = 
REMARK  7 active torsions:
REMARK  status: ('A' for Active; 'I' for Inactive)
REMARK    1  A    between atoms: C_1  and  O_2
REMARK    2  A    between atoms: O_2  and  C_3
REMARK    3  A    between atoms: C_6  and  C_7
REMARK    4  A    between atoms: C_12  and  C_13
REMARK    5  A    between atoms: C_19  and  N_20
REMARK    6  A    between atoms: N_20  and  C_21
REMARK    7  A    between atoms: C_27  and  O_28
REMARK                            x       y       z     vdW  Elec       q    Type
REMARK                         _______ _______ _______ _____ _____    ______ ____
ROOT
ATOM      1  C   UNL     1       3.258   6.963  18.038  0.00  0.00    +0.000 A 
ATOM      2  N   UNL     1       2.747   8.175  17.637  0.00  0.00    +0.000 NA
ATOM      3  C   UNL     1       2.026   8.599  18.648  0.00  0.00    +0.000 A 
ATOM      4  C   UNL     1       1.284   9.805  18.802  0.00  0.00    +0.000 A 
ATOM      5  C   UNL     1       0.610  10.041  19.945  0.00  0.00    +0.000 A 
ATOM      6  C   UNL     1       0.615   9.081  21.048  0.00  0.00    +0.000 A 
ATOM      7  C   UNL     1       1.338   7.951  20.894  0.00  0.00    +0.000 A 
ATOM      8  N   UNL     1       2.037   7.701  19.718  0.00  0.00    +0.000 N 
ATOM      9  C   UNL     1       2.876   6.650  19.348  0.00  0.00    +0.000 A 
ENDROOT
BRANCH   1  13
ATOM     10  C   UNL     1       5.781   4.600  15.494  0.00  0.00    +0.000 A 
ATOM     11  C   UNL     1       5.743   5.994  15.374  0.00  0.00    +0.000 A 
ATOM     12  C   UNL     1       4.929   6.772  16.199  0.00  0.00    +0.000 A 
ATOM     13  C   UNL     1       4.110   6.170  17.159  0.00  0.00    +0.000 A 
ATOM     14  C   UNL     1       4.157   4.775  17.298  0.00  0.00    +0.000 A 
ATOM     15  C   UNL     1       4.983   3.995  16.469  0.00  0.00    +0.000 A 
BRANCH  10  17
ATOM     16  C   UNL     1       6.157   3.714  13.303  0.00  0.00    +0.000 C 
ATOM     17  O   UNL     1       6.638   4.019  14.602  0.00  0.00    +0.000 OA
ENDBRANCH  10  17
BRANCH  15  18
ATOM     18  O   UNL     1       4.978   2.637  16.643  0.00  0.00    +0.000 OA
ATOM     19  H   UNL     1       5.323   2.214  15.839  0.00  0.00    +0.000 HD
ENDBRANCH  15  18
ENDBRANCH   1  13
BRANCH   6  20
ATOM     20  C   UNL     1      -0.143   9.371  22.312  0.00  0.00    +0.000 C 
ATOM     21  F   UNL     1      -1.061   8.420  22.615  0.00  0.00    +0.000 F 
ATOM     22  F   UNL     1       0.692   9.470  23.377  0.00  0.00    +0.000 F 
ATOM     23  F   UNL     1      -0.809  10.551  22.228  0.00  0.00    +0.000 F 
ENDBRANCH   6  20
BRANCH   9  24
ATOM     24  N   UNL     1       3.313   5.639  20.166  0.00  0.00    +0.000 N 
ATOM     25  H   UNL     1       4.298   5.698  20.427  0.00  0.00    +0.000 HD
BRANCH  24  26
ATOM     26  C   UNL     1       2.800   4.275  20.232  0.00  0.00    +0.000 C 
ATOM     27  C   UNL     1       2.426   3.821  21.638  0.00  0.00    +0.000 C 
ATOM     28  C   UNL     1       1.339   2.771  21.445  0.00  0.00    +0.000 C 
ATOM     29  C   UNL     1       0.665   3.083  20.116  0.00  0.00    +0.000 C 
ATOM     30  C   UNL     1       1.477   4.191  19.460  0.00  0.00    +0.000 C 
ENDBRANCH  24  26
ENDBRANCH   9  24
TORSDOF 6
ENDMDL
MODEL 3
REMARK VINA RESULT:      -8.7      0.645      1.453
REMARK  Name = 
REMARK  7 active torsions:
REMARK  status: ('A' for Active; 'I' for Inactive)
REMARK    1  A    between atoms: C_1  and  O_2
REMARK    2  A    between atoms: O_2  and  C_3
REMARK    3  A    between atoms: C_6  and  C_7
REMARK    4  A    between atoms: C_12  and  C_13
REMARK    5  A    between atoms: C_19  and  N_20
REMARK    6  A    between atoms: N_20  and  C_21
REMARK    7  A    between atoms: C_27  and  O_28
REMARK                            x       y       z     vdW  Elec       q    Type
REMARK                         _______ _______ _______ _____ _____    ______ ____
ROOT
ATOM      1  C   UNL     1       3.130   6.933  18.217  0.00  0.00    +0.000 A 
ATOM      2  N   UNL     1       2.653   8.145  17.776  0.00  0.00    +0.000 NA
ATOM      3  C   UNL     1       1.940   8.621  18.770  0.00  0.00    +0.000 A 
ATOM      4  C   UNL     1       1.230   9.850  18.884  0.00  0.00    +0.000 A 
ATOM      5  C   UNL     1       0.559  10.140  20.017  0.00  0.00    +0.000 A 
ATOM      6  C   UNL     1       0.536   9.215  21.149  0.00  0.00    +0.000 A 
ATOM      7  C   UNL     1       1.228   8.062  21.033  0.00  0.00    +0.000 A 
ATOM      8  N   UNL     1       1.924   7.756  19.868  0.00  0.00    +0.000 N 
ATOM      9  C   UNL     1       2.736   6.672  19.535  0.00  0.00    +0.000 A 
ENDROOT
BRANCH   1  13
ATOM     10  C   UNL     1       5.597   4.426  15.759  0.00  0.00    +0.000 A 
ATOM     11  C   UNL     1       5.600   5.816  15.598  0.00  0.00    +0.000 A 
ATOM     12  C   UNL     1       4.805   6.640  16.396  0.00  0.00    +0.000 A 
ATOM     13  C   UNL     1       3.963   6.090  17.367  0.00  0.00    +0.000 A 
ATOM     14  C   UNL     1       3.969   4.700  17.546  0.00  0.00    +0.000 A 
ATOM     15  C   UNL     1       4.775   3.872  16.745  0.00  0.00    +0.000 A 
BRANCH  10  17
ATOM     16  C   UNL     1       6.155   3.860  13.501  0.00  0.00    +0.000 C 
ATOM     17  O   UNL     1       6.441   3.794  14.888  0.00  0.00    +0.000 OA
ENDBRANCH  10  17
BRANCH  15  18
ATOM     18  O   UNL     1       4.730   2.520  16.958  0.00  0.00    +0.000 OA
ATOM     19  H   UNL     1       5.559   2.123  16.645  0.00  0.00    +0.000 HD
ENDBRANCH  15  18
ENDBRANCH   1  13
BRANCH   6  20
ATOM     20  C   UNL     1      -0.218   9.564  22.400  0.00  0.00    +0.000 C 
ATOM     21  F   UNL     1       0.582   9.702  23.486  0.00  0.00    +0.000 F 
ATOM     22  F   UNL     1      -0.898  10.730  22.258  0.00  0.00    +0.000 F 
ATOM     23  F   UNL     1      -1.137   8.612  22.704  0.00  0.00    +0.000 F 
ENDBRANCH   6  20
BRANCH   9  24
ATOM     24  N   UNL     1       3.143   5.676  20.386  0.00  0.00    +0.000 N 
ATOM     25  H   UNL     1       4.147   5.493  20.378  0.00  0.00    +0.000 HD
BRANCH  24  26
ATOM     26  C   UNL     1       2.371   4.519  20.822  0.00  0.00    +0.000 C 
ATOM     27  C   UNL     1       1.005   4.398  20.156  0.00  0.00    +0.000 C 
ATOM     28  C   UNL     1       0.684   2.909  20.166  0.00  0.00    +0.000 C 
ATOM     29  C   UNL     1       2.019   2.176  20.203  0.00  0.00    +0.000 C 
ATOM     30  C   UNL     1       3.095   3.234  20.400  0.00  0.00    +0.000 C 
ENDBRANCH  24  26
ENDBRANCH   9  24
TORSDOF 6
ENDMDL
MODEL 4
REMARK VINA RESULT:      -8.0      0.681      1.200
REMARK  Name = 
REMARK  7 active torsions:
REMARK  status: ('A' for Active; 'I' for Inactive)
REMARK    1  A    between atoms: C_1  and  O_2
REMARK    2  A    between atoms: O_2  and  C_3
REMARK    3  A    between atoms: C_6  and  C_7
REMARK    4  A    between atoms: C_12  and  C_13
REMARK    5  A    between atoms: C_19  and  N_20
REMARK    6  A    between atoms: N_20  and  C_21
REMARK    7  A    between atoms: C_27  and  O_28
REMARK                            x       y       z     vdW  Elec       q    Type
REMARK                         _______ _______ _______ _____ _____    ______ ____
ROOT
ATOM      1  C   UNL     1       3.240   6.998  18.203  0.00  0.00    +0.000 A 
ATOM      2  N   UNL     1       2.797   8.223  17.761  0.00  0.00    +0.000 NA
ATOM      3  C   UNL     1       2.034   8.684  18.724  0.00  0.00    +0.000 A 
ATOM      4  C   UNL     1       1.328   9.918  18.824  0.00  0.00    +0.000 A 
ATOM      5  C   UNL     1       0.597  10.190  19.923  0.00  0.00    +0.000 A 
ATOM      6  C   UNL     1       0.504   9.243  21.033  0.00  0.00    +0.000 A 
ATOM      7  C   UNL     1       1.192   8.086  20.932  0.00  0.00    +0.000 A 
ATOM      8  N   UNL     1       1.950   7.798  19.801  0.00  0.00    +0.000 N 
ATOM      9  C   UNL     1       2.770   6.713  19.491  0.00  0.00    +0.000 A 
ENDROOT
BRANCH   1  13
ATOM     10  C   UNL     1       5.820   4.590  15.762  0.00  0.00    +0.000 A 
ATOM     11  C   UNL     1       4.526   4.163  16.077  0.00  0.00    +0.000 A 
ATOM     12  C   UNL     1       3.677   4.941  16.867  0.00  0.00    +0.000 A 
ATOM     13  C   UNL     1       4.112   6.165  17.383  0.00  0.00    +0.000 A 
ATOM     14  C   UNL     1       5.401   6.608  17.055  0.00  0.00    +0.000 A 
ATOM     15  C   UNL     1       6.252   5.825  16.255  0.00  0.00    +0.000 A 
BRANCH  10  17
ATOM     16  C   UNL     1       6.435   3.850  13.570  0.00  0.00    +0.000 C 
ATOM     17  O   UNL     1       6.493   3.694  14.978  0.00  0.00    +0.000 OA
ENDBRANCH  10  17
BRANCH  15  18
ATOM     18  O   UNL     1       7.504   6.304  15.978  0.00  0.00    +0.000 OA
ATOM     19  H   UNL     1       7.770   6.919  16.682  0.00  0.00    +0.000 HD
ENDBRANCH  15  18
ENDBRANCH   1  13
BRANCH   6  20
ATOM     20  C   UNL     1      -0.316   9.573  22.247  0.00  0.00    +0.000 C 
ATOM     21  F   UNL     1       0.435   9.866  23.337  0.00  0.00    +0.000 F 
ATOM     22  F   UNL     1      -1.123  10.641  22.023  0.00  0.00    +0.000 F 
ATOM     23  F   UNL     1      -1.126   8.539  22.592  0.00  0.00    +0.000 F 
ENDBRANCH   6  20
BRANCH   9  24
ATOM     24  N   UNL     1       3.121   5.696  20.342  0.00  0.00    +0.000 N 
ATOM     25  H   UNL     1       4.008   5.834  20.828  0.00  0.00    +0.000 HD
BRANCH  24  26
ATOM     26  C   UNL     1       2.764   4.287  20.226  0.00  0.00    +0.000 C 
ATOM     27  C   UNL     1       3.960   3.356  20.061  0.00  0.00    +0.000 C 
ATOM     28  C   UNL     1       3.511   2.020  20.638  0.00  0.00    +0.000 C 
ATOM     29  C   UNL     1       2.423   2.330  21.658  0.00  0.00    +0.000 C 
ATOM     30  C   UNL     1       2.117   3.816  21.534  0.00  0.00    +0.000 C 
ENDBRANCH  24  26
ENDBRANCH   9  24
TORSDOF 6
ENDMDL
MODEL 5
REMARK VINA RESULT:      -7.7      1.199      1.507
REMARK  Name = 
REMARK  7 active torsions:
REMARK  status: ('A' for Active; 'I' for Inactive)
REMARK    1  A    between atoms: C_1  and  O_2
REMARK    2  A    between atoms: O_2  and  C_3
REMARK    3  A    between atoms: C_6  and  C_7
REMARK    4  A    between atoms: C_12  and  C_13
REMARK    5  A    between atoms: C_19  and  N_20
REMARK    6  A    between atoms: N_20  and  C_21
REMARK    7  A    between atoms: C_27  and  O_28
REMARK                            x       y       z     vdW  Elec       q    Type
REMARK                         _______ _______ _______ _____ _____    ______ ____
ROOT
ATOM      1  C   UNL     1       2.990   7.472  18.425  0.00  0.00    +0.000 A 
ATOM      2  N   UNL     1       2.742   8.706  17.871  0.00  0.00    +0.000 NA
ATOM      3  C   UNL     1       1.919   9.301  18.702  0.00  0.00    +0.000 A 
ATOM      4  C   UNL     1       1.345  10.604  18.648  0.00  0.00    +0.000 A 
ATOM      5  C   UNL     1       0.516  11.017  19.628  0.00  0.00    +0.000 A 
ATOM      6  C   UNL     1       0.181  10.154  20.760  0.00  0.00    +0.000 A 
ATOM      7  C   UNL     1       0.747   8.929  20.806  0.00  0.00    +0.000 A 
ATOM      8  N   UNL     1       1.605   8.497  19.800  0.00  0.00    +0.000 N 
ATOM      9  C   UNL     1       2.335   7.317  19.653  0.00  0.00    +0.000 A 
ENDROOT
BRANCH   1  13
ATOM     10  C   UNL     1       5.587   4.627  16.535  0.00  0.00    +0.000 A 
ATOM     11  C   UNL     1       5.156   5.770  15.852  0.00  0.00    +0.000 A 
ATOM     12  C   UNL     1       4.314   6.703  16.460  0.00  0.00    +0.000 A 
ATOM     13  C   UNL     1       3.862   6.506  17.768  0.00  0.00    +0.000 A 
ATOM     14  C   UNL     1       4.306   5.373  18.464  0.00  0.00    +0.000 A 
ATOM     15  C   UNL     1       5.158   4.437  17.852  0.00  0.00    +0.000 A 
BRANCH  10  17
ATOM     16  C   UNL     1       6.721   4.263  14.458  0.00  0.00    +0.000 C 
ATOM     17  O   UNL     1       6.405   3.839  15.774  0.00  0.00    +0.000 OA
ENDBRANCH  10  17
BRANCH  15  18
ATOM     18  O   UNL     1       5.549   3.343  18.577  0.00  0.00    +0.000 OA
ATOM     19  H   UNL     1       6.256   2.882  18.096  0.00  0.00    +0.000 HD
ENDBRANCH  15  18
ENDBRANCH   1  13
BRANCH   6  20
ATOM     20  C   UNL     1      -0.744  10.641  21.839  0.00  0.00    +0.000 C 
ATOM     21  F   UNL     1      -1.887  11.187  21.357  0.00  0.00    +0.000 F 
ATOM     22  F   UNL     1      -1.106   9.632  22.671  0.00  0.00    +0.000 F 
ATOM     23  F   UNL     1      -0.148  11.586  22.610  0.00  0.00    +0.000 F 
ENDBRANCH   6  20
BRANCH   9  24
ATOM     24  N   UNL     1       2.463   6.324  20.590  0.00  0.00    +0.000 N 
ATOM     25  H   UNL     1       3.424   6.130  20.876  0.00  0.00    +0.000 HD
BRANCH  24  26
ATOM     26  C   UNL     1       1.582   5.180  20.789  0.00  0.00    +0.000 C 
ATOM     27  C   UNL     1       1.186   4.471  19.499  0.00  0.00    +0.000 C 
ATOM     28  C   UNL     1       0.909   3.028  19.902  0.00  0.00    +0.000 C 
ATOM     29  C   UNL     1       1.726   2.764  21.160  0.00  0.00    +0.000 C 
ATOM     30  C   UNL     1       2.324   4.097  21.583  0.00  0.00    +0.000 C 
ENDBRANCH  24  26
ENDBRANCH   9  24
TORSDOF 6
ENDMDL
MODEL 6
REMARK VINA RESULT:      -7.4      4.818      7.333
REMARK  Name = 
REMARK  7 active torsions:
REMARK  status: ('A' for Active; 'I' for Inactive)
REMARK    1  A    between atoms: C_1  and  O_2
REMARK    2  A    between atoms: O_2  and  C_3
REMARK    3  A    between atoms: C_6  and  C_7
REMARK    4  A    between atoms: C_12  and  C_13
REMARK    5  A    between atoms: C_19  and  N_20
REMARK    6  A    between atoms: N_20  and  C_21
REMARK    7  A    between atoms: C_27  and  O_28
REMARK                            x       y       z     vdW  Elec       q    Type
REMARK                         _______ _______ _______ _____ _____    ______ ____
ROOT
ATOM      1  C   UNL     1       2.459   7.800  19.027  0.00  0.00    +0.000 A 
ATOM      2  N   UNL     1       2.791   8.271  17.778  0.00  0.00    +0.000 NA
ATOM      3  C   UNL     1       3.674   7.421  17.310  0.00  0.00    +0.000 A 
ATOM      4  C   UNL     1       4.347   7.396  16.054  0.00  0.00    +0.000 A 
ATOM      5  C   UNL     1       5.224   6.410  15.778  0.00  0.00    +0.000 A 
ATOM      6  C   UNL     1       5.513   5.352  16.744  0.00  0.00    +0.000 A 
ATOM      7  C   UNL     1       4.855   5.378  17.923  0.00  0.00    +0.000 A 
ATOM      8  N   UNL     1       3.947   6.391  18.214  0.00  0.00    +0.000 N 
ATOM      9  C   UNL     1       3.125   6.603  19.321  0.00  0.00    +0.000 A 
ENDROOT
BRANCH   1  13
ATOM     10  C   UNL     1      -0.347   9.912  21.493  0.00  0.00    +0.000 A 
ATOM     11  C   UNL     1       0.548   8.992  22.050  0.00  0.00    +0.000 A 
ATOM     12  C   UNL     1       1.468   8.302  21.257  0.00  0.00    +0.000 A 
ATOM     13  C   UNL     1       1.502   8.502  19.874  0.00  0.00    +0.000 A 
ATOM     14  C   UNL     1       0.621   9.437  19.312  0.00  0.00    +0.000 A 
ATOM     15  C   UNL     1      -0.300  10.134  20.114  0.00  0.00    +0.000 A 
BRANCH  10  17
ATOM     16  C   UNL     1      -0.952  11.844  22.770  0.00  0.00    +0.000 C 
ATOM     17  O   UNL     1      -1.163  10.483  22.430  0.00  0.00    +0.000 OA
ENDBRANCH  10  17
BRANCH  15  18
ATOM     18  O   UNL     1      -1.144  11.026  19.508  0.00  0.00    +0.000 OA
ATOM     19  H   UNL     1      -1.319  11.761  20.119  0.00  0.00    +0.000 HD
ENDBRANCH  15  18
ENDBRANCH   1  13
BRANCH   6  20
ATOM     20  C   UNL     1       6.494   4.264  16.409  0.00  0.00    +0.000 C 
ATOM     21  F   UNL     1       5.901   3.081  16.116  0.00  0.00    +0.000 F 
ATOM     22  F   UNL     1       7.258   4.601  15.340  0.00  0.00    +0.000 F 
ATOM     23  F   UNL     1       7.347   4.035  17.441  0.00  0.00    +0.000 F 
ENDBRANCH   6  20
BRANCH   9  24
ATOM     24  N   UNL     1       2.938   5.736  20.367  0.00  0.00    +0.000 N 
ATOM     25  H   UNL     1       3.799   5.387  20.789  0.00  0.00    +0.000 HD
BRANCH  24  26
ATOM     26  C   UNL     1       1.811   4.834  20.574  0.00  0.00    +0.000 C 
ATOM     27  C   UNL     1       1.400   4.059  19.327  0.00  0.00    +0.000 C 
ATOM     28  C   UNL     1       0.772   2.770  19.844  0.00  0.00    +0.000 C 
ATOM     29  C   UNL     1       1.382   2.510  21.215  0.00  0.00    +0.000 C 
ATOM     30  C   UNL     1       2.213   3.735  21.566  0.00  0.00    +0.000 C 
ENDBRANCH  24  26
ENDBRANCH   9  24
TORSDOF 6
ENDMDL
MODEL 7
REMARK VINA RESULT:      -7.4      4.833      7.322
REMARK  Name = 
REMARK  7 active torsions:
REMARK  status: ('A' for Active; 'I' for Inactive)
REMARK    1  A    between atoms: C_1  and  O_2
REMARK    2  A    between atoms: O_2  and  C_3
REMARK    3  A    between atoms: C_6  and  C_7
REMARK    4  A    between atoms: C_12  and  C_13
REMARK    5  A    between atoms: C_19  and  N_20
REMARK    6  A    between atoms: N_20  and  C_21
REMARK    7  A    between atoms: C_27  and  O_28
REMARK                            x       y       z     vdW  Elec       q    Type
REMARK                         _______ _______ _______ _____ _____    ______ ____
ROOT
ATOM      1  C   UNL     1       2.631   7.792  18.612  0.00  0.00    +0.000 A 
ATOM      2  N   UNL     1       2.939   8.189  17.332  0.00  0.00    +0.000 NA
ATOM      3  C   UNL     1       3.842   7.335  16.912  0.00  0.00    +0.000 A 
ATOM      4  C   UNL     1       4.505   7.246  15.654  0.00  0.00    +0.000 A 
ATOM      5  C   UNL     1       5.409   6.270  15.434  0.00  0.00    +0.000 A 
ATOM      6  C   UNL     1       5.736   5.286  16.465  0.00  0.00    +0.000 A 
ATOM      7  C   UNL     1       5.086   5.372  17.645  0.00  0.00    +0.000 A 
ATOM      8  N   UNL     1       4.152   6.376  17.879  0.00  0.00    +0.000 N 
ATOM      9  C   UNL     1       3.333   6.637  18.977  0.00  0.00    +0.000 A 
ENDROOT
BRANCH   1  13
ATOM     10  C   UNL     1      -0.205   9.984  20.972  0.00  0.00    +0.000 A 
ATOM     11  C   UNL     1       0.508   8.912  21.519  0.00  0.00    +0.000 A 
ATOM     12  C   UNL     1       1.436   8.196  20.761  0.00  0.00    +0.000 A 
ATOM     13  C   UNL     1       1.660   8.522  19.420  0.00  0.00    +0.000 A 
ATOM     14  C   UNL     1       0.963   9.607  18.871  0.00  0.00    +0.000 A 
ATOM     15  C   UNL     1       0.033  10.330  19.638  0.00  0.00    +0.000 A 
BRANCH  10  17
ATOM     16  C   UNL     1      -0.883  10.278  23.249  0.00  0.00    +0.000 C 
ATOM     17  O   UNL     1      -1.061  10.558  21.870  0.00  0.00    +0.000 OA
ENDBRANCH  10  17
BRANCH  15  18
ATOM     18  O   UNL     1      -0.627  11.373  19.044  0.00  0.00    +0.000 OA
ATOM     19  H   UNL     1      -1.579  11.183  19.041  0.00  0.00    +0.000 HD
ENDBRANCH  15  18
ENDBRANCH   1  13
BRANCH   6  20
ATOM     20  C   UNL     1       6.745   4.207  16.192  0.00  0.00    +0.000 C 
ATOM     21  F   UNL     1       7.614   4.017  17.215  0.00  0.00    +0.000 F 
ATOM     22  F   UNL     1       6.141   3.014  15.959  0.00  0.00    +0.000 F 
ATOM     23  F   UNL     1       7.485   4.491  15.090  0.00  0.00    +0.000 F 
ENDBRANCH   6  20
BRANCH   9  24
ATOM     24  N   UNL     1       3.179   5.835  20.080  0.00  0.00    +0.000 N 
ATOM     25  H   UNL     1       3.769   6.086  20.874  0.00  0.00    +0.000 HD
BRANCH  24  26
ATOM     26  C   UNL     1       2.784   4.432  20.102  0.00  0.00    +0.000 C 
ATOM     27  C   UNL     1       2.248   3.959  21.447  0.00  0.00    +0.000 C 
ATOM     28  C   UNL     1       1.298   2.813  21.121  0.00  0.00    +0.000 C 
ATOM     29  C   UNL     1       0.803   3.051  19.701  0.00  0.00    +0.000 C 
ATOM     30  C   UNL     1       1.603   4.220  19.146  0.00  0.00    +0.000 C 
ENDBRANCH  24  26
ENDBRANCH   9  24
TORSDOF 6
ENDMDL
MODEL 8
REMARK VINA RESULT:      -7.4      4.763      7.356
REMARK  Name = 
REMARK  7 active torsions:
REMARK  status: ('A' for Active; 'I' for Inactive)
REMARK    1  A    between atoms: C_1  and  O_2
REMARK    2  A    between atoms: O_2  and  C_3
REMARK    3  A    between atoms: C_6  and  C_7
REMARK    4  A    between atoms: C_12  and  C_13
REMARK    5  A    between atoms: C_19  and  N_20
REMARK    6  A    between atoms: N_20  and  C_21
REMARK    7  A    between atoms: C_27  and  O_28
REMARK                            x       y       z     vdW  Elec       q    Type
REMARK                         _______ _______ _______ _____ _____    ______ ____
ROOT
ATOM      1  C   UNL     1       2.006   8.128  19.528  0.00  0.00    +0.000 A 
ATOM      2  N   UNL     1       2.461   8.577  18.310  0.00  0.00    +0.000 NA
ATOM      3  C   UNL     1       3.240   7.623  17.857  0.00  0.00    +0.000 A 
ATOM      4  C   UNL     1       3.965   7.534  16.634  0.00  0.00    +0.000 A 
ATOM      5  C   UNL     1       4.711   6.443  16.369  0.00  0.00    +0.000 A 
ATOM      6  C   UNL     1       4.802   5.332  17.315  0.00  0.00    +0.000 A 
ATOM      7  C   UNL     1       4.096   5.423  18.462  0.00  0.00    +0.000 A 
ATOM      8  N   UNL     1       3.323   6.545  18.742  0.00  0.00    +0.000 N 
ATOM      9  C   UNL     1       2.484   6.843  19.815  0.00  0.00    +0.000 A 
ENDROOT
BRANCH   1  13
ATOM     10  C   UNL     1      -0.629  10.465  21.979  0.00  0.00    +0.000 A 
ATOM     11  C   UNL     1      -0.723  10.505  20.584  0.00  0.00    +0.000 A 
ATOM     12  C   UNL     1       0.127   9.745  19.778  0.00  0.00    +0.000 A 
ATOM     13  C   UNL     1       1.113   8.936  20.350  0.00  0.00    +0.000 A 
ATOM     14  C   UNL     1       1.200   8.877  21.748  0.00  0.00    +0.000 A 
ATOM     15  C   UNL     1       0.339   9.639  22.557  0.00  0.00    +0.000 A 
BRANCH  10  17
ATOM     16  C   UNL     1      -1.163  12.598  22.925  0.00  0.00    +0.000 C 
ATOM     17  O   UNL     1      -1.546  11.274  22.590  0.00  0.00    +0.000 OA
ENDBRANCH  10  17
BRANCH  15  18
ATOM     18  O   UNL     1       0.479   9.550  23.917  0.00  0.00    +0.000 OA
ATOM     19  H   UNL     1       0.710  10.425  24.269  0.00  0.00    +0.000 HD
ENDBRANCH  15  18
ENDBRANCH   1  13
BRANCH   6  20
ATOM     20  C   UNL     1       5.639   4.127  16.993  0.00  0.00    +0.000 C 
ATOM     21  F   UNL     1       4.959   2.959  17.103  0.00  0.00    +0.000 F 
ATOM     22  F   UNL     1       6.124   4.186  15.727  0.00  0.00    +0.000 F 
ATOM     23  F   UNL     1       6.714   4.038  17.818  0.00  0.00    +0.000 F 
ENDBRANCH   6  20
BRANCH   9  24
ATOM     24  N   UNL     1       2.127   5.986  20.825  0.00  0.00    +0.000 N 
ATOM     25  H   UNL     1       2.786   5.948  21.604  0.00  0.00    +0.000 HD
BRANCH  24  26
ATOM     26  C   UNL     1       1.332   4.769  20.709  0.00  0.00    +0.000 C 
ATOM     27  C   UNL     1       1.175   4.265  19.279  0.00  0.00    +0.000 C 
ATOM     28  C   UNL     1       0.975   2.760  19.404  0.00  0.00    +0.000 C 
ATOM     29  C   UNL     1       1.638   2.340  20.709  0.00  0.00    +0.000 C 
ATOM     30  C   UNL     1       2.055   3.619  21.421  0.00  0.00    +0.000 C 
ENDBRANCH  24  26
ENDBRANCH   9  24
TORSDOF 6
ENDMDL
MODEL 9
REMARK VINA RESULT:      -7.3      1.009      1.566
REMARK  Name = 
REMARK  7 active torsions:
REMARK  status: ('A' for Active; 'I' for Inactive)
REMARK    1  A    between atoms: C_1  and  O_2
REMARK    2  A    between atoms: O_2  and  C_3
REMARK    3  A    between atoms: C_6  and  C_7
REMARK    4  A    between atoms: C_12  and  C_13
REMARK    5  A    between atoms: C_19  and  N_20
REMARK    6  A    between atoms: N_20  and  C_21
REMARK    7  A    between atoms: C_27  and  O_28
REMARK                            x       y       z     vdW  Elec       q    Type
REMARK                         _______ _______ _______ _____ _____    ______ ____
ROOT
ATOM      1  C   UNL     1       3.723   7.182  17.883  0.00  0.00    +0.000 A 
ATOM      2  N   UNL     1       3.151   8.371  17.495  0.00  0.00    +0.000 NA
ATOM      3  C   UNL     1       2.300   8.673  18.447  0.00  0.00    +0.000 A 
ATOM      4  C   UNL     1       1.444   9.804  18.587  0.00  0.00    +0.000 A 
ATOM      5  C   UNL     1       0.643   9.915  19.666  0.00  0.00    +0.000 A 
ATOM      6  C   UNL     1       0.624   8.893  20.711  0.00  0.00    +0.000 A 
ATOM      7  C   UNL     1       1.453   7.836  20.574  0.00  0.00    +0.000 A 
ATOM      8  N   UNL     1       2.284   7.716  19.464  0.00  0.00    +0.000 N 
ATOM      9  C   UNL     1       3.243   6.760  19.129  0.00  0.00    +0.000 A 
ENDROOT
BRANCH   1  13
ATOM     10  C   UNL     1       6.646   5.172  15.468  0.00  0.00    +0.000 A 
ATOM     11  C   UNL     1       6.999   6.275  16.253  0.00  0.00    +0.000 A 
ATOM     12  C   UNL     1       6.056   6.933  17.045  0.00  0.00    +0.000 A 
ATOM     13  C   UNL     1       4.722   6.515  17.056  0.00  0.00    +0.000 A 
ATOM     14  C   UNL     1       4.365   5.398  16.287  0.00  0.00    +0.000 A 
ATOM     15  C   UNL     1       5.318   4.734  15.494  0.00  0.00    +0.000 A 
BRANCH  10  17
ATOM     16  C   UNL     1       7.832   5.002  13.395  0.00  0.00    +0.000 C 
ATOM     17  O   UNL     1       7.705   4.665  14.767  0.00  0.00    +0.000 OA
ENDBRANCH  10  17
BRANCH  15  18
ATOM     18  O   UNL     1       4.909   3.657  14.755  0.00  0.00    +0.000 OA
ATOM     19  H   UNL     1       4.778   3.937  13.833  0.00  0.00    +0.000 HD
ENDBRANCH  15  18
ENDBRANCH   1  13
BRANCH   6  20
ATOM     20  C   UNL     1      -0.277   9.043  21.904  0.00  0.00    +0.000 C 
ATOM     21  F   UNL     1      -1.011  10.183  21.880  0.00  0.00    +0.000 F 
ATOM     22  F   UNL     1      -1.152   8.010  21.994  0.00  0.00    +0.000 F 
ATOM     23  F   UNL     1       0.434   9.055  23.060  0.00  0.00    +0.000 F 
ENDBRANCH   6  20
BRANCH   9  24
ATOM     24  N   UNL     1       3.683   5.740  19.933  0.00  0.00    +0.000 N 
ATOM     25  H   UNL     1       4.686   5.746  20.119  0.00  0.00    +0.000 HD
BRANCH  24  26
ATOM     26  C   UNL     1       3.101   4.409  20.067  0.00  0.00    +0.000 C 
ATOM     27  C   UNL     1       2.272   4.219  21.331  0.00  0.00    +0.000 C 
ATOM     28  C   UNL     1       1.248   3.146  20.982  0.00  0.00    +0.000 C 
ATOM     29  C   UNL     1       1.052   3.207  19.473  0.00  0.00    +0.000 C 
ATOM     30  C   UNL     1       2.092   4.179  18.934  0.00  0.00    +0.000 C 
ENDBRANCH  24  26
ENDBRANCH   9  24
TORSDOF 6
ENDMDL
