MODEL 1
REMARK VINA RESULT:      -8.3      0.000      0.000
REMARK  Name = 
REMARK  7 active torsions:
REMARK  status: ('A' for Active; 'I' for Inactive)
REMARK    1  A    between atoms: C_1  and  C_2
REMARK    2  A    between atoms: N_6  and  C_7
REMARK    3  A    between atoms: C_10  and  S_11
REMARK    4  A    between atoms: S_11  and  C_12
REMARK    5  A    between atoms: C_16  and  C_17
REMARK    6  A    between atoms: C_17  and  C_18
REMARK    7  A    between atoms: N_19  and  O_20
REMARK                            x       y       z     vdW  Elec       q    Type
REMARK                         _______ _______ _______ _____ _____    ______ ____
ROOT
ATOM      1  C   UNL     1      -1.734  10.992  18.228  0.00  0.00    +0.000 A 
ATOM      2  C   UNL     1      -1.644  10.098  17.159  0.00  0.00    +0.000 A 
ATOM      3  C   UNL     1      -2.776   9.783  16.412  0.00  0.00    +0.000 A 
ATOM      4  C   UNL     1      -4.009  10.360  16.726  0.00  0.00    +0.000 A 
ATOM      5  C   UNL     1      -4.146  11.252  17.805  0.00  0.00    +0.000 A 
ATOM      6  C   UNL     1      -2.979  11.559  18.537  0.00  0.00    +0.000 A 
ENDROOT
BRANCH   5   7
ATOM      7  C   UNL     1      -5.504  11.876  18.223  0.00  0.00    +0.000 C 
ATOM      8  C   UNL     1      -5.952  12.910  17.155  0.00  0.00    +0.000 C 
ATOM      9  C   UNL     1      -7.129  13.759  17.628  0.00  0.00    +0.000 C 
ATOM     10  O   UNL     1      -6.826  14.403  18.861  0.00  0.00    +0.000 OA
ATOM     11  C   UNL     1      -6.616  13.464  19.911  0.00  0.00    +0.000 C 
ATOM     12  C   UNL     1      -5.416  12.587  19.599  0.00  0.00    +0.000 C 
BRANCH   7  13
ATOM     13  C   UNL     1      -6.551  10.753  18.341  0.00  0.00    +0.000 C 
ATOM     14  N   UNL     1      -6.588   9.952  19.362  0.00  0.00    +0.000 NA
BRANCH  14  15
ATOM     15  O   UNL     1      -7.651   9.049  19.209  0.00  0.00    +0.000 OA
ATOM     16  H   UNL     1      -7.208   8.251  18.863  0.00  0.00    +0.000 HD
ENDBRANCH  14  15
ENDBRANCH   7  13
ENDBRANCH   5   7
BRANCH   1  17
ATOM     17  S   UNL     1      -0.225  11.421  19.084  0.00  0.00    +0.000 S 
BRANCH  17  21
ATOM     18  C   UNL     1       2.196   7.523  19.240  0.00  0.00    +0.000 A 
ATOM     19  C   UNL     1       2.123   8.264  18.049  0.00  0.00    +0.000 A 
ATOM     20  C   UNL     1       1.363   9.437  17.997  0.00  0.00    +0.000 A 
ATOM     21  C   UNL     1       0.688   9.898  19.131  0.00  0.00    +0.000 A 
ATOM     22  C   UNL     1       0.796   9.181  20.324  0.00  0.00    +0.000 A 
ATOM     23  C   UNL     1       1.541   8.003  20.379  0.00  0.00    +0.000 A 
BRANCH  18  29
ATOM     24  C   UNL     1       1.345   4.769  20.525  0.00  0.00    +0.000 C 
ATOM     25  C   UNL     1       2.661   5.119  19.926  0.00  0.00    +0.000 A 
ATOM     26  N   UNL     1       3.658   4.259  19.811  0.00  0.00    +0.000 NA
ATOM     27  C   UNL     1       4.595   4.871  19.034  0.00  0.00    +0.000 A 
ATOM     28  C   UNL     1       4.175   6.125  18.666  0.00  0.00    +0.000 A 
ATOM     29  N   UNL     1       2.957   6.323  19.287  0.00  0.00    +0.000 N 
ENDBRANCH  18  29
ENDBRANCH  17  21
ENDBRANCH   1  17
TORSDOF 6
ENDMDL
MODEL 2
REMARK VINA RESULT:      -8.2      1.306      2.011
REMARK  Name = 
REMARK  7 active torsions:
REMARK  status: ('A' for Active; 'I' for Inactive)
REMARK    1  A    between atoms: C_1  and  C_2
REMARK    2  A    between atoms: N_6  and  C_7
REMARK    3  A    between atoms: C_10  and  S_11
REMARK    4  A    between atoms: S_11  and  C_12
REMARK    5  A    between atoms: C_16  and  C_17
REMARK    6  A    between atoms: C_17  and  C_18
REMARK    7  A    between atoms: N_19  and  O_20
REMARK                            x       y       z     vdW  Elec       q    Type
REMARK                         _______ _______ _______ _____ _____    ______ ____
ROOT
ATOM      1  C   UNL     1      -1.533  10.990  18.367  0.00  0.00    +0.000 A 
ATOM      2  C   UNL     1      -1.688  10.108  17.296  0.00  0.00    +0.000 A 
ATOM      3  C   UNL     1      -2.959   9.812  16.810  0.00  0.00    +0.000 A 
ATOM      4  C   UNL     1      -4.087  10.397  17.390  0.00  0.00    +0.000 A 
ATOM      5  C   UNL     1      -3.976  11.277  18.482  0.00  0.00    +0.000 A 
ATOM      6  C   UNL     1      -2.674  11.565  18.945  0.00  0.00    +0.000 A 
ENDROOT
BRANCH   5   7
ATOM      7  C   UNL     1      -5.203  11.909  19.191  0.00  0.00    +0.000 C 
ATOM      8  C   UNL     1      -4.797  12.380  20.613  0.00  0.00    +0.000 C 
ATOM      9  C   UNL     1      -6.005  12.757  21.467  0.00  0.00    +0.000 C 
ATOM     10  O   UNL     1      -6.933  11.678  21.535  0.00  0.00    +0.000 OA
ATOM     11  C   UNL     1      -7.479  11.367  20.257  0.00  0.00    +0.000 C 
ATOM     12  C   UNL     1      -6.380  10.906  19.316  0.00  0.00    +0.000 C 
BRANCH   7  13
ATOM     13  C   UNL     1      -5.694  13.108  18.358  0.00  0.00    +0.000 C 
ATOM     14  N   UNL     1      -6.084  12.977  17.127  0.00  0.00    +0.000 NA
BRANCH  14  15
ATOM     15  O   UNL     1      -6.494  14.224  16.632  0.00  0.00    +0.000 OA
ATOM     16  H   UNL     1      -6.962  13.985  15.809  0.00  0.00    +0.000 HD
ENDBRANCH  14  15
ENDBRANCH   7  13
ENDBRANCH   5   7
BRANCH   1  17
ATOM     17  S   UNL     1       0.131  11.396  18.878  0.00  0.00    +0.000 S 
BRANCH  17  21
ATOM     18  C   UNL     1       2.273   7.350  19.247  0.00  0.00    +0.000 A 
ATOM     19  C   UNL     1       2.242   8.026  18.016  0.00  0.00    +0.000 A 
ATOM     20  C   UNL     1       1.566   9.245  17.899  0.00  0.00    +0.000 A 
ATOM     21  C   UNL     1       0.935   9.817  19.008  0.00  0.00    +0.000 A 
ATOM     22  C   UNL     1       1.003   9.163  20.240  0.00  0.00    +0.000 A 
ATOM     23  C   UNL     1       1.663   7.940  20.360  0.00  0.00    +0.000 A 
BRANCH  18  29
ATOM     24  C   UNL     1       1.137   4.664  20.451  0.00  0.00    +0.000 C 
ATOM     25  C   UNL     1       2.520   4.925  19.970  0.00  0.00    +0.000 A 
ATOM     26  N   UNL     1       3.465   4.002  19.941  0.00  0.00    +0.000 NA
ATOM     27  C   UNL     1       4.505   4.549  19.249  0.00  0.00    +0.000 A 
ATOM     28  C   UNL     1       4.200   5.826  18.846  0.00  0.00    +0.000 A 
ATOM     29  N   UNL     1       2.948   6.105  19.359  0.00  0.00    +0.000 N 
ENDBRANCH  18  29
ENDBRANCH  17  21
ENDBRANCH   1  17
TORSDOF 6
ENDMDL
MODEL 3
REMARK VINA RESULT:      -8.1      0.444      1.014
REMARK  Name = 
REMARK  7 active torsions:
REMARK  status: ('A' for Active; 'I' for Inactive)
REMARK    1  A    between atoms: C_1  and  C_2
REMARK    2  A    between atoms: N_6  and  C_7
REMARK    3  A    between atoms: C_10  and  S_11
REMARK    4  A    between atoms: S_11  and  C_12
REMARK    5  A    between atoms: C_16  and  C_17
REMARK    6  A    between atoms: C_17  and  C_18
REMARK    7  A    between atoms: N_19  and  O_20
REMARK                            x       y       z     vdW  Elec       q    Type
REMARK                         _______ _______ _______ _____ _____    ______ ____
ROOT
ATOM      1  C   UNL     1      -1.441  10.983  18.479  0.00  0.00    +0.000 A 
ATOM      2  C   UNL     1      -1.397  10.088  17.408  0.00  0.00    +0.000 A 
ATOM      3  C   UNL     1      -2.554   9.795  16.692  0.00  0.00    +0.000 A 
ATOM      4  C   UNL     1      -3.767  10.394  17.040  0.00  0.00    +0.000 A 
ATOM      5  C   UNL     1      -3.858  11.288  18.122  0.00  0.00    +0.000 A 
ATOM      6  C   UNL     1      -2.666  11.573  18.822  0.00  0.00    +0.000 A 
ENDROOT
BRANCH   5   7
ATOM      7  C   UNL     1      -5.192  11.937  18.577  0.00  0.00    +0.000 C 
ATOM      8  C   UNL     1      -5.907  12.569  17.353  0.00  0.00    +0.000 C 
ATOM      9  C   UNL     1      -7.079  13.458  17.760  0.00  0.00    +0.000 C 
ATOM     10  O   UNL     1      -6.656  14.464  18.676  0.00  0.00    +0.000 OA
ATOM     11  C   UNL     1      -6.188  13.905  19.898  0.00  0.00    +0.000 C 
ATOM     12  C   UNL     1      -4.966  13.039  19.645  0.00  0.00    +0.000 C 
BRANCH   7  13
ATOM     13  C   UNL     1      -6.084  10.850  19.206  0.00  0.00    +0.000 C 
ATOM     14  N   UNL     1      -6.948  10.180  18.507  0.00  0.00    +0.000 NA
BRANCH  14  15
ATOM     15  O   UNL     1      -7.598   9.251  19.333  0.00  0.00    +0.000 OA
ATOM     16  H   UNL     1      -6.993   9.183  20.097  0.00  0.00    +0.000 HD
ENDBRANCH  14  15
ENDBRANCH   7  13
ENDBRANCH   5   7
BRANCH   1  17
ATOM     17  S   UNL     1       0.099  11.384  19.293  0.00  0.00    +0.000 S 
BRANCH  17  21
ATOM     18  C   UNL     1       2.289   7.349  19.387  0.00  0.00    +0.000 A 
ATOM     19  C   UNL     1       1.617   7.816  20.528  0.00  0.00    +0.000 A 
ATOM     20  C   UNL     1       0.974   9.058  20.506  0.00  0.00    +0.000 A 
ATOM     21  C   UNL     1       0.970   9.837  19.344  0.00  0.00    +0.000 A 
ATOM     22  C   UNL     1       1.603   9.350  18.199  0.00  0.00    +0.000 A 
ATOM     23  C   UNL     1       2.259   8.119  18.219  0.00  0.00    +0.000 A 
BRANCH  18  29
ATOM     24  C   UNL     1       1.140   4.602  20.433  0.00  0.00    +0.000 C 
ATOM     25  C   UNL     1       2.521   4.881  19.956  0.00  0.00    +0.000 A 
ATOM     26  N   UNL     1       3.459   3.955  19.863  0.00  0.00    +0.000 NA
ATOM     27  C   UNL     1       4.497   4.535  19.197  0.00  0.00    +0.000 A 
ATOM     28  C   UNL     1       4.200   5.836  18.876  0.00  0.00    +0.000 A 
ATOM     29  N   UNL     1       2.954   6.093  19.416  0.00  0.00    +0.000 N 
ENDBRANCH  18  29
ENDBRANCH  17  21
ENDBRANCH   1  17
TORSDOF 6
ENDMDL
MODEL 4
REMARK VINA RESULT:      -8.1      5.481     10.420
REMARK  Name = 
REMARK  7 active torsions:
REMARK  status: ('A' for Active; 'I' for Inactive)
REMARK    1  A    between atoms: C_1  and  C_2
REMARK    2  A    between atoms: N_6  and  C_7
REMARK    3  A    between atoms: C_10  and  S_11
REMARK    4  A    between atoms: S_11  and  C_12
REMARK    5  A    between atoms: C_16  and  C_17
REMARK    6  A    between atoms: C_17  and  C_18
REMARK    7  A    between atoms: N_19  and  O_20
REMARK                            x       y       z     vdW  Elec       q    Type
REMARK                         _______ _______ _______ _____ _____    ______ ____
ROOT
ATOM      1  C   UNL     1       2.388   5.248  19.590  0.00  0.00    +0.000 A 
ATOM      2  C   UNL     1       1.612   4.345  18.862  0.00  0.00    +0.000 A 
ATOM      3  C   UNL     1       2.165   3.651  17.789  0.00  0.00    +0.000 A 
ATOM      4  C   UNL     1       3.501   3.854  17.434  0.00  0.00    +0.000 A 
ATOM      5  C   UNL     1       4.312   4.767  18.130  0.00  0.00    +0.000 A 
ATOM      6  C   UNL     1       3.726   5.447  19.220  0.00  0.00    +0.000 A 
ENDROOT
BRANCH   5   7
ATOM      7  C   UNL     1       5.784   5.063  17.740  0.00  0.00    +0.000 C 
ATOM      8  C   UNL     1       5.922   6.549  17.314  0.00  0.00    +0.000 C 
ATOM      9  C   UNL     1       7.269   6.844  16.658  0.00  0.00    +0.000 C 
ATOM     10  O   UNL     1       7.492   5.976  15.551  0.00  0.00    +0.000 OA
ATOM     11  C   UNL     1       7.579   4.614  15.954  0.00  0.00    +0.000 C 
ATOM     12  C   UNL     1       6.267   4.164  16.571  0.00  0.00    +0.000 C 
BRANCH   7  13
ATOM     13  C   UNL     1       6.688   4.777  18.954  0.00  0.00    +0.000 C 
ATOM     14  N   UNL     1       7.253   5.729  19.631  0.00  0.00    +0.000 NA
BRANCH  14  15
ATOM     15  O   UNL     1       7.995   5.177  20.685  0.00  0.00    +0.000 OA
ATOM     16  H   UNL     1       7.403   5.301  21.452  0.00  0.00    +0.000 HD
ENDBRANCH  14  15
ENDBRANCH   7  13
ENDBRANCH   5   7
BRANCH   1  17
ATOM     17  S   UNL     1       1.641   6.032  21.012  0.00  0.00    +0.000 S 
BRANCH  17  21
ATOM     18  C   UNL     1       0.922  10.346  19.612  0.00  0.00    +0.000 A 
ATOM     19  C   UNL     1       0.650   9.978  20.940  0.00  0.00    +0.000 A 
ATOM     20  C   UNL     1       0.844   8.657  21.357  0.00  0.00    +0.000 A 
ATOM     21  C   UNL     1       1.332   7.695  20.467  0.00  0.00    +0.000 A 
ATOM     22  C   UNL     1       1.641   8.074  19.160  0.00  0.00    +0.000 A 
ATOM     23  C   UNL     1       1.436   9.386  18.733  0.00  0.00    +0.000 A 
BRANCH  18  29
ATOM     24  C   UNL     1      -1.782  11.626  18.606  0.00  0.00    +0.000 C 
ATOM     25  C   UNL     1      -0.439  12.265  18.645  0.00  0.00    +0.000 A 
ATOM     26  N   UNL     1      -0.221  13.520  18.295  0.00  0.00    +0.000 NA
ATOM     27  C   UNL     1       1.060  13.798  18.666  0.00  0.00    +0.000 A 
ATOM     28  C   UNL     1       1.643  12.702  19.252  0.00  0.00    +0.000 A 
ATOM     29  N   UNL     1       0.710  11.686  19.187  0.00  0.00    +0.000 N 
ENDBRANCH  18  29
ENDBRANCH  17  21
ENDBRANCH   1  17
TORSDOF 6
ENDMDL
MODEL 5
REMARK VINA RESULT:      -8.0      0.517      1.506
REMARK  Name = 
REMARK  7 active torsions:
REMARK  status: ('A' for Active; 'I' for Inactive)
REMARK    1  A    between atoms: C_1  and  C_2
REMARK    2  A    between atoms: N_6  and  C_7
REMARK    3  A    between atoms: C_10  and  S_11
REMARK    4  A    between atoms: S_11  and  C_12
REMARK    5  A    between atoms: C_16  and  C_17
REMARK    6  A    between atoms: C_17  and  C_18
REMARK    7  A    between atoms: N_19  and  O_20
REMARK                            x       y       z     vdW  Elec       q    Type
REMARK                         _______ _______ _______ _____ _____    ______ ____
ROOT
ATOM      1  C   UNL     1      -1.745  11.012  18.319  0.00  0.00    +0.000 A 
ATOM      2  C   UNL     1      -1.618  10.116  17.256  0.00  0.00    +0.000 A 
ATOM      3  C   UNL     1      -2.728   9.783  16.484  0.00  0.00    +0.000 A 
ATOM      4  C   UNL     1      -3.976  10.344  16.768  0.00  0.00    +0.000 A 
ATOM      5  C   UNL     1      -4.150  11.237  17.840  0.00  0.00    +0.000 A 
ATOM      6  C   UNL     1      -3.005  11.563  18.598  0.00  0.00    +0.000 A 
ENDROOT
BRANCH   5   7
ATOM      7  C   UNL     1      -5.526  11.843  18.225  0.00  0.00    +0.000 C 
ATOM      8  C   UNL     1      -5.972  12.854  17.135  0.00  0.00    +0.000 C 
ATOM      9  C   UNL     1      -7.172  13.689  17.574  0.00  0.00    +0.000 C 
ATOM     10  O   UNL     1      -6.903  14.355  18.804  0.00  0.00    +0.000 OA
ATOM     11  C   UNL     1      -6.696  13.434  19.871  0.00  0.00    +0.000 C 
ATOM     12  C   UNL     1      -5.476  12.574  19.592  0.00  0.00    +0.000 C 
BRANCH   7  13
ATOM     13  C   UNL     1      -6.556  10.703  18.340  0.00  0.00    +0.000 C 
ATOM     14  N   UNL     1      -6.648   9.965  19.404  0.00  0.00    +0.000 NA
BRANCH  14  15
ATOM     15  O   UNL     1      -7.680   9.029  19.234  0.00  0.00    +0.000 OA
ATOM     16  H   UNL     1      -7.193   8.207  19.030  0.00  0.00    +0.000 HD
ENDBRANCH  14  15
ENDBRANCH   7  13
ENDBRANCH   5   7
BRANCH   1  17
ATOM     17  S   UNL     1      -0.262  11.466  19.208  0.00  0.00    +0.000 S 
BRANCH  17  21
ATOM     18  C   UNL     1       2.212   7.599  19.113  0.00  0.00    +0.000 A 
ATOM     19  C   UNL     1       1.587   8.011  20.302  0.00  0.00    +0.000 A 
ATOM     20  C   UNL     1       0.856   9.203  20.335  0.00  0.00    +0.000 A 
ATOM     21  C   UNL     1       0.719   9.985  19.185  0.00  0.00    +0.000 A 
ATOM     22  C   UNL     1       1.306   9.552  17.995  0.00  0.00    +0.000 A 
ATOM     23  C   UNL     1       2.049   8.371  17.958  0.00  0.00    +0.000 A 
BRANCH  18  29
ATOM     24  C   UNL     1       4.652   6.916  17.232  0.00  0.00    +0.000 C 
ATOM     25  C   UNL     1       3.984   6.015  18.209  0.00  0.00    +0.000 A 
ATOM     26  N   UNL     1       4.387   4.780  18.452  0.00  0.00    +0.000 NA
ATOM     27  C   UNL     1       3.680   4.359  19.539  0.00  0.00    +0.000 A 
ATOM     28  C   UNL     1       2.827   5.344  19.972  0.00  0.00    +0.000 A 
ATOM     29  N   UNL     1       2.966   6.394  19.085  0.00  0.00    +0.000 N 
ENDBRANCH  18  29
ENDBRANCH  17  21
ENDBRANCH   1  17
TORSDOF 6
ENDMDL
MODEL 6
REMARK VINA RESULT:      -8.0      5.511     10.295
REMARK  Name = 
REMARK  7 active torsions:
REMARK  status: ('A' for Active; 'I' for Inactive)
REMARK    1  A    between atoms: C_1  and  C_2
REMARK    2  A    between atoms: N_6  and  C_7
REMARK    3  A    between atoms: C_10  and  S_11
REMARK    4  A    between atoms: S_11  and  C_12
REMARK    5  A    between atoms: C_16  and  C_17
REMARK    6  A    between atoms: C_17  and  C_18
REMARK    7  A    between atoms: N_19  and  O_20
REMARK                            x       y       z     vdW  Elec       q    Type
REMARK                         _______ _______ _______ _____ _____    ______ ____
ROOT
ATOM      1  C   UNL     1       2.337   5.404  19.462  0.00  0.00    +0.000 A 
ATOM      2  C   UNL     1       1.610   4.507  18.678  0.00  0.00    +0.000 A 
ATOM      3  C   UNL     1       2.218   3.862  17.604  0.00  0.00    +0.000 A 
ATOM      4  C   UNL     1       3.560   4.107  17.305  0.00  0.00    +0.000 A 
ATOM      5  C   UNL     1       4.323   5.016  18.059  0.00  0.00    +0.000 A 
ATOM      6  C   UNL     1       3.682   5.647  19.148  0.00  0.00    +0.000 A 
ENDROOT
BRANCH   5   7
ATOM      7  C   UNL     1       5.801   5.359  17.732  0.00  0.00    +0.000 C 
ATOM      8  C   UNL     1       6.674   5.160  18.999  0.00  0.00    +0.000 C 
ATOM      9  C   UNL     1       8.078   5.737  18.834  0.00  0.00    +0.000 C 
ATOM     10  O   UNL     1       8.020   7.113  18.469  0.00  0.00    +0.000 OA
ATOM     11  C   UNL     1       7.403   7.299  17.199  0.00  0.00    +0.000 C 
ATOM     12  C   UNL     1       5.962   6.823  17.242  0.00  0.00    +0.000 C 
BRANCH   7  13
ATOM     13  C   UNL     1       6.288   4.431  16.604  0.00  0.00    +0.000 C 
ATOM     14  N   UNL     1       6.096   4.710  15.352  0.00  0.00    +0.000 NA
BRANCH  14  15
ATOM     15  O   UNL     1       6.661   3.703  14.556  0.00  0.00    +0.000 OA
ATOM     16  H   UNL     1       7.094   4.210  13.842  0.00  0.00    +0.000 HD
ENDBRANCH  14  15
ENDBRANCH   7  13
ENDBRANCH   5   7
BRANCH   1  17
ATOM     17  S   UNL     1       1.520   6.124  20.880  0.00  0.00    +0.000 S 
BRANCH  17  21
ATOM     18  C   UNL     1       0.889  10.516  19.697  0.00  0.00    +0.000 A 
ATOM     19  C   UNL     1       1.456   9.612  18.784  0.00  0.00    +0.000 A 
ATOM     20  C   UNL     1       1.672   8.281  19.156  0.00  0.00    +0.000 A 
ATOM     21  C   UNL     1       1.307   7.829  20.428  0.00  0.00    +0.000 A 
ATOM     22  C   UNL     1       0.705   8.721  21.317  0.00  0.00    +0.000 A 
ATOM     23  C   UNL     1       0.500  10.053  20.958  0.00  0.00    +0.000 A 
BRANCH  18  29
ATOM     24  C   UNL     1      -1.679  11.757  18.347  0.00  0.00    +0.000 C 
ATOM     25  C   UNL     1      -0.391  12.441  18.638  0.00  0.00    +0.000 A 
ATOM     26  N   UNL     1      -0.180  13.724  18.400  0.00  0.00    +0.000 NA
ATOM     27  C   UNL     1       1.012  14.025  18.988  0.00  0.00    +0.000 A 
ATOM     28  C   UNL     1       1.547  12.915  19.595  0.00  0.00    +0.000 A 
ATOM     29  N   UNL     1       0.684  11.872  19.322  0.00  0.00    +0.000 N 
ENDBRANCH  18  29
ENDBRANCH  17  21
ENDBRANCH   1  17
TORSDOF 6
ENDMDL
MODEL 7
REMARK VINA RESULT:      -7.9      5.325      9.698
REMARK  Name = 
REMARK  7 active torsions:
REMARK  status: ('A' for Active; 'I' for Inactive)
REMARK    1  A    between atoms: C_1  and  C_2
REMARK    2  A    between atoms: N_6  and  C_7
REMARK    3  A    between atoms: C_10  and  S_11
REMARK    4  A    between atoms: S_11  and  C_12
REMARK    5  A    between atoms: C_16  and  C_17
REMARK    6  A    between atoms: C_17  and  C_18
REMARK    7  A    between atoms: N_19  and  O_20
REMARK                            x       y       z     vdW  Elec       q    Type
REMARK                         _______ _______ _______ _____ _____    ______ ____
ROOT
ATOM      1  C   UNL     1       1.360   8.773  19.736  0.00  0.00    +0.000 A 
ATOM      2  C   UNL     1       1.892   9.275  18.547  0.00  0.00    +0.000 A 
ATOM      3  C   UNL     1       2.627   8.446  17.703  0.00  0.00    +0.000 A 
ATOM      4  C   UNL     1       2.836   7.107  18.041  0.00  0.00    +0.000 A 
ATOM      5  C   UNL     1       2.333   6.567  19.238  0.00  0.00    +0.000 A 
ATOM      6  C   UNL     1       1.583   7.429  20.067  0.00  0.00    +0.000 A 
ENDROOT
BRANCH   5   7
ATOM      7  C   UNL     1       2.584   5.101  19.679  0.00  0.00    +0.000 C 
ATOM      8  C   UNL     1       1.794   4.136  18.755  0.00  0.00    +0.000 C 
ATOM      9  C   UNL     1       1.770   2.707  19.291  0.00  0.00    +0.000 C 
ATOM     10  O   UNL     1       1.255   2.673  20.619  0.00  0.00    +0.000 OA
ATOM     11  C   UNL     1       2.088   3.384  21.528  0.00  0.00    +0.000 C 
ATOM     12  C   UNL     1       2.147   4.853  21.147  0.00  0.00    +0.000 C 
BRANCH   7  13
ATOM     13  C   UNL     1       4.093   4.805  19.583  0.00  0.00    +0.000 C 
ATOM     14  N   UNL     1       4.589   4.060  18.643  0.00  0.00    +0.000 NA
BRANCH  14  15
ATOM     15  O   UNL     1       5.982   3.984  18.794  0.00  0.00    +0.000 OA
ATOM     16  H   UNL     1       6.310   4.481  18.020  0.00  0.00    +0.000 HD
ENDBRANCH  14  15
ENDBRANCH   7  13
ENDBRANCH   5   7
BRANCH   1  17
ATOM     17  S   UNL     1       0.349   9.868  20.725  0.00  0.00    +0.000 S 
BRANCH  17  21
ATOM     18  C   UNL     1       1.288  14.080  19.156  0.00  0.00    +0.000 A 
ATOM     19  C   UNL     1       0.309  13.293  18.529  0.00  0.00    +0.000 A 
ATOM     20  C   UNL     1       0.043  12.000  18.992  0.00  0.00    +0.000 A 
ATOM     21  C   UNL     1       0.730  11.485  20.095  0.00  0.00    +0.000 A 
ATOM     22  C   UNL     1       1.673  12.285  20.742  0.00  0.00    +0.000 A 
ATOM     23  C   UNL     1       1.953  13.570  20.277  0.00  0.00    +0.000 A 
BRANCH  18  29
ATOM     24  C   UNL     1       3.927  15.074  17.739  0.00  0.00    +0.000 C 
ATOM     25  C   UNL     1       2.749  15.893  18.133  0.00  0.00    +0.000 A 
ATOM     26  N   UNL     1       2.645  17.185  17.877  0.00  0.00    +0.000 NA
ATOM     27  C   UNL     1       1.363  17.528  18.189  0.00  0.00    +0.000 A 
ATOM     28  C   UNL     1       0.666  16.436  18.645  0.00  0.00    +0.000 A 
ATOM     29  N   UNL     1       1.566  15.388  18.675  0.00  0.00    +0.000 N 
ENDBRANCH  18  29
ENDBRANCH  17  21
ENDBRANCH   1  17
TORSDOF 6
ENDMDL
MODEL 8
REMARK VINA RESULT:      -7.9      3.586      9.628
REMARK  Name = 
REMARK  7 active torsions:
REMARK  status: ('A' for Active; 'I' for Inactive)
REMARK    1  A    between atoms: C_1  and  C_2
REMARK    2  A    between atoms: N_6  and  C_7
REMARK    3  A    between atoms: C_10  and  S_11
REMARK    4  A    between atoms: S_11  and  C_12
REMARK    5  A    between atoms: C_16  and  C_17
REMARK    6  A    between atoms: C_17  and  C_18
REMARK    7  A    between atoms: N_19  and  O_20
REMARK                            x       y       z     vdW  Elec       q    Type
REMARK                         _______ _______ _______ _____ _____    ______ ____
ROOT
ATOM      1  C   UNL     1       1.439   9.315  19.223  0.00  0.00    +0.000 A 
ATOM      2  C   UNL     1       0.872   9.070  20.475  0.00  0.00    +0.000 A 
ATOM      3  C   UNL     1       1.087   7.852  21.115  0.00  0.00    +0.000 A 
ATOM      4  C   UNL     1       1.872   6.868  20.509  0.00  0.00    +0.000 A 
ATOM      5  C   UNL     1       2.446   7.068  19.241  0.00  0.00    +0.000 A 
ATOM      6  C   UNL     1       2.220   8.317  18.622  0.00  0.00    +0.000 A 
ENDROOT
BRANCH   5   7
ATOM      7  C   UNL     1       3.281   5.986  18.507  0.00  0.00    +0.000 C 
ATOM      8  C   UNL     1       4.272   5.328  19.504  0.00  0.00    +0.000 C 
ATOM      9  C   UNL     1       5.310   4.456  18.801  0.00  0.00    +0.000 C 
ATOM     10  O   UNL     1       6.008   5.200  17.808  0.00  0.00    +0.000 OA
ATOM     11  C   UNL     1       5.141   5.638  16.766  0.00  0.00    +0.000 C 
ATOM     12  C   UNL     1       4.087   6.579  17.322  0.00  0.00    +0.000 C 
BRANCH   7  13
ATOM     13  C   UNL     1       2.324   4.922  17.937  0.00  0.00    +0.000 C 
ATOM     14  N   UNL     1       1.782   4.011  18.687  0.00  0.00    +0.000 NA
BRANCH  14  15
ATOM     15  O   UNL     1       0.947   3.199  17.906  0.00  0.00    +0.000 OA
ATOM     16  H   UNL     1       0.537   2.611  18.569  0.00  0.00    +0.000 HD
ENDBRANCH  14  15
ENDBRANCH   7  13
ENDBRANCH   5   7
BRANCH   1  17
ATOM     17  S   UNL     1       1.199  10.933  18.502  0.00  0.00    +0.000 S 
BRANCH  17  21
ATOM     18  C   UNL     1      -3.361  11.462  18.630  0.00  0.00    +0.000 A 
ATOM     19  C   UNL     1      -2.788  10.438  17.858  0.00  0.00    +0.000 A 
ATOM     20  C   UNL     1      -1.398  10.295  17.800  0.00  0.00    +0.000 A 
ATOM     21  C   UNL     1      -0.564  11.153  18.524  0.00  0.00    +0.000 A 
ATOM     22  C   UNL     1      -1.138  12.143  19.322  0.00  0.00    +0.000 A 
ATOM     23  C   UNL     1      -2.523  12.300  19.374  0.00  0.00    +0.000 A 
BRANCH  18  29
ATOM     24  C   UNL     1      -5.085  12.560  21.034  0.00  0.00    +0.000 C 
ATOM     25  C   UNL     1      -5.580  12.002  19.747  0.00  0.00    +0.000 A 
ATOM     26  N   UNL     1      -6.860  11.945  19.424  0.00  0.00    +0.000 NA
ATOM     27  C   UNL     1      -6.902  11.582  18.111  0.00  0.00    +0.000 A 
ATOM     28  C   UNL     1      -5.634  11.410  17.615  0.00  0.00    +0.000 A 
ATOM     29  N   UNL     1      -4.773  11.614  18.676  0.00  0.00    +0.000 N 
ENDBRANCH  18  29
ENDBRANCH  17  21
ENDBRANCH   1  17
TORSDOF 6
ENDMDL
MODEL 9
REMARK VINA RESULT:      -7.8      5.803     10.411
REMARK  Name = 
REMARK  7 active torsions:
REMARK  status: ('A' for Active; 'I' for Inactive)
REMARK    1  A    between atoms: C_1  and  C_2
REMARK    2  A    between atoms: N_6  and  C_7
REMARK    3  A    between atoms: C_10  and  S_11
REMARK    4  A    between atoms: S_11  and  C_12
REMARK    5  A    between atoms: C_16  and  C_17
REMARK    6  A    between atoms: C_17  and  C_18
REMARK    7  A    between atoms: N_19  and  O_20
REMARK                            x       y       z     vdW  Elec       q    Type
REMARK                         _______ _______ _______ _____ _____    ______ ____
ROOT
ATOM      1  C   UNL     1       2.303   5.483  19.588  0.00  0.00    +0.000 A 
ATOM      2  C   UNL     1       1.511   4.663  18.782  0.00  0.00    +0.000 A 
ATOM      3  C   UNL     1       2.069   4.009  17.687  0.00  0.00    +0.000 A 
ATOM      4  C   UNL     1       3.424   4.167  17.389  0.00  0.00    +0.000 A 
ATOM      5  C   UNL     1       4.253   4.997  18.165  0.00  0.00    +0.000 A 
ATOM      6  C   UNL     1       3.661   5.639  19.274  0.00  0.00    +0.000 A 
ENDROOT
BRANCH   5   7
ATOM      7  C   UNL     1       5.750   5.244  17.841  0.00  0.00    +0.000 C 
ATOM      8  C   UNL     1       5.954   6.723  17.419  0.00  0.00    +0.000 C 
ATOM      9  C   UNL     1       7.338   6.971  16.824  0.00  0.00    +0.000 C 
ATOM     10  O   UNL     1       7.584   6.093  15.730  0.00  0.00    +0.000 OA
ATOM     11  C   UNL     1       7.608   4.730  16.140  0.00  0.00    +0.000 C 
ATOM     12  C   UNL     1       6.255   4.325  16.697  0.00  0.00    +0.000 C 
BRANCH   7  13
ATOM     13  C   UNL     1       6.587   4.933  19.096  0.00  0.00    +0.000 C 
ATOM     14  N   UNL     1       7.571   5.691  19.471  0.00  0.00    +0.000 NA
BRANCH  14  15
ATOM     15  O   UNL     1       8.134   5.178  20.649  0.00  0.00    +0.000 OA
ATOM     16  H   UNL     1       7.714   4.299  20.722  0.00  0.00    +0.000 HD
ENDBRANCH  14  15
ENDBRANCH   7  13
ENDBRANCH   5   7
BRANCH   1  17
ATOM     17  S   UNL     1       1.543   6.218  21.030  0.00  0.00    +0.000 S 
BRANCH  17  21
ATOM     18  C   UNL     1       0.700  10.548  19.755  0.00  0.00    +0.000 A 
ATOM     19  C   UNL     1       1.393   9.679  18.896  0.00  0.00    +0.000 A 
ATOM     20  C   UNL     1       1.672   8.369  19.298  0.00  0.00    +0.000 A 
ATOM     21  C   UNL     1       1.247   7.901  20.544  0.00  0.00    +0.000 A 
ATOM     22  C   UNL     1       0.521   8.754  21.378  0.00  0.00    +0.000 A 
ATOM     23  C   UNL     1       0.252  10.067  20.990  0.00  0.00    +0.000 A 
BRANCH  18  29
ATOM     24  C   UNL     1       2.385  13.128  20.436  0.00  0.00    +0.000 C 
ATOM     25  C   UNL     1       1.090  13.060  19.708  0.00  0.00    +0.000 A 
ATOM     26  N   UNL     1       0.491  14.119  19.191  0.00  0.00    +0.000 NA
ATOM     27  C   UNL     1      -0.534  13.639  18.432  0.00  0.00    +0.000 A 
ATOM     28  C   UNL     1      -0.572  12.268  18.480  0.00  0.00    +0.000 A 
ATOM     29  N   UNL     1       0.430  11.883  19.351  0.00  0.00    +0.000 N 
ENDBRANCH  18  29
ENDBRANCH  17  21
ENDBRANCH   1  17
TORSDOF 6
ENDMDL
