MODEL 1
REMARK VINA RESULT:      -6.5      0.000      0.000
REMARK  Name = 
REMARK  12 active torsions:
REMARK  status: ('A' for Active; 'I' for Inactive)
REMARK    1  A    between atoms: C_1  and  O_2
REMARK    2  A    between atoms: O_2  and  C_3
REMARK    3  A    between atoms: C_3  and  C_4
REMARK    4  A    between atoms: C_6  and  C_7
REMARK    5  A    between atoms: C_7  and  C_8
REMARK    6  A    between atoms: C_8  and  C_9
REMARK    7  A    between atoms: C_8  and  C_10
REMARK    8  A    between atoms: C_17  and  C_19
REMARK    9  A    between atoms: C_26  and  C_27
REMARK   10  A    between atoms: C_27  and  C_28
REMARK   11  A    between atoms: C_30  and  C_31
REMARK   12  A    between atoms: C_34  and  C_35
REMARK                            x       y       z     vdW  Elec       q    Type
REMARK                         _______ _______ _______ _____ _____    ______ ____
ROOT
ATOM      1  C   UNL     1      -3.291  10.895  18.197  0.00  0.00    +0.000 A 
ATOM      2  N   UNL     1      -4.632  11.044  18.184  0.00  0.00    +0.000 NA
ATOM      3  C   UNL     1      -5.148  12.044  18.906  0.00  0.00    +0.000 A 
ATOM      4  N   UNL     1      -4.418  12.900  19.640  0.00  0.00    +0.000 NA
ATOM      5  C   UNL     1      -3.075  12.778  19.624  0.00  0.00    +0.000 A 
ATOM      6  N   UNL     1      -2.374  13.584  20.492  0.00  0.00    +0.000 N 
ATOM      7  C   UNL     1      -3.013  13.984  21.753  0.00  0.00    +0.000 C 
ATOM      8  C   UNL     1      -1.914  14.063  22.840  0.00  0.00    +0.000 C 
ATOM      9  N   UNL     1      -0.757  14.881  22.411  0.00  0.00    +0.000 N 
ATOM     10  C   UNL     1      -0.082  15.635  23.374  0.00  0.00    +0.000 C 
ATOM     11  O   UNL     1      -0.452  15.594  24.550  0.00  0.00    +0.000 OA
ATOM     12  C   UNL     1      -0.231  14.509  21.086  0.00  0.00    +0.000 C 
ATOM     13  C   UNL     1      -1.366  14.543  20.041  0.00  0.00    +0.000 C 
ATOM     14  C   UNL     1      -2.442  11.780  18.867  0.00  0.00    +0.000 A 
ENDROOT
BRANCH  10  15
ATOM     15  C   UNL     1       1.038  16.473  22.955  0.00  0.00    +0.000 A 
ATOM     16  C   UNL     1       2.392  16.197  22.855  0.00  0.00    +0.000 A 
ATOM     17  C   UNL     1       3.159  17.329  22.450  0.00  0.00    +0.000 A 
ATOM     18  C   UNL     1       2.358  18.405  22.149  0.00  0.00    +0.000 A 
ATOM     19  S   UNL     1       0.704  18.066  22.398  0.00  0.00    +0.000 S 
ENDBRANCH  10  15
BRANCH   1  20
ATOM     20  C   UNL     1      -2.795   9.672  17.452  0.00  0.00    +0.000 C 
BRANCH  20  22
ATOM     21  C   UNL     1      -2.733  10.553  15.269  0.00  0.00    +0.000 C 
ATOM     22  O   UNL     1      -3.353   9.616  16.135  0.00  0.00    +0.000 OA
ENDBRANCH  20  22
ENDBRANCH   1  20
BRANCH   3  23
ATOM     23  C   UNL     1      -6.640  12.230  18.869  0.00  0.00    +0.000 C 
BRANCH  23  24
ATOM     24  C   UNL     1      -7.394  11.467  19.977  0.00  0.00    +0.000 C 
ATOM     25  C   UNL     1      -7.109   9.964  19.938  0.00  0.00    +0.000 C 
ATOM     26  C   UNL     1      -7.010  12.031  21.347  0.00  0.00    +0.000 C 
ENDBRANCH  23  24
ENDBRANCH   3  23
BRANCH  14  27
ATOM     27  C   UNL     1      -0.936  11.638  18.788  0.00  0.00    +0.000 C 
BRANCH  27  28
ATOM     28  C   UNL     1      -0.283  10.605  19.711  0.00  0.00    +0.000 A 
ATOM     29  C   UNL     1      -0.622  10.529  21.078  0.00  0.00    +0.000 A 
ATOM     30  C   UNL     1       0.026   9.649  21.953  0.00  0.00    +0.000 A 
ATOM     31  C   UNL     1      -0.248   9.705  23.427  0.00  0.00    +0.000 C 
ATOM     32  C   UNL     1       0.991   8.780  21.447  0.00  0.00    +0.000 A 
ATOM     33  C   UNL     1       1.318   8.807  20.092  0.00  0.00    +0.000 A 
ATOM     34  C   UNL     1       0.709   9.723  19.219  0.00  0.00    +0.000 A 
ATOM     35  C   UNL     1       1.148   9.742  17.779  0.00  0.00    +0.000 C 
ENDBRANCH  27  28
ENDBRANCH  14  27
TORSDOF 7
ENDMDL
MODEL 2
REMARK VINA RESULT:      -6.2      3.397      5.989
REMARK  Name = 
REMARK  12 active torsions:
REMARK  status: ('A' for Active; 'I' for Inactive)
REMARK    1  A    between atoms: C_1  and  O_2
REMARK    2  A    between atoms: O_2  and  C_3
REMARK    3  A    between atoms: C_3  and  C_4
REMARK    4  A    between atoms: C_6  and  C_7
REMARK    5  A    between atoms: C_7  and  C_8
REMARK    6  A    between atoms: C_8  and  C_9
REMARK    7  A    between atoms: C_8  and  C_10
REMARK    8  A    between atoms: C_17  and  C_19
REMARK    9  A    between atoms: C_26  and  C_27
REMARK   10  A    between atoms: C_27  and  C_28
REMARK   11  A    between atoms: C_30  and  C_31
REMARK   12  A    between atoms: C_34  and  C_35
REMARK                            x       y       z     vdW  Elec       q    Type
REMARK                         _______ _______ _______ _____ _____    ______ ____
ROOT
ATOM      1  C   UNL     1       0.032  12.226  19.325  0.00  0.00    +0.000 A 
ATOM      2  N   UNL     1      -0.421  11.348  18.406  0.00  0.00    +0.000 NA
ATOM      3  C   UNL     1      -1.746  11.203  18.292  0.00  0.00    +0.000 A 
ATOM      4  N   UNL     1      -2.644  11.872  19.034  0.00  0.00    +0.000 NA
ATOM      5  C   UNL     1      -2.196  12.778  19.927  0.00  0.00    +0.000 A 
ATOM      6  N   UNL     1      -3.137  13.339  20.760  0.00  0.00    +0.000 N 
ATOM      7  C   UNL     1      -4.320  12.546  21.120  0.00  0.00    +0.000 C 
ATOM      8  C   UNL     1      -4.708  12.905  22.575  0.00  0.00    +0.000 C 
ATOM      9  N   UNL     1      -4.818  14.366  22.784  0.00  0.00    +0.000 N 
ATOM     10  C   UNL     1      -5.778  14.839  23.681  0.00  0.00    +0.000 C 
ATOM     11  O   UNL     1      -6.497  14.038  24.283  0.00  0.00    +0.000 OA
ATOM     12  C   UNL     1      -3.651  15.121  22.296  0.00  0.00    +0.000 C 
ATOM     13  C   UNL     1      -3.384  14.779  20.815  0.00  0.00    +0.000 C 
ATOM     14  C   UNL     1      -0.823  13.022  20.091  0.00  0.00    +0.000 A 
ENDROOT
BRANCH  10  15
ATOM     15  C   UNL     1      -5.919  16.281  23.867  0.00  0.00    +0.000 A 
ATOM     16  C   UNL     1      -5.322  17.143  24.773  0.00  0.00    +0.000 A 
ATOM     17  C   UNL     1      -5.784  18.486  24.645  0.00  0.00    +0.000 A 
ATOM     18  C   UNL     1      -6.639  18.631  23.579  0.00  0.00    +0.000 A 
ATOM     19  S   UNL     1      -6.916  17.153  22.770  0.00  0.00    +0.000 S 
ENDBRANCH  10  15
BRANCH   1  20
ATOM     20  C   UNL     1       1.540  12.245  19.474  0.00  0.00    +0.000 C 
BRANCH  20  22
ATOM     21  C   UNL     1       2.731  13.793  18.159  0.00  0.00    +0.000 C 
ATOM     22  O   UNL     1       2.174  12.489  18.214  0.00  0.00    +0.000 OA
ENDBRANCH  20  22
ENDBRANCH   1  20
BRANCH   3  23
ATOM     23  C   UNL     1      -2.254  10.248  17.247  0.00  0.00    +0.000 C 
BRANCH  23  24
ATOM     24  C   UNL     1      -2.951  10.936  16.056  0.00  0.00    +0.000 C 
ATOM     25  C   UNL     1      -2.871  10.097  14.779  0.00  0.00    +0.000 C 
ATOM     26  C   UNL     1      -4.417  11.211  16.404  0.00  0.00    +0.000 C 
ENDBRANCH  23  24
ENDBRANCH   3  23
BRANCH  14  27
ATOM     27  C   UNL     1      -0.282  14.062  21.050  0.00  0.00    +0.000 C 
BRANCH  27  28
ATOM     28  C   UNL     1       0.265  15.356  20.440  0.00  0.00    +0.000 A 
ATOM     29  C   UNL     1      -0.405  16.005  19.383  0.00  0.00    +0.000 A 
ATOM     30  C   UNL     1       0.126  17.140  18.757  0.00  0.00    +0.000 A 
ATOM     31  C   UNL     1      -0.534  17.712  17.536  0.00  0.00    +0.000 C 
ATOM     32  C   UNL     1       1.320  17.679  19.232  0.00  0.00    +0.000 A 
ATOM     33  C   UNL     1       1.984  17.079  20.301  0.00  0.00    +0.000 A 
ATOM     34  C   UNL     1       1.484  15.911  20.900  0.00  0.00    +0.000 A 
ATOM     35  C   UNL     1       2.278  15.279  22.011  0.00  0.00    +0.000 C 
ENDBRANCH  27  28
ENDBRANCH  14  27
TORSDOF 7
ENDMDL
MODEL 3
REMARK VINA RESULT:      -6.2      0.882      1.194
REMARK  Name = 
REMARK  12 active torsions:
REMARK  status: ('A' for Active; 'I' for Inactive)
REMARK    1  A    between atoms: C_1  and  O_2
REMARK    2  A    between atoms: O_2  and  C_3
REMARK    3  A    between atoms: C_3  and  C_4
REMARK    4  A    between atoms: C_6  and  C_7
REMARK    5  A    between atoms: C_7  and  C_8
REMARK    6  A    between atoms: C_8  and  C_9
REMARK    7  A    between atoms: C_8  and  C_10
REMARK    8  A    between atoms: C_17  and  C_19
REMARK    9  A    between atoms: C_26  and  C_27
REMARK   10  A    between atoms: C_27  and  C_28
REMARK   11  A    between atoms: C_30  and  C_31
REMARK   12  A    between atoms: C_34  and  C_35
REMARK                            x       y       z     vdW  Elec       q    Type
REMARK                         _______ _______ _______ _____ _____    ______ ____
ROOT
ATOM      1  C   UNL     1      -3.271  10.916  18.345  0.00  0.00    +0.000 A 
ATOM      2  N   UNL     1      -4.604  11.116  18.396  0.00  0.00    +0.000 NA
ATOM      3  C   UNL     1      -5.043  12.171  19.092  0.00  0.00    +0.000 A 
ATOM      4  N   UNL     1      -4.242  13.034  19.738  0.00  0.00    +0.000 NA
ATOM      5  C   UNL     1      -2.907  12.859  19.657  0.00  0.00    +0.000 A 
ATOM      6  N   UNL     1      -2.129  13.679  20.442  0.00  0.00    +0.000 N 
ATOM      7  C   UNL     1      -2.682  14.167  21.713  0.00  0.00    +0.000 C 
ATOM      8  C   UNL     1      -1.522  14.259  22.733  0.00  0.00    +0.000 C 
ATOM      9  N   UNL     1      -0.361  15.007  22.199  0.00  0.00    +0.000 N 
ATOM     10  C   UNL     1       0.393  15.782  23.083  0.00  0.00    +0.000 C 
ATOM     11  O   UNL     1       0.088  15.816  24.278  0.00  0.00    +0.000 OA
ATOM     12  C   UNL     1       0.076  14.548  20.870  0.00  0.00    +0.000 C 
ATOM     13  C   UNL     1      -1.114  14.574  19.888  0.00  0.00    +0.000 C 
ATOM     14  C   UNL     1      -2.354  11.799  18.920  0.00  0.00    +0.000 A 
ENDROOT
BRANCH  10  15
ATOM     15  C   UNL     1       1.519  16.553  22.561  0.00  0.00    +0.000 A 
ATOM     16  C   UNL     1       1.573  17.825  22.014  0.00  0.00    +0.000 A 
ATOM     17  C   UNL     1       2.881  18.182  21.575  0.00  0.00    +0.000 A 
ATOM     18  C   UNL     1       3.807  17.217  21.894  0.00  0.00    +0.000 A 
ATOM     19  S   UNL     1       3.095  15.876  22.674  0.00  0.00    +0.000 S 
ENDBRANCH  10  15
BRANCH   1  20
ATOM     20  C   UNL     1      -2.863   9.638  17.640  0.00  0.00    +0.000 C 
BRANCH  20  22
ATOM     21  C   UNL     1      -2.732  10.522  15.461  0.00  0.00    +0.000 C 
ATOM     22  O   UNL     1      -3.392   9.597  16.310  0.00  0.00    +0.000 OA
ENDBRANCH  20  22
ENDBRANCH   1  20
BRANCH   3  23
ATOM     23  C   UNL     1      -6.527  12.414  19.125  0.00  0.00    +0.000 C 
BRANCH  23  24
ATOM     24  C   UNL     1      -6.955  13.546  20.081  0.00  0.00    +0.000 C 
ATOM     25  C   UNL     1      -7.913  14.533  19.411  0.00  0.00    +0.000 C 
ATOM     26  C   UNL     1      -7.614  12.949  21.327  0.00  0.00    +0.000 C 
ENDBRANCH  23  24
ENDBRANCH   3  23
BRANCH  14  27
ATOM     27  C   UNL     1      -0.861  11.595  18.768  0.00  0.00    +0.000 C 
BRANCH  27  28
ATOM     28  C   UNL     1      -0.202  10.558  19.684  0.00  0.00    +0.000 A 
ATOM     29  C   UNL     1      -0.540  10.472  21.050  0.00  0.00    +0.000 A 
ATOM     30  C   UNL     1       0.114   9.589  21.918  0.00  0.00    +0.000 A 
ATOM     31  C   UNL     1      -0.160   9.633  23.393  0.00  0.00    +0.000 C 
ATOM     32  C   UNL     1       1.083   8.728  21.406  0.00  0.00    +0.000 A 
ATOM     33  C   UNL     1       1.409   8.767  20.051  0.00  0.00    +0.000 A 
ATOM     34  C   UNL     1       0.794   9.686  19.184  0.00  0.00    +0.000 A 
ATOM     35  C   UNL     1       1.233   9.716  17.744  0.00  0.00    +0.000 C 
ENDBRANCH  27  28
ENDBRANCH  14  27
TORSDOF 7
ENDMDL
MODEL 4
REMARK VINA RESULT:      -6.2      1.929      2.340
REMARK  Name = 
REMARK  12 active torsions:
REMARK  status: ('A' for Active; 'I' for Inactive)
REMARK    1  A    between atoms: C_1  and  O_2
REMARK    2  A    between atoms: O_2  and  C_3
REMARK    3  A    between atoms: C_3  and  C_4
REMARK    4  A    between atoms: C_6  and  C_7
REMARK    5  A    between atoms: C_7  and  C_8
REMARK    6  A    between atoms: C_8  and  C_9
REMARK    7  A    between atoms: C_8  and  C_10
REMARK    8  A    between atoms: C_17  and  C_19
REMARK    9  A    between atoms: C_26  and  C_27
REMARK   10  A    between atoms: C_27  and  C_28
REMARK   11  A    between atoms: C_30  and  C_31
REMARK   12  A    between atoms: C_34  and  C_35
REMARK                            x       y       z     vdW  Elec       q    Type
REMARK                         _______ _______ _______ _____ _____    ______ ____
ROOT
ATOM      1  C   UNL     1      -2.973  11.037  18.549  0.00  0.00    +0.000 A 
ATOM      2  N   UNL     1      -4.187  11.579  18.781  0.00  0.00    +0.000 NA
ATOM      3  C   UNL     1      -4.224  12.778  19.372  0.00  0.00    +0.000 A 
ATOM      4  N   UNL     1      -3.134  13.468  19.746  0.00  0.00    +0.000 NA
ATOM      5  C   UNL     1      -1.919  12.947  19.481  0.00  0.00    +0.000 A 
ATOM      6  N   UNL     1      -0.835  13.618  20.001  0.00  0.00    +0.000 N 
ATOM      7  C   UNL     1      -1.004  14.363  21.255  0.00  0.00    +0.000 C 
ATOM      8  C   UNL     1       0.318  14.259  22.053  0.00  0.00    +0.000 C 
ATOM      9  N   UNL     1       1.498  14.623  21.236  0.00  0.00    +0.000 N 
ATOM     10  C   UNL     1       2.568  15.266  21.863  0.00  0.00    +0.000 C 
ATOM     11  O   UNL     1       2.513  15.503  23.072  0.00  0.00    +0.000 OA
ATOM     12  C   UNL     1       1.552  13.929  19.937  0.00  0.00    +0.000 C 
ATOM     13  C   UNL     1       0.236  14.157  19.164  0.00  0.00    +0.000 C 
ATOM     14  C   UNL     1      -1.782  11.709  18.833  0.00  0.00    +0.000 A 
ENDROOT
BRANCH  10  15
ATOM     15  C   UNL     1       3.722  15.661  21.058  0.00  0.00    +0.000 A 
ATOM     16  C   UNL     1       3.872  16.667  20.118  0.00  0.00    +0.000 A 
ATOM     17  C   UNL     1       5.166  16.677  19.520  0.00  0.00    +0.000 A 
ATOM     18  C   UNL     1       6.000  15.748  20.096  0.00  0.00    +0.000 A 
ATOM     19  S   UNL     1       5.213  14.844  21.313  0.00  0.00    +0.000 S 
ENDBRANCH  10  15
BRANCH   1  20
ATOM     20  C   UNL     1      -3.018   9.630  17.988  0.00  0.00    +0.000 C 
BRANCH  20  22
ATOM     21  C   UNL     1      -2.709  10.203  15.724  0.00  0.00    +0.000 C 
ATOM     22  O   UNL     1      -3.589   9.623  16.674  0.00  0.00    +0.000 OA
ENDBRANCH  20  22
ENDBRANCH   1  20
BRANCH   3  23
ATOM     23  C   UNL     1      -5.575  13.397  19.604  0.00  0.00    +0.000 C 
BRANCH  23  24
ATOM     24  C   UNL     1      -6.368  13.672  18.311  0.00  0.00    +0.000 C 
ATOM     25  C   UNL     1      -7.551  12.714  18.147  0.00  0.00    +0.000 C 
ATOM     26  C   UNL     1      -6.869  15.118  18.308  0.00  0.00    +0.000 C 
ENDBRANCH  23  24
ENDBRANCH   3  23
BRANCH  14  27
ATOM     27  C   UNL     1      -0.436  11.112  18.477  0.00  0.00    +0.000 C 
BRANCH  27  28
ATOM     28  C   UNL     1       0.179  10.133  19.482  0.00  0.00    +0.000 A 
ATOM     29  C   UNL     1      -0.219  10.127  20.834  0.00  0.00    +0.000 A 
ATOM     30  C   UNL     1       0.393   9.298  21.782  0.00  0.00    +0.000 A 
ATOM     31  C   UNL     1       0.053   9.429  23.237  0.00  0.00    +0.000 C 
ATOM     32  C   UNL     1       1.382   8.409  21.366  0.00  0.00    +0.000 A 
ATOM     33  C   UNL     1       1.769   8.367  20.027  0.00  0.00    +0.000 A 
ATOM     34  C   UNL     1       1.195   9.233  19.080  0.00  0.00    +0.000 A 
ATOM     35  C   UNL     1       1.698   9.178  17.662  0.00  0.00    +0.000 C 
ENDBRANCH  27  28
ENDBRANCH  14  27
TORSDOF 7
ENDMDL
MODEL 5
REMARK VINA RESULT:      -6.2      1.800      2.147
REMARK  Name = 
REMARK  12 active torsions:
REMARK  status: ('A' for Active; 'I' for Inactive)
REMARK    1  A    between atoms: C_1  and  O_2
REMARK    2  A    between atoms: O_2  and  C_3
REMARK    3  A    between atoms: C_3  and  C_4
REMARK    4  A    between atoms: C_6  and  C_7
REMARK    5  A    between atoms: C_7  and  C_8
REMARK    6  A    between atoms: C_8  and  C_9
REMARK    7  A    between atoms: C_8  and  C_10
REMARK    8  A    between atoms: C_17  and  C_19
REMARK    9  A    between atoms: C_26  and  C_27
REMARK   10  A    between atoms: C_27  and  C_28
REMARK   11  A    between atoms: C_30  and  C_31
REMARK   12  A    between atoms: C_34  and  C_35
REMARK                            x       y       z     vdW  Elec       q    Type
REMARK                         _______ _______ _______ _____ _____    ______ ____
ROOT
ATOM      1  C   UNL     1      -2.983  11.261  18.759  0.00  0.00    +0.000 A 
ATOM      2  N   UNL     1      -4.182  11.822  19.021  0.00  0.00    +0.000 NA
ATOM      3  C   UNL     1      -4.185  13.019  19.618  0.00  0.00    +0.000 A 
ATOM      4  N   UNL     1      -3.075  13.689  19.971  0.00  0.00    +0.000 NA
ATOM      5  C   UNL     1      -1.875  13.148  19.675  0.00  0.00    +0.000 A 
ATOM      6  N   UNL     1      -0.768  13.797  20.173  0.00  0.00    +0.000 N 
ATOM      7  C   UNL     1      -0.895  14.539  21.435  0.00  0.00    +0.000 C 
ATOM      8  C   UNL     1       0.443  14.408  22.201  0.00  0.00    +0.000 C 
ATOM      9  N   UNL     1       1.609  14.756  21.359  0.00  0.00    +0.000 N 
ATOM     10  C   UNL     1       2.704  15.377  21.965  0.00  0.00    +0.000 C 
ATOM     11  O   UNL     1       2.682  15.609  23.176  0.00  0.00    +0.000 OA
ATOM     12  C   UNL     1       1.622  14.068  20.057  0.00  0.00    +0.000 C 
ATOM     13  C   UNL     1       0.293  14.322  19.315  0.00  0.00    +0.000 C 
ATOM     14  C   UNL     1      -1.774  11.911  19.018  0.00  0.00    +0.000 A 
ENDROOT
BRANCH  10  15
ATOM     15  C   UNL     1       3.846  15.757  21.136  0.00  0.00    +0.000 A 
ATOM     16  C   UNL     1       5.038  15.100  20.874  0.00  0.00    +0.000 A 
ATOM     17  C   UNL     1       5.914  15.855  20.042  0.00  0.00    +0.000 A 
ATOM     18  C   UNL     1       5.325  17.018  19.605  0.00  0.00    +0.000 A 
ATOM     19  S   UNL     1       3.749  17.216  20.231  0.00  0.00    +0.000 S 
ENDBRANCH  10  15
BRANCH   1  20
ATOM     20  C   UNL     1      -3.066   9.858  18.192  0.00  0.00    +0.000 C 
BRANCH  20  22
ATOM     21  C   UNL     1      -2.677   9.987  15.873  0.00  0.00    +0.000 C 
ATOM     22  O   UNL     1      -3.660   9.868  16.889  0.00  0.00    +0.000 OA
ENDBRANCH  20  22
ENDBRANCH   1  20
BRANCH   3  23
ATOM     23  C   UNL     1      -5.519  13.660  19.884  0.00  0.00    +0.000 C 
BRANCH  23  24
ATOM     24  C   UNL     1      -6.422  12.854  20.839  0.00  0.00    +0.000 C 
ATOM     25  C   UNL     1      -5.905  12.880  22.279  0.00  0.00    +0.000 C 
ATOM     26  C   UNL     1      -7.849  13.406  20.792  0.00  0.00    +0.000 C 
ENDBRANCH  23  24
ENDBRANCH   3  23
BRANCH  14  27
ATOM     27  C   UNL     1      -0.447  11.293  18.630  0.00  0.00    +0.000 C 
BRANCH  27  28
ATOM     28  C   UNL     1       0.147  10.256  19.588  0.00  0.00    +0.000 A 
ATOM     29  C   UNL     1      -0.249  10.201  20.940  0.00  0.00    +0.000 A 
ATOM     30  C   UNL     1       0.345   9.317  21.849  0.00  0.00    +0.000 A 
ATOM     31  C   UNL     1       0.011   9.393  23.310  0.00  0.00    +0.000 C 
ATOM     32  C   UNL     1       1.312   8.425  21.392  0.00  0.00    +0.000 A 
ATOM     33  C   UNL     1       1.696   8.432  20.051  0.00  0.00    +0.000 A 
ATOM     34  C   UNL     1       1.140   9.351  19.145  0.00  0.00    +0.000 A 
ATOM     35  C   UNL     1       1.639   9.347  17.725  0.00  0.00    +0.000 C 
ENDBRANCH  27  28
ENDBRANCH  14  27
TORSDOF 7
ENDMDL
MODEL 6
REMARK VINA RESULT:      -5.9      3.212      5.626
REMARK  Name = 
REMARK  12 active torsions:
REMARK  status: ('A' for Active; 'I' for Inactive)
REMARK    1  A    between atoms: C_1  and  O_2
REMARK    2  A    between atoms: O_2  and  C_3
REMARK    3  A    between atoms: C_3  and  C_4
REMARK    4  A    between atoms: C_6  and  C_7
REMARK    5  A    between atoms: C_7  and  C_8
REMARK    6  A    between atoms: C_8  and  C_9
REMARK    7  A    between atoms: C_8  and  C_10
REMARK    8  A    between atoms: C_17  and  C_19
REMARK    9  A    between atoms: C_26  and  C_27
REMARK   10  A    between atoms: C_27  and  C_28
REMARK   11  A    between atoms: C_30  and  C_31
REMARK   12  A    between atoms: C_34  and  C_35
REMARK                            x       y       z     vdW  Elec       q    Type
REMARK                         _______ _______ _______ _____ _____    ______ ____
ROOT
ATOM      1  C   UNL     1      -0.299  10.041  18.070  0.00  0.00    +0.000 A 
ATOM      2  N   UNL     1       0.549   9.073  17.665  0.00  0.00    +0.000 NA
ATOM      3  C   UNL     1       1.859   9.336  17.726  0.00  0.00    +0.000 A 
ATOM      4  N   UNL     1       2.376  10.497  18.162  0.00  0.00    +0.000 NA
ATOM      5  C   UNL     1       1.532  11.452  18.604  0.00  0.00    +0.000 A 
ATOM      6  N   UNL     1       2.090  12.672  18.912  0.00  0.00    +0.000 N 
ATOM      7  C   UNL     1       3.291  13.100  18.183  0.00  0.00    +0.000 C 
ATOM      8  C   UNL     1       3.218  14.636  18.006  0.00  0.00    +0.000 C 
ATOM      9  N   UNL     1       2.948  15.337  19.281  0.00  0.00    +0.000 N 
ATOM     10  C   UNL     1       3.527  16.592  19.485  0.00  0.00    +0.000 C 
ATOM     11  O   UNL     1       4.233  17.088  18.604  0.00  0.00    +0.000 OA
ATOM     12  C   UNL     1       1.801  14.788  20.025  0.00  0.00    +0.000 C 
ATOM     13  C   UNL     1       1.993  13.272  20.242  0.00  0.00    +0.000 C 
ATOM     14  C   UNL     1       0.142  11.251  18.609  0.00  0.00    +0.000 A 
ENDROOT
BRANCH  10  15
ATOM     15  C   UNL     1       3.296  17.276  20.755  0.00  0.00    +0.000 A 
ATOM     16  C   UNL     1       2.288  18.140  21.152  0.00  0.00    +0.000 A 
ATOM     17  C   UNL     1       2.471  18.630  22.478  0.00  0.00    +0.000 A 
ATOM     18  C   UNL     1       3.553  18.046  23.093  0.00  0.00    +0.000 A 
ATOM     19  S   UNL     1       4.365  16.953  22.063  0.00  0.00    +0.000 S 
ENDBRANCH  10  15
BRANCH   1  20
ATOM     20  C   UNL     1      -1.763   9.711  17.858  0.00  0.00    +0.000 C 
BRANCH  20  22
ATOM     21  C   UNL     1      -3.555  10.945  16.959  0.00  0.00    +0.000 C 
ATOM     22  O   UNL     1      -2.276  10.386  16.704  0.00  0.00    +0.000 OA
ENDBRANCH  20  22
ENDBRANCH   1  20
BRANCH   3  23
ATOM     23  C   UNL     1       2.808   8.248  17.304  0.00  0.00    +0.000 C 
BRANCH  23  24
ATOM     24  C   UNL     1       2.573   6.901  18.016  0.00  0.00    +0.000 C 
ATOM     25  C   UNL     1       3.622   5.855  17.632  0.00  0.00    +0.000 C 
ATOM     26  C   UNL     1       2.581   7.109  19.533  0.00  0.00    +0.000 C 
ENDBRANCH  23  24
ENDBRANCH   3  23
BRANCH  14  27
ATOM     27  C   UNL     1      -0.835  12.281  19.139  0.00  0.00    +0.000 C 
BRANCH  27  28
ATOM     28  C   UNL     1      -1.202  12.194  20.623  0.00  0.00    +0.000 A 
ATOM     29  C   UNL     1      -0.703  11.159  21.440  0.00  0.00    +0.000 A 
ATOM     30  C   UNL     1      -1.096  11.017  22.776  0.00  0.00    +0.000 A 
ATOM     31  C   UNL     1      -0.669   9.817  23.570  0.00  0.00    +0.000 C 
ATOM     32  C   UNL     1      -1.958  11.960  23.333  0.00  0.00    +0.000 A 
ATOM     33  C   UNL     1      -2.437  13.015  22.558  0.00  0.00    +0.000 A 
ATOM     34  C   UNL     1      -2.087  13.135  21.202  0.00  0.00    +0.000 A 
ATOM     35  C   UNL     1      -2.685  14.264  20.405  0.00  0.00    +0.000 C 
ENDBRANCH  27  28
ENDBRANCH  14  27
TORSDOF 7
ENDMDL
MODEL 7
REMARK VINA RESULT:      -5.8      1.559      2.221
REMARK  Name = 
REMARK  12 active torsions:
REMARK  status: ('A' for Active; 'I' for Inactive)
REMARK    1  A    between atoms: C_1  and  O_2
REMARK    2  A    between atoms: O_2  and  C_3
REMARK    3  A    between atoms: C_3  and  C_4
REMARK    4  A    between atoms: C_6  and  C_7
REMARK    5  A    between atoms: C_7  and  C_8
REMARK    6  A    between atoms: C_8  and  C_9
REMARK    7  A    between atoms: C_8  and  C_10
REMARK    8  A    between atoms: C_17  and  C_19
REMARK    9  A    between atoms: C_26  and  C_27
REMARK   10  A    between atoms: C_27  and  C_28
REMARK   11  A    between atoms: C_30  and  C_31
REMARK   12  A    between atoms: C_34  and  C_35
REMARK                            x       y       z     vdW  Elec       q    Type
REMARK                         _______ _______ _______ _____ _____    ______ ____
ROOT
ATOM      1  C   UNL     1      -3.116  11.375  18.456  0.00  0.00    +0.000 A 
ATOM      2  N   UNL     1      -4.438  11.250  18.220  0.00  0.00    +0.000 NA
ATOM      3  C   UNL     1      -5.273  11.937  19.008  0.00  0.00    +0.000 A 
ATOM      4  N   UNL     1      -4.875  12.735  20.013  0.00  0.00    +0.000 NA
ATOM      5  C   UNL     1      -3.553  12.892  20.227  0.00  0.00    +0.000 A 
ATOM      6  N   UNL     1      -3.191  13.605  21.347  0.00  0.00    +0.000 N 
ATOM      7  C   UNL     1      -4.077  13.575  22.518  0.00  0.00    +0.000 C 
ATOM      8  C   UNL     1      -3.193  13.626  23.786  0.00  0.00    +0.000 C 
ATOM      9  N   UNL     1      -2.212  14.734  23.744  0.00  0.00    +0.000 N 
ATOM     10  C   UNL     1      -1.877  15.372  24.940  0.00  0.00    +0.000 C 
ATOM     11  O   UNL     1      -2.389  14.994  25.997  0.00  0.00    +0.000 OA
ATOM     12  C   UNL     1      -1.432  14.784  22.495  0.00  0.00    +0.000 C 
ATOM     13  C   UNL     1      -2.384  14.823  21.282  0.00  0.00    +0.000 C 
ATOM     14  C   UNL     1      -2.602  12.237  19.427  0.00  0.00    +0.000 A 
ENDROOT
BRANCH  10  15
ATOM     15  C   UNL     1      -0.937  16.490  24.904  0.00  0.00    +0.000 A 
ATOM     16  C   UNL     1       0.234  16.716  25.608  0.00  0.00    +0.000 A 
ATOM     17  C   UNL     1       0.827  17.977  25.305  0.00  0.00    +0.000 A 
ATOM     18  C   UNL     1       0.150  18.630  24.303  0.00  0.00    +0.000 A 
ATOM     19  S   UNL     1      -1.212  17.750  23.767  0.00  0.00    +0.000 S 
ENDBRANCH  10  15
BRANCH   1  20
ATOM     20  C   UNL     1      -2.246  10.476  17.601  0.00  0.00    +0.000 C 
BRANCH  20  22
ATOM     21  C   UNL     1      -2.800  10.187  15.330  0.00  0.00    +0.000 C 
ATOM     22  O   UNL     1      -3.038   9.746  16.658  0.00  0.00    +0.000 OA
ENDBRANCH  20  22
ENDBRANCH   1  20
BRANCH   3  23
ATOM     23  C   UNL     1      -6.746  11.824  18.727  0.00  0.00    +0.000 C 
BRANCH  23  24
ATOM     24  C   UNL     1      -7.507  10.930  19.727  0.00  0.00    +0.000 C 
ATOM     25  C   UNL     1      -6.992   9.489  19.718  0.00  0.00    +0.000 C 
ATOM     26  C   UNL     1      -7.387  11.514  21.137  0.00  0.00    +0.000 C 
ENDBRANCH  23  24
ENDBRANCH   3  23
BRANCH  14  27
ATOM     27  C   UNL     1      -1.109  12.422  19.607  0.00  0.00    +0.000 C 
BRANCH  27  28
ATOM     28  C   UNL     1      -0.277  11.162  19.864  0.00  0.00    +0.000 A 
ATOM     29  C   UNL     1       0.470  10.558  18.833  0.00  0.00    +0.000 A 
ATOM     30  C   UNL     1       1.167   9.359  19.029  0.00  0.00    +0.000 A 
ATOM     31  C   UNL     1       1.821   8.663  17.872  0.00  0.00    +0.000 C 
ATOM     32  C   UNL     1       1.173   8.779  20.296  0.00  0.00    +0.000 A 
ATOM     33  C   UNL     1       0.473   9.377  21.344  0.00  0.00    +0.000 A 
ATOM     34  C   UNL     1      -0.271  10.552  21.141  0.00  0.00    +0.000 A 
ATOM     35  C   UNL     1      -1.051  11.114  22.299  0.00  0.00    +0.000 C 
ENDBRANCH  27  28
ENDBRANCH  14  27
TORSDOF 7
ENDMDL
MODEL 8
REMARK VINA RESULT:      -5.7      4.125      9.084
REMARK  Name = 
REMARK  12 active torsions:
REMARK  status: ('A' for Active; 'I' for Inactive)
REMARK    1  A    between atoms: C_1  and  O_2
REMARK    2  A    between atoms: O_2  and  C_3
REMARK    3  A    between atoms: C_3  and  C_4
REMARK    4  A    between atoms: C_6  and  C_7
REMARK    5  A    between atoms: C_7  and  C_8
REMARK    6  A    between atoms: C_8  and  C_9
REMARK    7  A    between atoms: C_8  and  C_10
REMARK    8  A    between atoms: C_17  and  C_19
REMARK    9  A    between atoms: C_26  and  C_27
REMARK   10  A    between atoms: C_27  and  C_28
REMARK   11  A    between atoms: C_30  and  C_31
REMARK   12  A    between atoms: C_34  and  C_35
REMARK                            x       y       z     vdW  Elec       q    Type
REMARK                         _______ _______ _______ _____ _____    ______ ____
ROOT
ATOM      1  C   UNL     1       4.329  15.713  20.040  0.00  0.00    +0.000 A 
ATOM      2  N   UNL     1       4.940  15.377  21.196  0.00  0.00    +0.000 NA
ATOM      3  C   UNL     1       4.380  14.410  21.931  0.00  0.00    +0.000 A 
ATOM      4  N   UNL     1       3.254  13.760  21.590  0.00  0.00    +0.000 NA
ATOM      5  C   UNL     1       2.663  14.067  20.418  0.00  0.00    +0.000 A 
ATOM      6  N   UNL     1       1.443  13.479  20.171  0.00  0.00    +0.000 N 
ATOM      7  C   UNL     1       0.578  13.150  21.312  0.00  0.00    +0.000 C 
ATOM      8  C   UNL     1      -0.891  13.358  20.871  0.00  0.00    +0.000 C 
ATOM      9  N   UNL     1      -1.200  12.665  19.600  0.00  0.00    +0.000 N 
ATOM     10  C   UNL     1      -2.481  12.136  19.426  0.00  0.00    +0.000 C 
ATOM     11  O   UNL     1      -3.322  12.267  20.319  0.00  0.00    +0.000 OA
ATOM     12  C   UNL     1      -0.231  12.942  18.526  0.00  0.00    +0.000 C 
ATOM     13  C   UNL     1       1.198  12.623  19.012  0.00  0.00    +0.000 C 
ATOM     14  C   UNL     1       3.199  15.044  19.564  0.00  0.00    +0.000 A 
ENDROOT
BRANCH  10  15
ATOM     15  C   UNL     1      -2.786  11.418  18.191  0.00  0.00    +0.000 A 
ATOM     16  C   UNL     1      -3.773  11.623  17.240  0.00  0.00    +0.000 A 
ATOM     17  C   UNL     1      -3.749  10.648  16.200  0.00  0.00    +0.000 A 
ATOM     18  C   UNL     1      -2.682   9.792  16.329  0.00  0.00    +0.000 A 
ATOM     19  S   UNL     1      -1.746  10.134  17.715  0.00  0.00    +0.000 S 
ENDBRANCH  10  15
BRANCH   1  20
ATOM     20  C   UNL     1       4.957  16.893  19.327  0.00  0.00    +0.000 C 
BRANCH  20  22
ATOM     21  C   UNL     1       6.824  15.858  18.332  0.00  0.00    +0.000 C 
ATOM     22  O   UNL     1       6.385  16.782  19.316  0.00  0.00    +0.000 OA
ENDBRANCH  20  22
ENDBRANCH   1  20
BRANCH   3  23
ATOM     23  C   UNL     1       5.075  14.014  23.204  0.00  0.00    +0.000 C 
BRANCH  23  24
ATOM     24  C   UNL     1       5.959  15.124  23.807  0.00  0.00    +0.000 C 
ATOM     25  C   UNL     1       5.224  15.922  24.886  0.00  0.00    +0.000 C 
ATOM     26  C   UNL     1       7.232  14.510  24.394  0.00  0.00    +0.000 C 
ENDBRANCH  23  24
ENDBRANCH   3  23
BRANCH  14  27
ATOM     27  C   UNL     1       2.590  15.385  18.219  0.00  0.00    +0.000 C 
BRANCH  27  28
ATOM     28  C   UNL     1       1.532  16.492  18.194  0.00  0.00    +0.000 A 
ATOM     29  C   UNL     1       0.446  16.485  19.092  0.00  0.00    +0.000 A 
ATOM     30  C   UNL     1      -0.575  17.443  19.025  0.00  0.00    +0.000 A 
ATOM     31  C   UNL     1      -1.793  17.315  19.892  0.00  0.00    +0.000 C 
ATOM     32  C   UNL     1      -0.482  18.467  18.084  0.00  0.00    +0.000 A 
ATOM     33  C   UNL     1       0.602  18.519  17.209  0.00  0.00    +0.000 A 
ATOM     34  C   UNL     1       1.602  17.532  17.236  0.00  0.00    +0.000 A 
ATOM     35  C   UNL     1       2.715  17.613  16.226  0.00  0.00    +0.000 C 
ENDBRANCH  27  28
ENDBRANCH  14  27
TORSDOF 7
ENDMDL
MODEL 9
REMARK VINA RESULT:      -5.6      3.077      4.865
REMARK  Name = 
REMARK  12 active torsions:
REMARK  status: ('A' for Active; 'I' for Inactive)
REMARK    1  A    between atoms: C_1  and  O_2
REMARK    2  A    between atoms: O_2  and  C_3
REMARK    3  A    between atoms: C_3  and  C_4
REMARK    4  A    between atoms: C_6  and  C_7
REMARK    5  A    between atoms: C_7  and  C_8
REMARK    6  A    between atoms: C_8  and  C_9
REMARK    7  A    between atoms: C_8  and  C_10
REMARK    8  A    between atoms: C_17  and  C_19
REMARK    9  A    between atoms: C_26  and  C_27
REMARK   10  A    between atoms: C_27  and  C_28
REMARK   11  A    between atoms: C_30  and  C_31
REMARK   12  A    between atoms: C_34  and  C_35
REMARK                            x       y       z     vdW  Elec       q    Type
REMARK                         _______ _______ _______ _____ _____    ______ ____
ROOT
ATOM      1  C   UNL     1      -1.321  11.274  22.497  0.00  0.00    +0.000 A 
ATOM      2  N   UNL     1      -2.226  11.551  23.459  0.00  0.00    +0.000 NA
ATOM      3  C   UNL     1      -2.594  12.827  23.611  0.00  0.00    +0.000 A 
ATOM      4  N   UNL     1      -2.118  13.842  22.870  0.00  0.00    +0.000 NA
ATOM      5  C   UNL     1      -1.242  13.564  21.882  0.00  0.00    +0.000 A 
ATOM      6  N   UNL     1      -0.677  14.642  21.239  0.00  0.00    +0.000 N 
ATOM      7  C   UNL     1      -0.492  15.891  21.989  0.00  0.00    +0.000 C 
ATOM      8  C   UNL     1       0.812  16.558  21.489  0.00  0.00    +0.000 C 
ATOM      9  N   UNL     1       0.854  16.675  20.014  0.00  0.00    +0.000 N 
ATOM     10  C   UNL     1       1.487  17.786  19.453  0.00  0.00    +0.000 C 
ATOM     11  O   UNL     1       2.003  18.631  20.189  0.00  0.00    +0.000 OA
ATOM     12  C   UNL     1       0.546  15.416  19.314  0.00  0.00    +0.000 C 
ATOM     13  C   UNL     1      -0.810  14.862  19.800  0.00  0.00    +0.000 C 
ATOM     14  C   UNL     1      -0.825  12.248  21.627  0.00  0.00    +0.000 A 
ENDROOT
BRANCH  10  15
ATOM     15  C   UNL     1       1.502  17.929  17.999  0.00  0.00    +0.000 A 
ATOM     16  C   UNL     1       2.436  17.530  17.056  0.00  0.00    +0.000 A 
ATOM     17  C   UNL     1       2.083  17.917  15.731  0.00  0.00    +0.000 A 
ATOM     18  C   UNL     1       0.842  18.506  15.685  0.00  0.00    +0.000 A 
ATOM     19  S   UNL     1       0.132  18.630  17.233  0.00  0.00    +0.000 S 
ENDBRANCH  10  15
BRANCH   1  20
ATOM     20  C   UNL     1      -0.869   9.828  22.468  0.00  0.00    +0.000 C 
BRANCH  20  22
ATOM     21  C   UNL     1       1.404   9.274  22.738  0.00  0.00    +0.000 C 
ATOM     22  O   UNL     1       0.194   9.606  23.401  0.00  0.00    +0.000 OA
ENDBRANCH  20  22
ENDBRANCH   1  20
BRANCH   3  23
ATOM     23  C   UNL     1      -3.625  13.134  24.662  0.00  0.00    +0.000 C 
BRANCH  23  24
ATOM     24  C   UNL     1      -5.010  13.499  24.092  0.00  0.00    +0.000 C 
ATOM     25  C   UNL     1      -5.241  15.011  24.063  0.00  0.00    +0.000 C 
ATOM     26  C   UNL     1      -5.156  12.926  22.680  0.00  0.00    +0.000 C 
ENDBRANCH  23  24
ENDBRANCH   3  23
BRANCH  14  27
ATOM     27  C   UNL     1       0.121  11.889  20.500  0.00  0.00    +0.000 C 
BRANCH  27  28
ATOM     28  C   UNL     1      -0.489  11.223  19.263  0.00  0.00    +0.000 A 
ATOM     29  C   UNL     1      -1.742  11.627  18.758  0.00  0.00    +0.000 A 
ATOM     30  C   UNL     1      -2.352  10.972  17.681  0.00  0.00    +0.000 A 
ATOM     31  C   UNL     1      -3.751  11.327  17.271  0.00  0.00    +0.000 C 
ATOM     32  C   UNL     1      -1.675   9.929  17.052  0.00  0.00    +0.000 A 
ATOM     33  C   UNL     1      -0.418   9.533  17.508  0.00  0.00    +0.000 A 
ATOM     34  C   UNL     1       0.177  10.152  18.619  0.00  0.00    +0.000 A 
ATOM     35  C   UNL     1       1.510   9.639  19.097  0.00  0.00    +0.000 C 
ENDBRANCH  27  28
ENDBRANCH  14  27
TORSDOF 7
ENDMDL
