MODEL 1
REMARK VINA RESULT:      -6.7      0.000      0.000
REMARK  Name = 
REMARK  9 active torsions:
REMARK  status: ('A' for Active; 'I' for Inactive)
REMARK    1  A    between atoms: C_1  and  C_2
REMARK    2  A    between atoms: C_2  and  C_3
REMARK    3  A    between atoms: C_5  and  N_6
REMARK    4  A    between atoms: N_6  and  C_7
REMARK    5  A    between atoms: C_7  and  C_8
REMARK    6  A    between atoms: C_14  and  C_16
REMARK    7  A    between atoms: C_18  and  N_19
REMARK    8  A    between atoms: C_29  and  C_30
REMARK    9  A    between atoms: C_29  and  C_31
REMARK                            x       y       z     vdW  Elec       q    Type
REMARK                         _______ _______ _______ _____ _____    ______ ____
ROOT
ATOM      1  N   UNL     1      -4.082  14.041  22.024  0.00  0.00    +0.000 N 
ATOM      2  C   UNL     1      -4.864  13.979  20.844  0.00  0.00    +0.000 C 
ATOM      3  O   UNL     1      -5.283  14.941  20.204  0.00  0.00    +0.000 OA
ENDROOT
BRANCH   1   8
ATOM      4  C   UNL     1      -6.342  17.836  23.827  0.00  0.00    +0.000 C 
ATOM      5  C   UNL     1      -5.656  16.480  23.654  0.00  0.00    +0.000 C 
ATOM      6  C   UNL     1      -6.720  15.385  23.790  0.00  0.00    +0.000 C 
ATOM      7  C   UNL     1      -4.740  16.521  22.425  0.00  0.00    +0.000 C 
ATOM      8  C   UNL     1      -3.742  15.379  22.650  0.00  0.00    +0.000 C 
ATOM      9  C   UNL     1      -3.581  15.521  24.215  0.00  0.00    +0.000 C 
ATOM     10  C   UNL     1      -2.410  16.465  24.562  0.00  0.00    +0.000 C 
ATOM     11  C   UNL     1      -3.437  14.241  25.021  0.00  0.00    +0.000 C 
ATOM     12  O   UNL     1      -4.743  16.228  24.735  0.00  0.00    +0.000 OA
ENDBRANCH   1   8
BRANCH   2  13
ATOM     13  C   UNL     1      -5.216  12.719  20.190  0.00  0.00    +0.000 A 
ATOM     14  C   UNL     1      -4.391  12.253  19.172  0.00  0.00    +0.000 A 
ATOM     15  C   UNL     1      -4.779  11.194  18.359  0.00  0.00    +0.000 A 
ATOM     16  C   UNL     1      -6.021  10.575  18.612  0.00  0.00    +0.000 A 
ATOM     17  C   UNL     1      -6.880  11.078  19.596  0.00  0.00    +0.000 A 
ATOM     18  C   UNL     1      -6.480  12.162  20.368  0.00  0.00    +0.000 A 
ATOM     19  F   UNL     1      -7.350  12.674  21.252  0.00  0.00    +0.000 F 
BRANCH  15  20
ATOM     20  N   UNL     1      -3.952  10.778  17.300  0.00  0.00    +0.000 N 
ATOM     21  C   UNL     1      -4.173  11.109  15.932  0.00  0.00    +0.000 C 
ATOM     22  C   UNL     1      -3.202  10.197  15.230  0.00  0.00    +0.000 C 
ATOM     23  O   UNL     1      -2.154   9.996  16.178  0.00  0.00    +0.000 OA
ATOM     24  C   UNL     1      -2.682  10.213  17.424  0.00  0.00    +0.000 C 
ATOM     25  O   UNL     1      -2.054   9.960  18.438  0.00  0.00    +0.000 OA
ENDBRANCH  15  20
ENDBRANCH   2  13
BRANCH   1  26
ATOM     26  C   UNL     1      -3.551  12.799  22.658  0.00  0.00    +0.000 C 
BRANCH  26  27
ATOM     27  C   UNL     1      -2.200  12.266  22.215  0.00  0.00    +0.000 A 
ATOM     28  C   UNL     1      -1.622  11.210  22.951  0.00  0.00    +0.000 A 
ATOM     29  C   UNL     1      -0.365  10.694  22.628  0.00  0.00    +0.000 A 
ATOM     30  C   UNL     1       0.334  11.212  21.543  0.00  0.00    +0.000 A 
ATOM     31  C   UNL     1      -0.257  12.199  20.757  0.00  0.00    +0.000 A 
ATOM     32  C   UNL     1      -1.522  12.705  21.071  0.00  0.00    +0.000 A 
ENDBRANCH  26  27
ENDBRANCH   1  26
TORSDOF 5
ENDMDL
MODEL 2
REMARK VINA RESULT:      -6.5      3.972      7.191
REMARK  Name = 
REMARK  9 active torsions:
REMARK  status: ('A' for Active; 'I' for Inactive)
REMARK    1  A    between atoms: C_1  and  C_2
REMARK    2  A    between atoms: C_2  and  C_3
REMARK    3  A    between atoms: C_5  and  N_6
REMARK    4  A    between atoms: N_6  and  C_7
REMARK    5  A    between atoms: C_7  and  C_8
REMARK    6  A    between atoms: C_14  and  C_16
REMARK    7  A    between atoms: C_18  and  N_19
REMARK    8  A    between atoms: C_29  and  C_30
REMARK    9  A    between atoms: C_29  and  C_31
REMARK                            x       y       z     vdW  Elec       q    Type
REMARK                         _______ _______ _______ _____ _____    ______ ____
ROOT
ATOM      1  N   UNL     1       0.682  14.909  20.503  0.00  0.00    +0.000 N 
ATOM      2  C   UNL     1       0.297  14.720  21.853  0.00  0.00    +0.000 C 
ATOM      3  O   UNL     1       0.907  15.122  22.841  0.00  0.00    +0.000 OA
ENDROOT
BRANCH   1   8
ATOM      4  C   UNL     1       2.634  17.299  16.864  0.00  0.00    +0.000 C 
ATOM      5  C   UNL     1       1.865  16.925  18.132  0.00  0.00    +0.000 C 
ATOM      6  C   UNL     1       0.367  17.085  17.846  0.00  0.00    +0.000 C 
ATOM      7  C   UNL     1       2.411  15.607  18.694  0.00  0.00    +0.000 C 
ATOM      8  C   UNL     1       1.984  15.611  20.166  0.00  0.00    +0.000 C 
ATOM      9  C   UNL     1       2.169  17.152  20.454  0.00  0.00    +0.000 C 
ATOM     10  C   UNL     1       3.590  17.445  20.981  0.00  0.00    +0.000 C 
ATOM     11  C   UNL     1       1.157  17.817  21.373  0.00  0.00    +0.000 C 
ATOM     12  O   UNL     1       2.131  17.865  19.185  0.00  0.00    +0.000 OA
ENDBRANCH   1   8
BRANCH   2  13
ATOM     13  C   UNL     1      -0.949  14.059  22.238  0.00  0.00    +0.000 A 
ATOM     14  C   UNL     1      -2.019  14.853  22.637  0.00  0.00    +0.000 A 
ATOM     15  C   UNL     1      -3.148  14.297  23.227  0.00  0.00    +0.000 A 
ATOM     16  C   UNL     1      -3.201  12.895  23.383  0.00  0.00    +0.000 A 
ATOM     17  C   UNL     1      -2.103  12.098  23.037  0.00  0.00    +0.000 A 
ATOM     18  C   UNL     1      -0.973  12.689  22.483  0.00  0.00    +0.000 A 
ATOM     19  F   UNL     1       0.094  11.915  22.231  0.00  0.00    +0.000 F 
BRANCH  15  20
ATOM     20  N   UNL     1      -4.192  15.127  23.675  0.00  0.00    +0.000 N 
ATOM     21  C   UNL     1      -5.568  14.922  23.369  0.00  0.00    +0.000 C 
ATOM     22  C   UNL     1      -6.186  16.214  23.833  0.00  0.00    +0.000 C 
ATOM     23  O   UNL     1      -5.327  16.662  24.881  0.00  0.00    +0.000 OA
ATOM     24  C   UNL     1      -4.095  16.101  24.669  0.00  0.00    +0.000 C 
ATOM     25  O   UNL     1      -3.120  16.432  25.322  0.00  0.00    +0.000 OA
ENDBRANCH  15  20
ENDBRANCH   2  13
BRANCH   1  26
ATOM     26  C   UNL     1      -0.194  14.455  19.384  0.00  0.00    +0.000 C 
BRANCH  26  27
ATOM     27  C   UNL     1      -0.219  12.980  19.021  0.00  0.00    +0.000 A 
ATOM     28  C   UNL     1      -1.449  12.407  18.633  0.00  0.00    +0.000 A 
ATOM     29  C   UNL     1      -1.559  11.050  18.323  0.00  0.00    +0.000 A 
ATOM     30  C   UNL     1      -0.430  10.238  18.375  0.00  0.00    +0.000 A 
ATOM     31  C   UNL     1       0.806  10.804  18.678  0.00  0.00    +0.000 A 
ATOM     32  C   UNL     1       0.918  12.166  18.974  0.00  0.00    +0.000 A 
ENDBRANCH  26  27
ENDBRANCH   1  26
TORSDOF 5
ENDMDL
MODEL 3
REMARK VINA RESULT:      -6.5      9.275     11.861
REMARK  Name = 
REMARK  9 active torsions:
REMARK  status: ('A' for Active; 'I' for Inactive)
REMARK    1  A    between atoms: C_1  and  C_2
REMARK    2  A    between atoms: C_2  and  C_3
REMARK    3  A    between atoms: C_5  and  N_6
REMARK    4  A    between atoms: N_6  and  C_7
REMARK    5  A    between atoms: C_7  and  C_8
REMARK    6  A    between atoms: C_14  and  C_16
REMARK    7  A    between atoms: C_18  and  N_19
REMARK    8  A    between atoms: C_29  and  C_30
REMARK    9  A    between atoms: C_29  and  C_31
REMARK                            x       y       z     vdW  Elec       q    Type
REMARK                         _______ _______ _______ _____ _____    ______ ____
ROOT
ATOM      1  N   UNL     1       5.225  15.163  19.852  0.00  0.00    +0.000 N 
ATOM      2  C   UNL     1       5.881  14.927  18.619  0.00  0.00    +0.000 C 
ATOM      3  O   UNL     1       5.355  14.510  17.589  0.00  0.00    +0.000 OA
ENDROOT
BRANCH   1   8
ATOM      4  C   UNL     1       1.587  16.321  22.714  0.00  0.00    +0.000 C 
ATOM      5  C   UNL     1       2.617  16.298  21.583  0.00  0.00    +0.000 C 
ATOM      6  C   UNL     1       3.557  17.495  21.768  0.00  0.00    +0.000 C 
ATOM      7  C   UNL     1       3.186  14.881  21.436  0.00  0.00    +0.000 C 
ATOM      8  C   UNL     1       3.752  14.840  20.012  0.00  0.00    +0.000 C 
ATOM      9  C   UNL     1       2.649  15.720  19.302  0.00  0.00    +0.000 C 
ATOM     10  C   UNL     1       1.509  14.835  18.755  0.00  0.00    +0.000 C 
ATOM     11  C   UNL     1       3.110  16.663  18.202  0.00  0.00    +0.000 C 
ATOM     12  O   UNL     1       1.986  16.530  20.313  0.00  0.00    +0.000 OA
ENDBRANCH   1   8
BRANCH   2  13
ATOM     13  C   UNL     1       7.296  15.226  18.402  0.00  0.00    +0.000 A 
ATOM     14  C   UNL     1       8.212  14.184  18.511  0.00  0.00    +0.000 A 
ATOM     15  C   UNL     1       9.580  14.430  18.543  0.00  0.00    +0.000 A 
ATOM     16  C   UNL     1      10.024  15.764  18.428  0.00  0.00    +0.000 A 
ATOM     17  C   UNL     1       9.106  16.819  18.378  0.00  0.00    +0.000 A 
ATOM     18  C   UNL     1       7.743  16.544  18.385  0.00  0.00    +0.000 A 
ATOM     19  F   UNL     1       6.883  17.574  18.414  0.00  0.00    +0.000 F 
BRANCH  15  20
ATOM     20  N   UNL     1      10.484  13.365  18.712  0.00  0.00    +0.000 N 
ATOM     21  C   UNL     1      10.519  12.515  19.854  0.00  0.00    +0.000 C 
ATOM     22  C   UNL     1      11.814  11.773  19.652  0.00  0.00    +0.000 C 
ATOM     23  O   UNL     1      11.994  11.755  18.236  0.00  0.00    +0.000 OA
ATOM     24  C   UNL     1      11.297  12.815  17.720  0.00  0.00    +0.000 C 
ATOM     25  O   UNL     1      11.397  13.138  16.548  0.00  0.00    +0.000 OA
ENDBRANCH  15  20
ENDBRANCH   2  13
BRANCH   1  26
ATOM     26  C   UNL     1       5.954  15.763  21.007  0.00  0.00    +0.000 C 
BRANCH  26  27
ATOM     27  C   UNL     1       6.915  14.895  21.801  0.00  0.00    +0.000 A 
ATOM     28  C   UNL     1       8.238  15.353  21.979  0.00  0.00    +0.000 A 
ATOM     29  C   UNL     1       9.189  14.592  22.663  0.00  0.00    +0.000 A 
ATOM     30  C   UNL     1       8.829  13.362  23.204  0.00  0.00    +0.000 A 
ATOM     31  C   UNL     1       7.507  12.934  23.107  0.00  0.00    +0.000 A 
ATOM     32  C   UNL     1       6.551  13.702  22.435  0.00  0.00    +0.000 A 
ENDBRANCH  26  27
ENDBRANCH   1  26
TORSDOF 5
ENDMDL
MODEL 4
REMARK VINA RESULT:      -6.4      8.723     12.080
REMARK  Name = 
REMARK  9 active torsions:
REMARK  status: ('A' for Active; 'I' for Inactive)
REMARK    1  A    between atoms: C_1  and  C_2
REMARK    2  A    between atoms: C_2  and  C_3
REMARK    3  A    between atoms: C_5  and  N_6
REMARK    4  A    between atoms: N_6  and  C_7
REMARK    5  A    between atoms: C_7  and  C_8
REMARK    6  A    between atoms: C_14  and  C_16
REMARK    7  A    between atoms: C_18  and  N_19
REMARK    8  A    between atoms: C_29  and  C_30
REMARK    9  A    between atoms: C_29  and  C_31
REMARK                            x       y       z     vdW  Elec       q    Type
REMARK                         _______ _______ _______ _____ _____    ______ ____
ROOT
ATOM      1  N   UNL     1       8.055  14.395  20.758  0.00  0.00    +0.000 N 
ATOM      2  C   UNL     1       7.009  15.329  20.554  0.00  0.00    +0.000 C 
ATOM      3  O   UNL     1       7.027  16.272  19.768  0.00  0.00    +0.000 OA
ENDROOT
BRANCH   1   8
ATOM      4  C   UNL     1      12.075  11.922  20.059  0.00  0.00    +0.000 C 
ATOM      5  C   UNL     1      10.660  12.490  19.939  0.00  0.00    +0.000 C 
ATOM      6  C   UNL     1       9.668  11.380  20.307  0.00  0.00    +0.000 C 
ATOM      7  C   UNL     1      10.592  13.853  20.638  0.00  0.00    +0.000 C 
ATOM      8  C   UNL     1       9.371  14.542  20.019  0.00  0.00    +0.000 C 
ATOM      9  C   UNL     1       9.533  14.010  18.541  0.00  0.00    +0.000 C 
ATOM     10  C   UNL     1      10.375  14.988  17.695  0.00  0.00    +0.000 C 
ATOM     11  C   UNL     1       8.262  13.669  17.780  0.00  0.00    +0.000 C 
ATOM     12  O   UNL     1      10.352  12.806  18.572  0.00  0.00    +0.000 OA
ENDBRANCH   1   8
BRANCH   2  13
ATOM     13  C   UNL     1       5.717  15.233  21.231  0.00  0.00    +0.000 A 
ATOM     14  C   UNL     1       4.640  14.711  20.522  0.00  0.00    +0.000 A 
ATOM     15  C   UNL     1       3.343  14.797  21.016  0.00  0.00    +0.000 A 
ATOM     16  C   UNL     1       3.145  15.400  22.277  0.00  0.00    +0.000 A 
ATOM     17  C   UNL     1       4.217  15.979  22.965  0.00  0.00    +0.000 A 
ATOM     18  C   UNL     1       5.497  15.909  22.428  0.00  0.00    +0.000 A 
ATOM     19  F   UNL     1       6.495  16.538  23.069  0.00  0.00    +0.000 F 
BRANCH  15  20
ATOM     20  N   UNL     1       2.264  14.313  20.254  0.00  0.00    +0.000 N 
ATOM     21  C   UNL     1       1.883  14.831  18.983  0.00  0.00    +0.000 C 
ATOM     22  C   UNL     1       0.546  14.174  18.767  0.00  0.00    +0.000 C 
ATOM     23  O   UNL     1       0.630  12.951  19.498  0.00  0.00    +0.000 OA
ATOM     24  C   UNL     1       1.572  13.123  20.478  0.00  0.00    +0.000 C 
ATOM     25  O   UNL     1       1.743  12.292  21.355  0.00  0.00    +0.000 OA
ENDBRANCH  15  20
ENDBRANCH   2  13
BRANCH   1  26
ATOM     26  C   UNL     1       7.877  13.231  21.675  0.00  0.00    +0.000 C 
BRANCH  26  27
ATOM     27  C   UNL     1       8.111  13.424  23.163  0.00  0.00    +0.000 A 
ATOM     28  C   UNL     1       7.745  12.380  24.039  0.00  0.00    +0.000 A 
ATOM     29  C   UNL     1       7.893  12.500  25.423  0.00  0.00    +0.000 A 
ATOM     30  C   UNL     1       8.433  13.665  25.960  0.00  0.00    +0.000 A 
ATOM     31  C   UNL     1       8.873  14.672  25.104  0.00  0.00    +0.000 A 
ATOM     32  C   UNL     1       8.739  14.546  23.718  0.00  0.00    +0.000 A 
ENDBRANCH  26  27
ENDBRANCH   1  26
TORSDOF 5
ENDMDL
MODEL 5
REMARK VINA RESULT:      -6.4      3.852      6.122
REMARK  Name = 
REMARK  9 active torsions:
REMARK  status: ('A' for Active; 'I' for Inactive)
REMARK    1  A    between atoms: C_1  and  C_2
REMARK    2  A    between atoms: C_2  and  C_3
REMARK    3  A    between atoms: C_5  and  N_6
REMARK    4  A    between atoms: N_6  and  C_7
REMARK    5  A    between atoms: C_7  and  C_8
REMARK    6  A    between atoms: C_14  and  C_16
REMARK    7  A    between atoms: C_18  and  N_19
REMARK    8  A    between atoms: C_29  and  C_30
REMARK    9  A    between atoms: C_29  and  C_31
REMARK                            x       y       z     vdW  Elec       q    Type
REMARK                         _______ _______ _______ _____ _____    ______ ____
ROOT
ATOM      1  N   UNL     1      -1.916  12.740  21.076  0.00  0.00    +0.000 N 
ATOM      2  C   UNL     1      -0.573  12.481  21.447  0.00  0.00    +0.000 C 
ATOM      3  O   UNL     1      -0.188  12.121  22.557  0.00  0.00    +0.000 OA
ENDROOT
BRANCH   1   8
ATOM      4  C   UNL     1      -3.038  14.584  25.330  0.00  0.00    +0.000 C 
ATOM      5  C   UNL     1      -2.885  14.344  23.828  0.00  0.00    +0.000 C 
ATOM      6  C   UNL     1      -1.922  15.399  23.271  0.00  0.00    +0.000 C 
ATOM      7  C   UNL     1      -2.634  12.853  23.569  0.00  0.00    +0.000 C 
ATOM      8  C   UNL     1      -3.028  12.646  22.102  0.00  0.00    +0.000 C 
ATOM      9  C   UNL     1      -4.258  13.635  22.054  0.00  0.00    +0.000 C 
ATOM     10  C   UNL     1      -5.570  12.896  22.395  0.00  0.00    +0.000 C 
ATOM     11  C   UNL     1      -4.462  14.434  20.777  0.00  0.00    +0.000 C 
ATOM     12  O   UNL     1      -4.123  14.592  23.143  0.00  0.00    +0.000 OA
ENDBRANCH   1   8
BRANCH   2  13
ATOM     13  C   UNL     1       0.539  12.548  20.500  0.00  0.00    +0.000 A 
ATOM     14  C   UNL     1       0.965  13.803  20.075  0.00  0.00    +0.000 A 
ATOM     15  C   UNL     1       1.856  13.939  19.016  0.00  0.00    +0.000 A 
ATOM     16  C   UNL     1       2.348  12.769  18.399  0.00  0.00    +0.000 A 
ATOM     17  C   UNL     1       1.877  11.509  18.785  0.00  0.00    +0.000 A 
ATOM     18  C   UNL     1       0.958  11.407  19.823  0.00  0.00    +0.000 A 
ATOM     19  F   UNL     1       0.465  10.196  20.123  0.00  0.00    +0.000 F 
BRANCH  15  20
ATOM     20  N   UNL     1       2.227  15.220  18.567  0.00  0.00    +0.000 N 
ATOM     21  C   UNL     1       1.341  16.333  18.495  0.00  0.00    +0.000 C 
ATOM     22  C   UNL     1       2.149  17.324  17.700  0.00  0.00    +0.000 C 
ATOM     23  O   UNL     1       3.506  16.989  17.991  0.00  0.00    +0.000 OA
ATOM     24  C   UNL     1       3.532  15.672  18.369  0.00  0.00    +0.000 C 
ATOM     25  O   UNL     1       4.581  15.072  18.527  0.00  0.00    +0.000 OA
ENDBRANCH  15  20
ENDBRANCH   2  13
BRANCH   1  26
ATOM     26  C   UNL     1      -2.271  13.080  19.667  0.00  0.00    +0.000 C 
BRANCH  26  27
ATOM     27  C   UNL     1      -2.619  11.958  18.705  0.00  0.00    +0.000 A 
ATOM     28  C   UNL     1      -3.965  11.543  18.619  0.00  0.00    +0.000 A 
ATOM     29  C   UNL     1      -4.356  10.491  17.786  0.00  0.00    +0.000 A 
ATOM     30  C   UNL     1      -3.406   9.844  17.003  0.00  0.00    +0.000 A 
ATOM     31  C   UNL     1      -2.087  10.294  17.015  0.00  0.00    +0.000 A 
ATOM     32  C   UNL     1      -1.699  11.356  17.838  0.00  0.00    +0.000 A 
ENDBRANCH  26  27
ENDBRANCH   1  26
TORSDOF 5
ENDMDL
MODEL 6
REMARK VINA RESULT:      -6.4      3.779      6.810
REMARK  Name = 
REMARK  9 active torsions:
REMARK  status: ('A' for Active; 'I' for Inactive)
REMARK    1  A    between atoms: C_1  and  C_2
REMARK    2  A    between atoms: C_2  and  C_3
REMARK    3  A    between atoms: C_5  and  N_6
REMARK    4  A    between atoms: N_6  and  C_7
REMARK    5  A    between atoms: C_7  and  C_8
REMARK    6  A    between atoms: C_14  and  C_16
REMARK    7  A    between atoms: C_18  and  N_19
REMARK    8  A    between atoms: C_29  and  C_30
REMARK    9  A    between atoms: C_29  and  C_31
REMARK                            x       y       z     vdW  Elec       q    Type
REMARK                         _______ _______ _______ _____ _____    ______ ____
ROOT
ATOM      1  N   UNL     1       0.213  14.975  20.663  0.00  0.00    +0.000 N 
ATOM      2  C   UNL     1      -0.189  14.702  21.994  0.00  0.00    +0.000 C 
ATOM      3  O   UNL     1       0.361  15.114  23.012  0.00  0.00    +0.000 OA
ENDROOT
BRANCH   1   8
ATOM      4  C   UNL     1       2.150  17.481  17.095  0.00  0.00    +0.000 C 
ATOM      5  C   UNL     1       1.343  17.056  18.323  0.00  0.00    +0.000 C 
ATOM      6  C   UNL     1      -0.143  17.067  17.945  0.00  0.00    +0.000 C 
ATOM      7  C   UNL     1       1.975  15.806  18.945  0.00  0.00    +0.000 C 
ATOM      8  C   UNL     1       1.461  15.792  20.389  0.00  0.00    +0.000 C 
ATOM      9  C   UNL     1       1.481  17.349  20.654  0.00  0.00    +0.000 C 
ATOM     10  C   UNL     1       2.834  17.784  21.257  0.00  0.00    +0.000 C 
ATOM     11  C   UNL     1       0.357  17.928  21.497  0.00  0.00    +0.000 C 
ATOM     12  O   UNL     1       1.454  18.034  19.369  0.00  0.00    +0.000 OA
ENDBRANCH   1   8
BRANCH   2  13
ATOM     13  C   UNL     1      -1.386  13.928  22.319  0.00  0.00    +0.000 A 
ATOM     14  C   UNL     1      -2.565  14.618  22.580  0.00  0.00    +0.000 A 
ATOM     15  C   UNL     1      -3.675  13.972  23.112  0.00  0.00    +0.000 A 
ATOM     16  C   UNL     1      -3.591  12.583  23.352  0.00  0.00    +0.000 A 
ATOM     17  C   UNL     1      -2.388  11.897  23.146  0.00  0.00    +0.000 A 
ATOM     18  C   UNL     1      -1.284  12.579  22.649  0.00  0.00    +0.000 A 
ATOM     19  F   UNL     1      -0.123  11.917  22.532  0.00  0.00    +0.000 F 
BRANCH  15  20
ATOM     20  N   UNL     1      -4.837  14.703  23.421  0.00  0.00    +0.000 N 
ATOM     21  C   UNL     1      -6.159  14.278  23.107  0.00  0.00    +0.000 C 
ATOM     22  C   UNL     1      -6.960  15.523  23.383  0.00  0.00    +0.000 C 
ATOM     23  O   UNL     1      -6.213  16.209  24.387  0.00  0.00    +0.000 OA
ATOM     24  C   UNL     1      -4.911  15.798  24.282  0.00  0.00    +0.000 C 
ATOM     25  O   UNL     1      -4.016  16.336  24.913  0.00  0.00    +0.000 OA
ENDBRANCH  15  20
ENDBRANCH   2  13
BRANCH   1  26
ATOM     26  C   UNL     1      -0.595  14.495  19.504  0.00  0.00    +0.000 C 
BRANCH  26  27
ATOM     27  C   UNL     1      -0.575  13.017  19.155  0.00  0.00    +0.000 A 
ATOM     28  C   UNL     1       0.670  12.352  19.126  0.00  0.00    +0.000 A 
ATOM     29  C   UNL     1       0.771  11.004  18.775  0.00  0.00    +0.000 A 
ATOM     30  C   UNL     1      -0.378  10.284  18.464  0.00  0.00    +0.000 A 
ATOM     31  C   UNL     1      -1.621  10.904  18.565  0.00  0.00    +0.000 A 
ATOM     32  C   UNL     1      -1.725  12.250  18.932  0.00  0.00    +0.000 A 
ENDBRANCH  26  27
ENDBRANCH   1  26
TORSDOF 5
ENDMDL
MODEL 7
REMARK VINA RESULT:      -6.4      3.624      6.054
REMARK  Name = 
REMARK  9 active torsions:
REMARK  status: ('A' for Active; 'I' for Inactive)
REMARK    1  A    between atoms: C_1  and  C_2
REMARK    2  A    between atoms: C_2  and  C_3
REMARK    3  A    between atoms: C_5  and  N_6
REMARK    4  A    between atoms: N_6  and  C_7
REMARK    5  A    between atoms: C_7  and  C_8
REMARK    6  A    between atoms: C_14  and  C_16
REMARK    7  A    between atoms: C_18  and  N_19
REMARK    8  A    between atoms: C_29  and  C_30
REMARK    9  A    between atoms: C_29  and  C_31
REMARK                            x       y       z     vdW  Elec       q    Type
REMARK                         _______ _______ _______ _____ _____    ______ ____
ROOT
ATOM      1  N   UNL     1      -1.944  12.590  21.128  0.00  0.00    +0.000 N 
ATOM      2  C   UNL     1      -0.658  12.104  21.469  0.00  0.00    +0.000 C 
ATOM      3  O   UNL     1      -0.329  11.628  22.552  0.00  0.00    +0.000 OA
ENDROOT
BRANCH   1   8
ATOM      4  C   UNL     1      -2.885  14.623  25.340  0.00  0.00    +0.000 C 
ATOM      5  C   UNL     1      -2.761  14.334  23.844  0.00  0.00    +0.000 C 
ATOM      6  C   UNL     1      -1.718  15.293  23.257  0.00  0.00    +0.000 C 
ATOM      7  C   UNL     1      -2.636  12.822  23.621  0.00  0.00    +0.000 C 
ATOM      8  C   UNL     1      -3.055  12.612  22.161  0.00  0.00    +0.000 C 
ATOM      9  C   UNL     1      -4.199  13.698  22.093  0.00  0.00    +0.000 C 
ATOM     10  C   UNL     1      -5.565  13.078  22.458  0.00  0.00    +0.000 C 
ATOM     11  C   UNL     1      -4.344  14.480  20.797  0.00  0.00    +0.000 C 
ATOM     12  O   UNL     1      -3.979  14.667  23.158  0.00  0.00    +0.000 OA
ENDBRANCH   1   8
BRANCH   2  13
ATOM     13  C   UNL     1       0.449  12.050  20.514  0.00  0.00    +0.000 A 
ATOM     14  C   UNL     1       1.112  13.235  20.209  0.00  0.00    +0.000 A 
ATOM     15  C   UNL     1       2.015  13.303  19.154  0.00  0.00    +0.000 A 
ATOM     16  C   UNL     1       2.271  12.129  18.414  0.00  0.00    +0.000 A 
ATOM     17  C   UNL     1       1.562  10.951  18.679  0.00  0.00    +0.000 A 
ATOM     18  C   UNL     1       0.638  10.925  19.718  0.00  0.00    +0.000 A 
ATOM     19  F   UNL     1      -0.083   9.808  19.904  0.00  0.00    +0.000 F 
BRANCH  15  20
ATOM     20  N   UNL     1       2.630  14.526  18.829  0.00  0.00    +0.000 N 
ATOM     21  C   UNL     1       3.998  14.662  18.457  0.00  0.00    +0.000 C 
ATOM     22  C   UNL     1       4.187  16.155  18.508  0.00  0.00    +0.000 C 
ATOM     23  O   UNL     1       2.892  16.687  18.229  0.00  0.00    +0.000 OA
ATOM     24  C   UNL     1       1.973  15.730  18.572  0.00  0.00    +0.000 C 
ATOM     25  O   UNL     1       0.777  15.967  18.588  0.00  0.00    +0.000 OA
ENDBRANCH  15  20
ENDBRANCH   2  13
BRANCH   1  26
ATOM     26  C   UNL     1      -2.247  13.058  19.745  0.00  0.00    +0.000 C 
BRANCH  26  27
ATOM     27  C   UNL     1      -2.671  12.042  18.699  0.00  0.00    +0.000 A 
ATOM     28  C   UNL     1      -3.994  11.551  18.741  0.00  0.00    +0.000 A 
ATOM     29  C   UNL     1      -4.445  10.586  17.837  0.00  0.00    +0.000 A 
ATOM     30  C   UNL     1      -3.584  10.104  16.856  0.00  0.00    +0.000 A 
ATOM     31  C   UNL     1      -2.301  10.637  16.751  0.00  0.00    +0.000 A 
ATOM     32  C   UNL     1      -1.854  11.614  17.646  0.00  0.00    +0.000 A 
ENDBRANCH  26  27
ENDBRANCH   1  26
TORSDOF 5
ENDMDL
MODEL 8
REMARK VINA RESULT:      -6.4      6.811     10.947
REMARK  Name = 
REMARK  9 active torsions:
REMARK  status: ('A' for Active; 'I' for Inactive)
REMARK    1  A    between atoms: C_1  and  C_2
REMARK    2  A    between atoms: C_2  and  C_3
REMARK    3  A    between atoms: C_5  and  N_6
REMARK    4  A    between atoms: N_6  and  C_7
REMARK    5  A    between atoms: C_7  and  C_8
REMARK    6  A    between atoms: C_14  and  C_16
REMARK    7  A    between atoms: C_18  and  N_19
REMARK    8  A    between atoms: C_29  and  C_30
REMARK    9  A    between atoms: C_29  and  C_31
REMARK                            x       y       z     vdW  Elec       q    Type
REMARK                         _______ _______ _______ _____ _____    ______ ____
ROOT
ATOM      1  N   UNL     1       3.136   6.496  17.504  0.00  0.00    +0.000 N 
ATOM      2  C   UNL     1       2.976   7.814  17.998  0.00  0.00    +0.000 C 
ATOM      3  O   UNL     1       3.770   8.741  17.854  0.00  0.00    +0.000 OA
ENDROOT
BRANCH   1   8
ATOM      4  C   UNL     1       7.722   5.627  18.488  0.00  0.00    +0.000 C 
ATOM      5  C   UNL     1       6.216   5.487  18.263  0.00  0.00    +0.000 C 
ATOM      6  C   UNL     1       5.551   5.246  19.623  0.00  0.00    +0.000 C 
ATOM      7  C   UNL     1       5.726   6.617  17.350  0.00  0.00    +0.000 C 
ATOM      8  C   UNL     1       4.404   6.099  16.773  0.00  0.00    +0.000 C 
ATOM      9  C   UNL     1       4.804   4.580  16.615  0.00  0.00    +0.000 C 
ATOM     10  C   UNL     1       5.393   4.310  15.214  0.00  0.00    +0.000 C 
ATOM     11  C   UNL     1       3.731   3.542  16.905  0.00  0.00    +0.000 C 
ATOM     12  O   UNL     1       5.922   4.303  17.505  0.00  0.00    +0.000 OA
ENDBRANCH   1   8
BRANCH   2  13
ATOM     13  C   UNL     1       1.773   8.257  18.702  0.00  0.00    +0.000 A 
ATOM     14  C   UNL     1       0.802   8.942  17.979  0.00  0.00    +0.000 A 
ATOM     15  C   UNL     1      -0.251   9.586  18.619  0.00  0.00    +0.000 A 
ATOM     16  C   UNL     1      -0.334   9.500  20.025  0.00  0.00    +0.000 A 
ATOM     17  C   UNL     1       0.672   8.863  20.760  0.00  0.00    +0.000 A 
ATOM     18  C   UNL     1       1.733   8.260  20.094  0.00  0.00    +0.000 A 
ATOM     19  F   UNL     1       2.723   7.722  20.823  0.00  0.00    +0.000 F 
BRANCH  15  20
ATOM     20  N   UNL     1      -1.189  10.320  17.870  0.00  0.00    +0.000 N 
ATOM     21  C   UNL     1      -2.123   9.741  16.964  0.00  0.00    +0.000 C 
ATOM     22  C   UNL     1      -2.654  10.954  16.246  0.00  0.00    +0.000 C 
ATOM     23  O   UNL     1      -2.522  12.013  17.194  0.00  0.00    +0.000 OA
ATOM     24  C   UNL     1      -1.529  11.658  18.070  0.00  0.00    +0.000 C 
ATOM     25  O   UNL     1      -1.093  12.443  18.895  0.00  0.00    +0.000 OA
ENDBRANCH  15  20
ENDBRANCH   2  13
BRANCH   1  26
ATOM     26  C   UNL     1       2.055   5.481  17.661  0.00  0.00    +0.000 C 
BRANCH  26  27
ATOM     27  C   UNL     1       1.938   4.727  18.974  0.00  0.00    +0.000 A 
ATOM     28  C   UNL     1       1.105   3.588  19.021  0.00  0.00    +0.000 A 
ATOM     29  C   UNL     1       0.918   2.867  20.203  0.00  0.00    +0.000 A 
ATOM     30  C   UNL     1       1.578   3.260  21.363  0.00  0.00    +0.000 A 
ATOM     31  C   UNL     1       2.465   4.333  21.314  0.00  0.00    +0.000 A 
ATOM     32  C   UNL     1       2.665   5.046  20.127  0.00  0.00    +0.000 A 
ENDBRANCH  26  27
ENDBRANCH   1  26
TORSDOF 5
ENDMDL
MODEL 9
REMARK VINA RESULT:      -6.4      3.045      4.891
REMARK  Name = 
REMARK  9 active torsions:
REMARK  status: ('A' for Active; 'I' for Inactive)
REMARK    1  A    between atoms: C_1  and  C_2
REMARK    2  A    between atoms: C_2  and  C_3
REMARK    3  A    between atoms: C_5  and  N_6
REMARK    4  A    between atoms: N_6  and  C_7
REMARK    5  A    between atoms: C_7  and  C_8
REMARK    6  A    between atoms: C_14  and  C_16
REMARK    7  A    between atoms: C_18  and  N_19
REMARK    8  A    between atoms: C_29  and  C_30
REMARK    9  A    between atoms: C_29  and  C_31
REMARK                            x       y       z     vdW  Elec       q    Type
REMARK                         _______ _______ _______ _____ _____    ______ ____
ROOT
ATOM      1  N   UNL     1      -1.607  13.475  21.396  0.00  0.00    +0.000 N 
ATOM      2  C   UNL     1      -0.323  12.955  21.690  0.00  0.00    +0.000 C 
ATOM      3  O   UNL     1       0.683  13.614  21.940  0.00  0.00    +0.000 OA
ENDROOT
BRANCH   1   8
ATOM      4  C   UNL     1      -5.227  16.582  21.439  0.00  0.00    +0.000 C 
ATOM      5  C   UNL     1      -4.091  15.646  21.850  0.00  0.00    +0.000 C 
ATOM      6  C   UNL     1      -4.704  14.438  22.569  0.00  0.00    +0.000 C 
ATOM      7  C   UNL     1      -3.139  15.442  20.666  0.00  0.00    +0.000 C 
ATOM      8  C   UNL     1      -1.826  14.973  21.303  0.00  0.00    +0.000 C 
ATOM      9  C   UNL     1      -1.873  15.865  22.605  0.00  0.00    +0.000 C 
ATOM     10  C   UNL     1      -1.151  17.210  22.374  0.00  0.00    +0.000 C 
ATOM     11  C   UNL     1      -1.358  15.246  23.894  0.00  0.00    +0.000 C 
ATOM     12  O   UNL     1      -3.253  16.264  22.841  0.00  0.00    +0.000 OA
ENDBRANCH   1   8
BRANCH   2  13
ATOM     13  C   UNL     1      -0.054  11.522  21.800  0.00  0.00    +0.000 A 
ATOM     14  C   UNL     1       0.645  10.903  20.768  0.00  0.00    +0.000 A 
ATOM     15  C   UNL     1       0.741   9.518  20.694  0.00  0.00    +0.000 A 
ATOM     16  C   UNL     1       0.139   8.748  21.712  0.00  0.00    +0.000 A 
ATOM     17  C   UNL     1      -0.614   9.364  22.718  0.00  0.00    +0.000 A 
ATOM     18  C   UNL     1      -0.723  10.749  22.745  0.00  0.00    +0.000 A 
ATOM     19  F   UNL     1      -1.512  11.311  23.674  0.00  0.00    +0.000 F 
BRANCH  15  20
ATOM     20  N   UNL     1       1.404   8.914  19.609  0.00  0.00    +0.000 N 
ATOM     21  C   UNL     1       1.809   9.605  18.431  0.00  0.00    +0.000 C 
ATOM     22  C   UNL     1       2.186   8.468  17.518  0.00  0.00    +0.000 C 
ATOM     23  O   UNL     1       2.595   7.425  18.401  0.00  0.00    +0.000 OA
ATOM     24  C   UNL     1       1.988   7.647  19.609  0.00  0.00    +0.000 C 
ATOM     25  O   UNL     1       2.032   6.826  20.509  0.00  0.00    +0.000 OA
ENDBRANCH  15  20
ENDBRANCH   2  13
BRANCH   1  26
ATOM     26  C   UNL     1      -2.777  12.570  21.202  0.00  0.00    +0.000 C 
BRANCH  26  27
ATOM     27  C   UNL     1      -3.195  12.198  19.790  0.00  0.00    +0.000 A 
ATOM     28  C   UNL     1      -2.197  11.774  18.886  0.00  0.00    +0.000 A 
ATOM     29  C   UNL     1      -2.499  11.454  17.560  0.00  0.00    +0.000 A 
ATOM     30  C   UNL     1      -3.815  11.532  17.115  0.00  0.00    +0.000 A 
ATOM     31  C   UNL     1      -4.823  11.870  18.016  0.00  0.00    +0.000 A 
ATOM     32  C   UNL     1      -4.523  12.176  19.347  0.00  0.00    +0.000 A 
ENDBRANCH  26  27
ENDBRANCH   1  26
TORSDOF 5
ENDMDL
