MODEL 1
REMARK VINA RESULT:      -7.1      0.000      0.000
REMARK  Name = 
REMARK  5 active torsions:
REMARK  status: ('A' for Active; 'I' for Inactive)
REMARK    1  A    between atoms: C_1  and  C_2
REMARK    2  A    between atoms: C_7  and  O_8
REMARK    3  A    between atoms: O_8  and  C_9
REMARK    4  A    between atoms: C_9  and  C_10
REMARK    5  A    between atoms: N_15  and  C_16
REMARK                            x       y       z     vdW  Elec       q    Type
REMARK                         _______ _______ _______ _____ _____    ______ ____
ROOT
ATOM      1  O   UNL     1       4.681   5.670  18.129  0.00  0.00    +0.000 OA
ENDROOT
BRANCH   1   8
ATOM      2  C   UNL     1       7.452   7.051  17.649  0.00  0.00    +0.000 C 
ATOM      3  C   UNL     1       6.756   6.057  16.773  0.00  0.00    +0.000 A 
ATOM      4  N   UNL     1       7.488   5.712  15.675  0.00  0.00    +0.000 NA
ATOM      5  C   UNL     1       7.002   4.762  14.852  0.00  0.00    +0.000 A 
ATOM      6  C   UNL     1       5.794   4.130  15.053  0.00  0.00    +0.000 A 
ATOM      7  C   UNL     1       5.045   4.494  16.168  0.00  0.00    +0.000 A 
ATOM      8  C   UNL     1       5.511   5.477  17.052  0.00  0.00    +0.000 A 
ENDBRANCH   1   8
BRANCH   1   9
ATOM      9  C   UNL     1       4.391   4.526  18.931  0.00  0.00    +0.000 C 
BRANCH   9  10
ATOM     10  C   UNL     1       2.870   4.236  18.990  0.00  0.00    +0.000 C 
ATOM     11  C   UNL     1       2.191   4.925  20.199  0.00  0.00    +0.000 C 
ATOM     12  C   UNL     1       2.301   3.919  21.309  0.00  0.00    +0.000 C 
ATOM     13  C   UNL     1       1.297   2.808  21.468  0.00  0.00    +0.000 C 
ATOM     14  C   UNL     1       2.532   2.583  20.656  0.00  0.00    +0.000 C 
ATOM     15  N   UNL     1       2.537   2.799  19.195  0.00  0.00    +0.000 NA
ATOM     16  C   UNL     1       3.338   1.845  18.447  0.00  0.00    +0.000 C 
ENDBRANCH   9  10
ENDBRANCH   1   9
TORSDOF 3
ENDMDL
MODEL 2
REMARK VINA RESULT:      -6.9      1.239      2.030
REMARK  Name = 
REMARK  5 active torsions:
REMARK  status: ('A' for Active; 'I' for Inactive)
REMARK    1  A    between atoms: C_1  and  C_2
REMARK    2  A    between atoms: C_7  and  O_8
REMARK    3  A    between atoms: O_8  and  C_9
REMARK    4  A    between atoms: C_9  and  C_10
REMARK    5  A    between atoms: N_15  and  C_16
REMARK                            x       y       z     vdW  Elec       q    Type
REMARK                         _______ _______ _______ _____ _____    ______ ____
ROOT
ATOM      1  O   UNL     1       5.692   4.110  18.529  0.00  0.00    +0.000 OA
ENDROOT
BRANCH   1   8
ATOM      2  C   UNL     1       7.581   6.532  17.913  0.00  0.00    +0.000 C 
ATOM      3  C   UNL     1       6.919   5.610  16.936  0.00  0.00    +0.000 A 
ATOM      4  N   UNL     1       7.257   5.874  15.642  0.00  0.00    +0.000 NA
ATOM      5  C   UNL     1       6.788   5.059  14.676  0.00  0.00    +0.000 A 
ATOM      6  C   UNL     1       5.970   3.979  14.927  0.00  0.00    +0.000 A 
ATOM      7  C   UNL     1       5.618   3.721  16.248  0.00  0.00    +0.000 A 
ATOM      8  C   UNL     1       6.083   4.541  17.286  0.00  0.00    +0.000 A 
ENDBRANCH   1   8
BRANCH   1   9
ATOM      9  C   UNL     1       4.468   4.639  19.038  0.00  0.00    +0.000 C 
BRANCH   9  10
ATOM     10  C   UNL     1       3.618   3.548  19.738  0.00  0.00    +0.000 C 
ATOM     11  C   UNL     1       3.469   2.276  18.868  0.00  0.00    +0.000 C 
ATOM     12  C   UNL     1       2.239   2.532  18.044  0.00  0.00    +0.000 C 
ATOM     13  C   UNL     1       0.860   2.244  18.575  0.00  0.00    +0.000 C 
ATOM     14  C   UNL     1       1.459   3.602  18.758  0.00  0.00    +0.000 C 
ATOM     15  N   UNL     1       2.205   3.950  19.984  0.00  0.00    +0.000 NA
ATOM     16  C   UNL     1       2.000   5.312  20.447  0.00  0.00    +0.000 C 
ENDBRANCH   9  10
ENDBRANCH   1   9
TORSDOF 3
ENDMDL
MODEL 3
REMARK VINA RESULT:      -6.8      1.323      6.108
REMARK  Name = 
REMARK  5 active torsions:
REMARK  status: ('A' for Active; 'I' for Inactive)
REMARK    1  A    between atoms: C_1  and  C_2
REMARK    2  A    between atoms: C_7  and  O_8
REMARK    3  A    between atoms: O_8  and  C_9
REMARK    4  A    between atoms: C_9  and  C_10
REMARK    5  A    between atoms: N_15  and  C_16
REMARK                            x       y       z     vdW  Elec       q    Type
REMARK                         _______ _______ _______ _____ _____    ______ ____
ROOT
ATOM      1  O   UNL     1       4.340   3.160  18.537  0.00  0.00    +0.000 OA
ENDROOT
BRANCH   1   8
ATOM      2  C   UNL     1       1.512   4.247  17.737  0.00  0.00    +0.000 C 
ATOM      3  C   UNL     1       1.948   3.705  19.063  0.00  0.00    +0.000 A 
ATOM      4  N   UNL     1       0.936   3.657  19.977  0.00  0.00    +0.000 NA
ATOM      5  C   UNL     1       1.186   3.112  21.183  0.00  0.00    +0.000 A 
ATOM      6  C   UNL     1       2.417   2.613  21.550  0.00  0.00    +0.000 A 
ATOM      7  C   UNL     1       3.449   2.676  20.619  0.00  0.00    +0.000 A 
ATOM      8  C   UNL     1       3.236   3.234  19.351  0.00  0.00    +0.000 A 
ENDBRANCH   1   8
BRANCH   1   9
ATOM      9  C   UNL     1       5.298   4.211  18.659  0.00  0.00    +0.000 C 
BRANCH   9  10
ATOM     10  C   UNL     1       5.261   5.165  17.438  0.00  0.00    +0.000 C 
ATOM     11  C   UNL     1       4.787   4.448  16.150  0.00  0.00    +0.000 C 
ATOM     12  C   UNL     1       6.050   3.912  15.538  0.00  0.00    +0.000 C 
ATOM     13  C   UNL     1       6.922   4.766  14.657  0.00  0.00    +0.000 C 
ATOM     14  C   UNL     1       7.184   4.707  16.128  0.00  0.00    +0.000 C 
ATOM     15  N   UNL     1       6.596   5.699  17.050  0.00  0.00    +0.000 NA
ATOM     16  C   UNL     1       7.468   6.096  18.143  0.00  0.00    +0.000 C 
ENDBRANCH   9  10
ENDBRANCH   1   9
TORSDOF 3
ENDMDL
MODEL 4
REMARK VINA RESULT:      -6.8      1.338      2.351
REMARK  Name = 
REMARK  5 active torsions:
REMARK  status: ('A' for Active; 'I' for Inactive)
REMARK    1  A    between atoms: C_1  and  C_2
REMARK    2  A    between atoms: C_7  and  O_8
REMARK    3  A    between atoms: O_8  and  C_9
REMARK    4  A    between atoms: C_9  and  C_10
REMARK    5  A    between atoms: N_15  and  C_16
REMARK                            x       y       z     vdW  Elec       q    Type
REMARK                         _______ _______ _______ _____ _____    ______ ____
ROOT
ATOM      1  O   UNL     1       6.117   4.089  18.254  0.00  0.00    +0.000 OA
ENDROOT
BRANCH   1   8
ATOM      2  C   UNL     1       5.238   5.906  15.857  0.00  0.00    +0.000 C 
ATOM      3  C   UNL     1       6.293   6.183  16.884  0.00  0.00    +0.000 A 
ATOM      4  N   UNL     1       6.869   7.411  16.735  0.00  0.00    +0.000 NA
ATOM      5  C   UNL     1       7.776   7.809  17.649  0.00  0.00    +0.000 A 
ATOM      6  C   UNL     1       8.164   7.033  18.719  0.00  0.00    +0.000 A 
ATOM      7  C   UNL     1       7.583   5.777  18.859  0.00  0.00    +0.000 A 
ATOM      8  C   UNL     1       6.634   5.321  17.934  0.00  0.00    +0.000 A 
ENDBRANCH   1   8
BRANCH   1   9
ATOM      9  C   UNL     1       5.134   4.054  19.288  0.00  0.00    +0.000 C 
BRANCH   9  10
ATOM     10  C   UNL     1       3.703   4.245  18.726  0.00  0.00    +0.000 C 
ATOM     11  C   UNL     1       2.919   5.343  19.486  0.00  0.00    +0.000 C 
ATOM     12  C   UNL     1       2.246   4.607  20.610  0.00  0.00    +0.000 C 
ATOM     13  C   UNL     1       0.931   3.901  20.416  0.00  0.00    +0.000 C 
ATOM     14  C   UNL     1       2.211   3.156  20.213  0.00  0.00    +0.000 C 
ATOM     15  N   UNL     1       2.831   3.047  18.877  0.00  0.00    +0.000 NA
ATOM     16  C   UNL     1       3.455   1.764  18.605  0.00  0.00    +0.000 C 
ENDBRANCH   9  10
ENDBRANCH   1   9
TORSDOF 3
ENDMDL
MODEL 5
REMARK VINA RESULT:      -6.7      1.251      2.163
REMARK  Name = 
REMARK  5 active torsions:
REMARK  status: ('A' for Active; 'I' for Inactive)
REMARK    1  A    between atoms: C_1  and  C_2
REMARK    2  A    between atoms: C_7  and  O_8
REMARK    3  A    between atoms: O_8  and  C_9
REMARK    4  A    between atoms: C_9  and  C_10
REMARK    5  A    between atoms: N_15  and  C_16
REMARK                            x       y       z     vdW  Elec       q    Type
REMARK                         _______ _______ _______ _____ _____    ______ ____
ROOT
ATOM      1  O   UNL     1       3.962   3.969  16.721  0.00  0.00    +0.000 OA
ENDROOT
BRANCH   1   8
ATOM      2  C   UNL     1       6.130   3.870  14.461  0.00  0.00    +0.000 C 
ATOM      3  C   UNL     1       6.127   4.717  15.697  0.00  0.00    +0.000 A 
ATOM      4  N   UNL     1       7.195   5.562  15.765  0.00  0.00    +0.000 NA
ATOM      5  C   UNL     1       7.260   6.433  16.791  0.00  0.00    +0.000 A 
ATOM      6  C   UNL     1       6.309   6.505  17.786  0.00  0.00    +0.000 A 
ATOM      7  C   UNL     1       5.228   5.632  17.718  0.00  0.00    +0.000 A 
ATOM      8  C   UNL     1       5.117   4.709  16.669  0.00  0.00    +0.000 A 
ENDBRANCH   1   8
BRANCH   1   9
ATOM      9  C   UNL     1       3.062   4.258  17.790  0.00  0.00    +0.000 C 
BRANCH   9  10
ATOM     10  C   UNL     1       2.486   2.965  18.422  0.00  0.00    +0.000 C 
ATOM     11  C   UNL     1       1.010   3.134  18.855  0.00  0.00    +0.000 C 
ATOM     12  C   UNL     1       1.093   3.640  20.267  0.00  0.00    +0.000 C 
ATOM     13  C   UNL     1       1.255   2.701  21.433  0.00  0.00    +0.000 C 
ATOM     14  C   UNL     1       2.465   3.280  20.772  0.00  0.00    +0.000 C 
ATOM     15  N   UNL     1       3.161   2.561  19.686  0.00  0.00    +0.000 NA
ATOM     16  C   UNL     1       4.608   2.691  19.709  0.00  0.00    +0.000 C 
ENDBRANCH   9  10
ENDBRANCH   1   9
TORSDOF 3
ENDMDL
MODEL 6
REMARK VINA RESULT:      -6.7      1.323      1.561
REMARK  Name = 
REMARK  5 active torsions:
REMARK  status: ('A' for Active; 'I' for Inactive)
REMARK    1  A    between atoms: C_1  and  C_2
REMARK    2  A    between atoms: C_7  and  O_8
REMARK    3  A    between atoms: O_8  and  C_9
REMARK    4  A    between atoms: C_9  and  C_10
REMARK    5  A    between atoms: N_15  and  C_16
REMARK                            x       y       z     vdW  Elec       q    Type
REMARK                         _______ _______ _______ _____ _____    ______ ____
ROOT
ATOM      1  O   UNL     1       4.784   4.357  17.612  0.00  0.00    +0.000 OA
ENDROOT
BRANCH   1   8
ATOM      2  C   UNL     1       7.326   6.189  17.664  0.00  0.00    +0.000 C 
ATOM      3  C   UNL     1       6.744   5.455  16.495  0.00  0.00    +0.000 A 
ATOM      4  N   UNL     1       7.482   5.599  15.357  0.00  0.00    +0.000 NA
ATOM      5  C   UNL     1       7.103   4.918  14.257  0.00  0.00    +0.000 A 
ATOM      6  C   UNL     1       6.000   4.094  14.217  0.00  0.00    +0.000 A 
ATOM      7  C   UNL     1       5.244   3.961  15.378  0.00  0.00    +0.000 A 
ATOM      8  C   UNL     1       5.599   4.649  16.546  0.00  0.00    +0.000 A 
ENDBRANCH   1   8
BRANCH   1   9
ATOM      9  C   UNL     1       3.584   3.642  17.326  0.00  0.00    +0.000 C 
BRANCH   9  10
ATOM     10  C   UNL     1       2.324   4.450  17.729  0.00  0.00    +0.000 C 
ATOM     11  C   UNL     1       2.685   5.807  18.382  0.00  0.00    +0.000 C 
ATOM     12  C   UNL     1       2.803   5.494  19.847  0.00  0.00    +0.000 C 
ATOM     13  C   UNL     1       1.596   5.463  20.746  0.00  0.00    +0.000 C 
ATOM     14  C   UNL     1       2.053   4.209  20.073  0.00  0.00    +0.000 C 
ATOM     15  N   UNL     1       1.492   3.789  18.773  0.00  0.00    +0.000 NA
ATOM     16  C   UNL     1       1.309   2.355  18.630  0.00  0.00    +0.000 C 
ENDBRANCH   9  10
ENDBRANCH   1   9
TORSDOF 3
ENDMDL
MODEL 7
REMARK VINA RESULT:      -6.6      1.253      1.841
REMARK  Name = 
REMARK  5 active torsions:
REMARK  status: ('A' for Active; 'I' for Inactive)
REMARK    1  A    between atoms: C_1  and  C_2
REMARK    2  A    between atoms: C_7  and  O_8
REMARK    3  A    between atoms: O_8  and  C_9
REMARK    4  A    between atoms: C_9  and  C_10
REMARK    5  A    between atoms: N_15  and  C_16
REMARK                            x       y       z     vdW  Elec       q    Type
REMARK                         _______ _______ _______ _____ _____    ______ ____
ROOT
ATOM      1  O   UNL     1       5.395   4.025  17.908  0.00  0.00    +0.000 OA
ENDROOT
BRANCH   1   8
ATOM      2  C   UNL     1       7.455   6.370  17.628  0.00  0.00    +0.000 C 
ATOM      3  C   UNL     1       6.915   5.485  16.547  0.00  0.00    +0.000 A 
ATOM      4  N   UNL     1       7.461   5.746  15.324  0.00  0.00    +0.000 NA
ATOM      5  C   UNL     1       7.114   4.960  14.286  0.00  0.00    +0.000 A 
ATOM      6  C   UNL     1       6.224   3.913  14.391  0.00  0.00    +0.000 A 
ATOM      7  C   UNL     1       5.660   3.659  15.637  0.00  0.00    +0.000 A 
ATOM      8  C   UNL     1       5.992   4.450  16.747  0.00  0.00    +0.000 A 
ENDBRANCH   1   8
BRANCH   1   9
ATOM      9  C   UNL     1       4.167   4.657  18.268  0.00  0.00    +0.000 C 
BRANCH   9  10
ATOM     10  C   UNL     1       3.806   4.406  19.754  0.00  0.00    +0.000 C 
ATOM     11  C   UNL     1       3.511   2.914  20.040  0.00  0.00    +0.000 C 
ATOM     12  C   UNL     1       2.036   2.772  19.786  0.00  0.00    +0.000 C 
ATOM     13  C   UNL     1       1.019   3.104  20.845  0.00  0.00    +0.000 C 
ATOM     14  C   UNL     1       1.451   4.156  19.875  0.00  0.00    +0.000 C 
ATOM     15  N   UNL     1       2.555   5.084  20.194  0.00  0.00    +0.000 NA
ATOM     16  C   UNL     1       2.360   6.441  19.711  0.00  0.00    +0.000 C 
ENDBRANCH   9  10
ENDBRANCH   1   9
TORSDOF 3
ENDMDL
MODEL 8
REMARK VINA RESULT:      -6.6      1.394      2.094
REMARK  Name = 
REMARK  5 active torsions:
REMARK  status: ('A' for Active; 'I' for Inactive)
REMARK    1  A    between atoms: C_1  and  C_2
REMARK    2  A    between atoms: C_7  and  O_8
REMARK    3  A    between atoms: O_8  and  C_9
REMARK    4  A    between atoms: C_9  and  C_10
REMARK    5  A    between atoms: N_15  and  C_16
REMARK                            x       y       z     vdW  Elec       q    Type
REMARK                         _______ _______ _______ _____ _____    ______ ____
ROOT
ATOM      1  O   UNL     1       4.888   6.322  18.044  0.00  0.00    +0.000 OA
ENDROOT
BRANCH   1   8
ATOM      2  C   UNL     1       7.781   5.221  18.531  0.00  0.00    +0.000 C 
ATOM      3  C   UNL     1       7.019   5.268  17.243  0.00  0.00    +0.000 A 
ATOM      4  N   UNL     1       7.698   4.703  16.203  0.00  0.00    +0.000 NA
ATOM      5  C   UNL     1       7.081   4.612  15.008  0.00  0.00    +0.000 A 
ATOM      6  C   UNL     1       5.804   5.073  14.777  0.00  0.00    +0.000 A 
ATOM      7  C   UNL     1       5.121   5.660  15.837  0.00  0.00    +0.000 A 
ATOM      8  C   UNL     1       5.721   5.776  17.099  0.00  0.00    +0.000 A 
ENDBRANCH   1   8
BRANCH   1   9
ATOM      9  C   UNL     1       3.568   5.785  18.123  0.00  0.00    +0.000 C 
BRANCH   9  10
ATOM     10  C   UNL     1       3.525   4.490  18.973  0.00  0.00    +0.000 C 
ATOM     11  C   UNL     1       3.435   3.218  18.095  0.00  0.00    +0.000 C 
ATOM     12  C   UNL     1       1.960   2.999  17.910  0.00  0.00    +0.000 C 
ATOM     13  C   UNL     1       1.137   2.264  18.934  0.00  0.00    +0.000 C 
ATOM     14  C   UNL     1       1.272   3.751  19.017  0.00  0.00    +0.000 C 
ATOM     15  N   UNL     1       2.322   4.379  19.844  0.00  0.00    +0.000 NA
ATOM     16  C   UNL     1       1.908   5.598  20.519  0.00  0.00    +0.000 C 
ENDBRANCH   9  10
ENDBRANCH   1   9
TORSDOF 3
ENDMDL
MODEL 9
REMARK VINA RESULT:      -6.6      1.475      2.867
REMARK  Name = 
REMARK  5 active torsions:
REMARK  status: ('A' for Active; 'I' for Inactive)
REMARK    1  A    between atoms: C_1  and  C_2
REMARK    2  A    between atoms: C_7  and  O_8
REMARK    3  A    between atoms: O_8  and  C_9
REMARK    4  A    between atoms: C_9  and  C_10
REMARK    5  A    between atoms: N_15  and  C_16
REMARK                            x       y       z     vdW  Elec       q    Type
REMARK                         _______ _______ _______ _____ _____    ______ ____
ROOT
ATOM      1  O   UNL     1       5.745   3.961  19.175  0.00  0.00    +0.000 OA
ENDROOT
BRANCH   1   8
ATOM      2  C   UNL     1       4.938   4.838  16.277  0.00  0.00    +0.000 C 
ATOM      3  C   UNL     1       6.009   5.418  17.150  0.00  0.00    +0.000 A 
ATOM      4  N   UNL     1       6.639   6.485  16.580  0.00  0.00    +0.000 NA
ATOM      5  C   UNL     1       7.566   7.143  17.303  0.00  0.00    +0.000 A 
ATOM      6  C   UNL     1       7.923   6.785  18.584  0.00  0.00    +0.000 A 
ATOM      7  C   UNL     1       7.287   5.688  19.156  0.00  0.00    +0.000 A 
ATOM      8  C   UNL     1       6.315   4.973  18.443  0.00  0.00    +0.000 A 
ENDBRANCH   1   8
BRANCH   1   9
ATOM      9  C   UNL     1       4.384   4.139  19.567  0.00  0.00    +0.000 C 
BRANCH   9  10
ATOM     10  C   UNL     1       3.643   2.784  19.698  0.00  0.00    +0.000 C 
ATOM     11  C   UNL     1       3.214   2.218  18.323  0.00  0.00    +0.000 C 
ATOM     12  C   UNL     1       1.849   2.802  18.090  0.00  0.00    +0.000 C 
ATOM     13  C   UNL     1       0.611   2.164  18.660  0.00  0.00    +0.000 C 
ATOM     14  C   UNL     1       1.327   3.222  19.438  0.00  0.00    +0.000 C 
ATOM     15  N   UNL     1       2.354   2.872  20.439  0.00  0.00    +0.000 NA
ATOM     16  C   UNL     1       2.353   3.715  21.623  0.00  0.00    +0.000 C 
ENDBRANCH   9  10
ENDBRANCH   1   9
TORSDOF 3
ENDMDL
