MODEL 1
REMARK VINA RESULT:      -7.6      0.000      0.000
REMARK  Name = 
REMARK  10 active torsions:
REMARK  status: ('A' for Active; 'I' for Inactive)
REMARK    1  A    between atoms: C_1  and  O_2
REMARK    2  A    between atoms: O_2  and  C_3
REMARK    3  A    between atoms: C_3  and  C_4
REMARK    4  A    between atoms: C_4  and  C_5
REMARK    5  A    between atoms: C_5  and  N_6
REMARK    6  A    between atoms: C_7  and  C_9
REMARK    7  A    between atoms: C_14  and  C_15
REMARK    8  A    between atoms: C_18  and  O_19
REMARK    9  A    between atoms: O_19  and  C_20
REMARK   10  A    between atoms: C_22  and  C_23
REMARK                            x       y       z     vdW  Elec       q    Type
REMARK                         _______ _______ _______ _____ _____    ______ ____
ROOT
ATOM      1  C   UNL     1       2.929   3.496  18.712  0.00  0.00    +0.000 A 
ATOM      2  C   UNL     1       2.130   2.745  19.590  0.00  0.00    +0.000 A 
ATOM      3  C   UNL     1       1.237   3.366  20.465  0.00  0.00    +0.000 A 
ATOM      4  C   UNL     1       1.110   4.762  20.489  0.00  0.00    +0.000 A 
ATOM      5  C   UNL     1       1.922   5.550  19.643  0.00  0.00    +0.000 A 
ATOM      6  C   UNL     1       2.124   6.957  19.410  0.00  0.00    +0.000 A 
ATOM      7  C   UNL     1       3.132   7.021  18.467  0.00  0.00    +0.000 A 
ATOM      8  O   UNL     1       3.510   5.790  18.060  0.00  0.00    +0.000 OA
ATOM      9  C   UNL     1       2.798   4.884  18.786  0.00  0.00    +0.000 A 
ENDROOT
BRANCH   6  10
ATOM     10  C   UNL     1       1.544   8.135  20.059  0.00  0.00    +0.000 A 
ATOM     11  C   UNL     1       1.389   8.108  21.457  0.00  0.00    +0.000 A 
ATOM     12  C   UNL     1       0.849   9.192  22.154  0.00  0.00    +0.000 A 
ATOM     13  C   UNL     1       0.479  10.349  21.480  0.00  0.00    +0.000 A 
ATOM     14  C   UNL     1       0.635  10.401  20.096  0.00  0.00    +0.000 A 
ATOM     15  C   UNL     1       1.144   9.302  19.367  0.00  0.00    +0.000 A 
ATOM     16  C   UNL     1       1.227   9.467  17.871  0.00  0.00    +0.000 C 
BRANCH  13  17
ATOM     17  O   UNL     1      -0.016  11.347  22.270  0.00  0.00    +0.000 OA
ATOM     18  C   UNL     1      -1.098  11.006  23.129  0.00  0.00    +0.000 C 
ENDBRANCH  13  17
ENDBRANCH   6  10
BRANCH   1  20
ATOM     19  N   UNL     1       4.673   3.611  17.011  0.00  0.00    +0.000 N 
ATOM     20  C   UNL     1       3.859   2.810  17.787  0.00  0.00    +0.000 C 
ATOM     21  O   UNL     1       3.881   1.587  17.742  0.00  0.00    +0.000 OA
ATOM     22  H   UNL     1       4.582   4.619  17.087  0.00  0.00    +0.000 HD
BRANCH  19  23
ATOM     23  C   UNL     1       5.637   3.074  16.076  0.00  0.00    +0.000 C 
BRANCH  23  24
ATOM     24  C   UNL     1       6.242   4.165  15.196  0.00  0.00    +0.000 C 
BRANCH  24  25
ATOM     25  C   UNL     1       6.932   5.232  16.037  0.00  0.00    +0.000 C 
BRANCH  25  27
ATOM     26  C   UNL     1       7.653   5.284  18.286  0.00  0.00    +0.000 C 
ATOM     27  O   UNL     1       7.707   4.594  17.049  0.00  0.00    +0.000 OA
ENDBRANCH  25  27
ENDBRANCH  24  25
ENDBRANCH  23  24
ENDBRANCH  19  23
ENDBRANCH   1  20
TORSDOF 7
ENDMDL
MODEL 2
REMARK VINA RESULT:      -7.4      2.637      4.722
REMARK  Name = 
REMARK  10 active torsions:
REMARK  status: ('A' for Active; 'I' for Inactive)
REMARK    1  A    between atoms: C_1  and  O_2
REMARK    2  A    between atoms: O_2  and  C_3
REMARK    3  A    between atoms: C_3  and  C_4
REMARK    4  A    between atoms: C_4  and  C_5
REMARK    5  A    between atoms: C_5  and  N_6
REMARK    6  A    between atoms: C_7  and  C_9
REMARK    7  A    between atoms: C_14  and  C_15
REMARK    8  A    between atoms: C_18  and  O_19
REMARK    9  A    between atoms: O_19  and  C_20
REMARK   10  A    between atoms: C_22  and  C_23
REMARK                            x       y       z     vdW  Elec       q    Type
REMARK                         _______ _______ _______ _____ _____    ______ ____
ROOT
ATOM      1  C   UNL     1       2.528   6.864  19.336  0.00  0.00    +0.000 A 
ATOM      2  C   UNL     1       3.001   7.219  18.061  0.00  0.00    +0.000 A 
ATOM      3  C   UNL     1       2.680   8.449  17.487  0.00  0.00    +0.000 A 
ATOM      4  C   UNL     1       1.875   9.371  18.172  0.00  0.00    +0.000 A 
ATOM      5  C   UNL     1       1.354   9.034  19.441  0.00  0.00    +0.000 A 
ATOM      6  C   UNL     1       0.484   9.655  20.407  0.00  0.00    +0.000 A 
ATOM      7  C   UNL     1       0.349   8.721  21.416  0.00  0.00    +0.000 A 
ATOM      8  O   UNL     1       1.105   7.627  21.185  0.00  0.00    +0.000 OA
ATOM      9  C   UNL     1       1.704   7.794  19.973  0.00  0.00    +0.000 A 
ENDROOT
BRANCH   6  10
ATOM     10  C   UNL     1      -0.248  10.924  20.371  0.00  0.00    +0.000 A 
ATOM     11  C   UNL     1       0.095  11.909  21.315  0.00  0.00    +0.000 A 
ATOM     12  C   UNL     1      -0.550  13.148  21.346  0.00  0.00    +0.000 A 
ATOM     13  C   UNL     1      -1.533  13.454  20.413  0.00  0.00    +0.000 A 
ATOM     14  C   UNL     1      -1.879  12.496  19.461  0.00  0.00    +0.000 A 
ATOM     15  C   UNL     1      -1.266  11.223  19.436  0.00  0.00    +0.000 A 
ATOM     16  C   UNL     1      -1.755  10.260  18.384  0.00  0.00    +0.000 C 
BRANCH  13  17
ATOM     17  O   UNL     1      -2.075  14.702  20.530  0.00  0.00    +0.000 OA
ATOM     18  C   UNL     1      -1.197  15.745  20.938  0.00  0.00    +0.000 C 
ENDBRANCH  13  17
ENDBRANCH   6  10
BRANCH   1  20
ATOM     19  N   UNL     1       1.894   4.863  20.579  0.00  0.00    +0.000 N 
ATOM     20  C   UNL     1       2.893   5.556  19.924  0.00  0.00    +0.000 C 
ATOM     21  O   UNL     1       4.038   5.137  19.813  0.00  0.00    +0.000 OA
ATOM     22  H   UNL     1       0.974   5.285  20.651  0.00  0.00    +0.000 HD
BRANCH  19  23
ATOM     23  C   UNL     1       2.109   3.569  21.188  0.00  0.00    +0.000 C 
BRANCH  23  24
ATOM     24  C   UNL     1       1.939   2.434  20.182  0.00  0.00    +0.000 C 
BRANCH  24  25
ATOM     25  C   UNL     1       0.764   2.695  19.248  0.00  0.00    +0.000 C 
BRANCH  25  27
ATOM     26  C   UNL     1       2.465   2.522  17.618  0.00  0.00    +0.000 C 
ATOM     27  O   UNL     1       1.262   3.168  17.999  0.00  0.00    +0.000 OA
ENDBRANCH  25  27
ENDBRANCH  24  25
ENDBRANCH  23  24
ENDBRANCH  19  23
ENDBRANCH   1  20
TORSDOF 7
ENDMDL
MODEL 3
REMARK VINA RESULT:      -7.4      2.657      8.759
REMARK  Name = 
REMARK  10 active torsions:
REMARK  status: ('A' for Active; 'I' for Inactive)
REMARK    1  A    between atoms: C_1  and  O_2
REMARK    2  A    between atoms: O_2  and  C_3
REMARK    3  A    between atoms: C_3  and  C_4
REMARK    4  A    between atoms: C_4  and  C_5
REMARK    5  A    between atoms: C_5  and  N_6
REMARK    6  A    between atoms: C_7  and  C_9
REMARK    7  A    between atoms: C_14  and  C_15
REMARK    8  A    between atoms: C_18  and  O_19
REMARK    9  A    between atoms: O_19  and  C_20
REMARK   10  A    between atoms: C_22  and  C_23
REMARK                            x       y       z     vdW  Elec       q    Type
REMARK                         _______ _______ _______ _____ _____    ______ ____
ROOT
ATOM      1  C   UNL     1       0.998   9.583  20.462  0.00  0.00    +0.000 A 
ATOM      2  C   UNL     1       1.013  10.546  19.440  0.00  0.00    +0.000 A 
ATOM      3  C   UNL     1       1.545  10.258  18.182  0.00  0.00    +0.000 A 
ATOM      4  C   UNL     1       2.077   8.992  17.902  0.00  0.00    +0.000 A 
ATOM      5  C   UNL     1       2.109   8.009  18.916  0.00  0.00    +0.000 A 
ATOM      6  C   UNL     1       2.595   6.659  19.043  0.00  0.00    +0.000 A 
ATOM      7  C   UNL     1       2.344   6.311  20.356  0.00  0.00    +0.000 A 
ATOM      8  O   UNL     1       1.693   7.294  21.014  0.00  0.00    +0.000 OA
ATOM      9  C   UNL     1       1.565   8.344  20.156  0.00  0.00    +0.000 A 
ENDROOT
BRANCH   6  10
ATOM     10  C   UNL     1       3.321   5.803  18.100  0.00  0.00    +0.000 A 
ATOM     11  C   UNL     1       4.575   6.245  17.641  0.00  0.00    +0.000 A 
ATOM     12  C   UNL     1       5.335   5.488  16.746  0.00  0.00    +0.000 A 
ATOM     13  C   UNL     1       4.880   4.250  16.310  0.00  0.00    +0.000 A 
ATOM     14  C   UNL     1       3.646   3.788  16.762  0.00  0.00    +0.000 A 
ATOM     15  C   UNL     1       2.845   4.555  17.638  0.00  0.00    +0.000 A 
ATOM     16  C   UNL     1       1.512   3.964  18.023  0.00  0.00    +0.000 C 
BRANCH  13  17
ATOM     17  O   UNL     1       5.719   3.594  15.454  0.00  0.00    +0.000 OA
ATOM     18  C   UNL     1       6.762   4.362  14.865  0.00  0.00    +0.000 C 
ENDBRANCH  13  17
ENDBRANCH   6  10
BRANCH   1  20
ATOM     19  N   UNL     1      -0.686  10.743  21.792  0.00  0.00    +0.000 N 
ATOM     20  C   UNL     1       0.418   9.913  21.783  0.00  0.00    +0.000 C 
ATOM     21  O   UNL     1       0.917   9.450  22.800  0.00  0.00    +0.000 OA
ATOM     22  H   UNL     1      -1.030  11.107  20.909  0.00  0.00    +0.000 HD
BRANCH  19  23
ATOM     23  C   UNL     1      -1.360  11.135  23.010  0.00  0.00    +0.000 C 
BRANCH  23  24
ATOM     24  C   UNL     1      -2.198  12.395  22.813  0.00  0.00    +0.000 C 
BRANCH  24  25
ATOM     25  C   UNL     1      -1.382  13.650  23.094  0.00  0.00    +0.000 C 
BRANCH  25  27
ATOM     26  C   UNL     1       0.530  14.524  22.014  0.00  0.00    +0.000 C 
ATOM     27  O   UNL     1      -0.030  13.419  22.704  0.00  0.00    +0.000 OA
ENDBRANCH  25  27
ENDBRANCH  24  25
ENDBRANCH  23  24
ENDBRANCH  19  23
ENDBRANCH   1  20
TORSDOF 7
ENDMDL
MODEL 4
REMARK VINA RESULT:      -7.3      1.135      1.451
REMARK  Name = 
REMARK  10 active torsions:
REMARK  status: ('A' for Active; 'I' for Inactive)
REMARK    1  A    between atoms: C_1  and  O_2
REMARK    2  A    between atoms: O_2  and  C_3
REMARK    3  A    between atoms: C_3  and  C_4
REMARK    4  A    between atoms: C_4  and  C_5
REMARK    5  A    between atoms: C_5  and  N_6
REMARK    6  A    between atoms: C_7  and  C_9
REMARK    7  A    between atoms: C_14  and  C_15
REMARK    8  A    between atoms: C_18  and  O_19
REMARK    9  A    between atoms: O_19  and  C_20
REMARK   10  A    between atoms: C_22  and  C_23
REMARK                            x       y       z     vdW  Elec       q    Type
REMARK                         _______ _______ _______ _____ _____    ______ ____
ROOT
ATOM      1  C   UNL     1       3.248   4.082  18.757  0.00  0.00    +0.000 A 
ATOM      2  C   UNL     1       2.733   3.263  19.775  0.00  0.00    +0.000 A 
ATOM      3  C   UNL     1       1.911   3.784  20.775  0.00  0.00    +0.000 A 
ATOM      4  C   UNL     1       1.572   5.145  20.789  0.00  0.00    +0.000 A 
ATOM      5  C   UNL     1       2.100   6.004  19.800  0.00  0.00    +0.000 A 
ATOM      6  C   UNL     1       2.038   7.412  19.505  0.00  0.00    +0.000 A 
ATOM      7  C   UNL     1       2.854   7.582  18.403  0.00  0.00    +0.000 A 
ATOM      8  O   UNL     1       3.347   6.404  17.964  0.00  0.00    +0.000 OA
ATOM      9  C   UNL     1       2.915   5.437  18.822  0.00  0.00    +0.000 A 
ENDROOT
BRANCH   6  10
ATOM     10  C   UNL     1       1.395   8.520  20.217  0.00  0.00    +0.000 A 
ATOM     11  C   UNL     1       1.414   8.498  21.624  0.00  0.00    +0.000 A 
ATOM     12  C   UNL     1       0.829   9.517  22.379  0.00  0.00    +0.000 A 
ATOM     13  C   UNL     1       0.238  10.607  21.752  0.00  0.00    +0.000 A 
ATOM     14  C   UNL     1       0.218  10.654  20.360  0.00  0.00    +0.000 A 
ATOM     15  C   UNL     1       0.771   9.615  19.577  0.00  0.00    +0.000 A 
ATOM     16  C   UNL     1       0.652   9.763  18.081  0.00  0.00    +0.000 C 
BRANCH  13  17
ATOM     17  O   UNL     1      -0.281  11.548  22.595  0.00  0.00    +0.000 OA
ATOM     18  C   UNL     1      -1.519  11.235  23.221  0.00  0.00    +0.000 C 
ENDBRANCH  13  17
ENDBRANCH   6  10
BRANCH   1  20
ATOM     19  N   UNL     1       5.057   4.332  17.140  0.00  0.00    +0.000 N 
ATOM     20  C   UNL     1       4.109   3.501  17.702  0.00  0.00    +0.000 C 
ATOM     21  O   UNL     1       3.961   2.332  17.371  0.00  0.00    +0.000 OA
ATOM     22  H   UNL     1       5.105   5.297  17.449  0.00  0.00    +0.000 HD
BRANCH  19  23
ATOM     23  C   UNL     1       5.972   3.891  16.110  0.00  0.00    +0.000 C 
BRANCH  23  24
ATOM     24  C   UNL     1       5.513   4.324  14.721  0.00  0.00    +0.000 C 
BRANCH  24  25
ATOM     25  C   UNL     1       6.667   4.297  13.725  0.00  0.00    +0.000 C 
BRANCH  25  27
ATOM     26  C   UNL     1       8.390   5.713  12.945  0.00  0.00    +0.000 C 
ATOM     27  O   UNL     1       7.578   5.345  14.047  0.00  0.00    +0.000 OA
ENDBRANCH  25  27
ENDBRANCH  24  25
ENDBRANCH  23  24
ENDBRANCH  19  23
ENDBRANCH   1  20
TORSDOF 7
ENDMDL
MODEL 5
REMARK VINA RESULT:      -7.3      2.676      8.735
REMARK  Name = 
REMARK  10 active torsions:
REMARK  status: ('A' for Active; 'I' for Inactive)
REMARK    1  A    between atoms: C_1  and  O_2
REMARK    2  A    between atoms: O_2  and  C_3
REMARK    3  A    between atoms: C_3  and  C_4
REMARK    4  A    between atoms: C_4  and  C_5
REMARK    5  A    between atoms: C_5  and  N_6
REMARK    6  A    between atoms: C_7  and  C_9
REMARK    7  A    between atoms: C_14  and  C_15
REMARK    8  A    between atoms: C_18  and  O_19
REMARK    9  A    between atoms: O_19  and  C_20
REMARK   10  A    between atoms: C_22  and  C_23
REMARK                            x       y       z     vdW  Elec       q    Type
REMARK                         _______ _______ _______ _____ _____    ______ ____
ROOT
ATOM      1  C   UNL     1       0.802   9.237  20.161  0.00  0.00    +0.000 A 
ATOM      2  C   UNL     1       0.867  10.274  19.215  0.00  0.00    +0.000 A 
ATOM      3  C   UNL     1       1.586  10.126  18.028  0.00  0.00    +0.000 A 
ATOM      4  C   UNL     1       2.263   8.931  17.745  0.00  0.00    +0.000 A 
ATOM      5  C   UNL     1       2.248   7.881  18.688  0.00  0.00    +0.000 A 
ATOM      6  C   UNL     1       2.833   6.568  18.795  0.00  0.00    +0.000 A 
ATOM      7  C   UNL     1       2.441   6.103  20.034  0.00  0.00    +0.000 A 
ATOM      8  O   UNL     1       1.621   6.977  20.657  0.00  0.00    +0.000 OA
ATOM      9  C   UNL     1       1.515   8.075  19.858  0.00  0.00    +0.000 A 
ENDROOT
BRANCH   6  10
ATOM     10  C   UNL     1       3.753   5.848  17.910  0.00  0.00    +0.000 A 
ATOM     11  C   UNL     1       4.981   6.459  17.599  0.00  0.00    +0.000 A 
ATOM     12  C   UNL     1       5.917   5.839  16.768  0.00  0.00    +0.000 A 
ATOM     13  C   UNL     1       5.670   4.573  16.251  0.00  0.00    +0.000 A 
ATOM     14  C   UNL     1       4.464   3.945  16.556  0.00  0.00    +0.000 A 
ATOM     15  C   UNL     1       3.488   4.571  17.364  0.00  0.00    +0.000 A 
ATOM     16  C   UNL     1       2.209   3.806  17.589  0.00  0.00    +0.000 C 
BRANCH  13  17
ATOM     17  O   UNL     1       6.667   4.062  15.470  0.00  0.00    +0.000 OA
ATOM     18  C   UNL     1       6.436   4.045  14.066  0.00  0.00    +0.000 C 
ENDBRANCH  13  17
ENDBRANCH   6  10
BRANCH   1  20
ATOM     19  N   UNL     1      -0.172  10.715  21.839  0.00  0.00    +0.000 N 
ATOM     20  C   UNL     1       0.023   9.418  21.406  0.00  0.00    +0.000 C 
ATOM     21  O   UNL     1      -0.417   8.441  21.997  0.00  0.00    +0.000 OA
ATOM     22  H   UNL     1       0.243  11.474  21.309  0.00  0.00    +0.000 HD
BRANCH  19  23
ATOM     23  C   UNL     1      -0.925  11.037  23.031  0.00  0.00    +0.000 C 
BRANCH  23  24
ATOM     24  C   UNL     1      -1.446  12.471  23.003  0.00  0.00    +0.000 C 
BRANCH  24  25
ATOM     25  C   UNL     1      -2.614  12.615  22.035  0.00  0.00    +0.000 C 
BRANCH  25  27
ATOM     26  C   UNL     1      -1.590  13.619  20.158  0.00  0.00    +0.000 C 
ATOM     27  O   UNL     1      -2.137  12.431  20.705  0.00  0.00    +0.000 OA
ENDBRANCH  25  27
ENDBRANCH  24  25
ENDBRANCH  23  24
ENDBRANCH  19  23
ENDBRANCH   1  20
TORSDOF 7
ENDMDL
MODEL 6
REMARK VINA RESULT:      -7.2      1.842      2.670
REMARK  Name = 
REMARK  10 active torsions:
REMARK  status: ('A' for Active; 'I' for Inactive)
REMARK    1  A    between atoms: C_1  and  O_2
REMARK    2  A    between atoms: O_2  and  C_3
REMARK    3  A    between atoms: C_3  and  C_4
REMARK    4  A    between atoms: C_4  and  C_5
REMARK    5  A    between atoms: C_5  and  N_6
REMARK    6  A    between atoms: C_7  and  C_9
REMARK    7  A    between atoms: C_14  and  C_15
REMARK    8  A    between atoms: C_18  and  O_19
REMARK    9  A    between atoms: O_19  and  C_20
REMARK   10  A    between atoms: C_22  and  C_23
REMARK                            x       y       z     vdW  Elec       q    Type
REMARK                         _______ _______ _______ _____ _____    ______ ____
ROOT
ATOM      1  C   UNL     1       3.716   4.964  19.152  0.00  0.00    +0.000 A 
ATOM      2  C   UNL     1       3.123   4.281  20.227  0.00  0.00    +0.000 A 
ATOM      3  C   UNL     1       2.054   4.834  20.933  0.00  0.00    +0.000 A 
ATOM      4  C   UNL     1       1.538   6.090  20.585  0.00  0.00    +0.000 A 
ATOM      5  C   UNL     1       2.132   6.820  19.532  0.00  0.00    +0.000 A 
ATOM      6  C   UNL     1       1.940   8.111  18.922  0.00  0.00    +0.000 A 
ATOM      7  C   UNL     1       2.930   8.204  17.963  0.00  0.00    +0.000 A 
ATOM      8  O   UNL     1       3.656   7.068  17.889  0.00  0.00    +0.000 OA
ATOM      9  C   UNL     1       3.197   6.226  18.856  0.00  0.00    +0.000 A 
ENDROOT
BRANCH   6  10
ATOM     10  C   UNL     1       1.023   9.206  19.251  0.00  0.00    +0.000 A 
ATOM     11  C   UNL     1       0.339   9.833  18.193  0.00  0.00    +0.000 A 
ATOM     12  C   UNL     1      -0.557  10.880  18.420  0.00  0.00    +0.000 A 
ATOM     13  C   UNL     1      -0.824  11.310  19.714  0.00  0.00    +0.000 A 
ATOM     14  C   UNL     1      -0.166  10.695  20.777  0.00  0.00    +0.000 A 
ATOM     15  C   UNL     1       0.772   9.659  20.567  0.00  0.00    +0.000 A 
ATOM     16  C   UNL     1       1.447   9.102  21.794  0.00  0.00    +0.000 C 
BRANCH  13  17
ATOM     17  O   UNL     1      -1.732  12.326  19.811  0.00  0.00    +0.000 OA
ATOM     18  C   UNL     1      -3.044  12.059  19.329  0.00  0.00    +0.000 C 
ENDBRANCH  13  17
ENDBRANCH   6  10
BRANCH   1  20
ATOM     19  N   UNL     1       4.749   4.326  17.037  0.00  0.00    +0.000 N 
ATOM     20  C   UNL     1       4.842   4.349  18.414  0.00  0.00    +0.000 C 
ATOM     21  O   UNL     1       5.798   3.895  19.029  0.00  0.00    +0.000 OA
ATOM     22  H   UNL     1       3.915   4.701  16.598  0.00  0.00    +0.000 HD
BRANCH  19  23
ATOM     23  C   UNL     1       5.782   3.768  16.192  0.00  0.00    +0.000 C 
BRANCH  23  24
ATOM     24  C   UNL     1       6.744   4.841  15.689  0.00  0.00    +0.000 C 
BRANCH  24  25
ATOM     25  C   UNL     1       6.859   4.811  14.170  0.00  0.00    +0.000 C 
BRANCH  25  27
ATOM     26  C   UNL     1       6.150   3.406  12.407  0.00  0.00    +0.000 C 
ATOM     27  O   UNL     1       5.805   4.009  13.643  0.00  0.00    +0.000 OA
ENDBRANCH  25  27
ENDBRANCH  24  25
ENDBRANCH  23  24
ENDBRANCH  19  23
ENDBRANCH   1  20
TORSDOF 7
ENDMDL
MODEL 7
REMARK VINA RESULT:      -7.1      2.692      5.231
REMARK  Name = 
REMARK  10 active torsions:
REMARK  status: ('A' for Active; 'I' for Inactive)
REMARK    1  A    between atoms: C_1  and  O_2
REMARK    2  A    between atoms: O_2  and  C_3
REMARK    3  A    between atoms: C_3  and  C_4
REMARK    4  A    between atoms: C_4  and  C_5
REMARK    5  A    between atoms: C_5  and  N_6
REMARK    6  A    between atoms: C_7  and  C_9
REMARK    7  A    between atoms: C_14  and  C_15
REMARK    8  A    between atoms: C_18  and  O_19
REMARK    9  A    between atoms: O_19  and  C_20
REMARK   10  A    between atoms: C_22  and  C_23
REMARK                            x       y       z     vdW  Elec       q    Type
REMARK                         _______ _______ _______ _____ _____    ______ ____
ROOT
ATOM      1  C   UNL     1       1.948   7.832  19.486  0.00  0.00    +0.000 A 
ATOM      2  C   UNL     1       1.886   8.353  18.183  0.00  0.00    +0.000 A 
ATOM      3  C   UNL     1       1.330   9.608  17.931  0.00  0.00    +0.000 A 
ATOM      4  C   UNL     1       0.820  10.388  18.978  0.00  0.00    +0.000 A 
ATOM      5  C   UNL     1       0.835   9.882  20.297  0.00  0.00    +0.000 A 
ATOM      6  C   UNL     1       0.382  10.330  21.589  0.00  0.00    +0.000 A 
ATOM      7  C   UNL     1       0.674   9.289  22.449  0.00  0.00    +0.000 A 
ATOM      8  O   UNL     1       1.318   8.286  21.815  0.00  0.00    +0.000 OA
ATOM      9  C   UNL     1       1.401   8.624  20.498  0.00  0.00    +0.000 A 
ENDROOT
BRANCH   6  10
ATOM     10  C   UNL     1      -0.348  11.536  21.991  0.00  0.00    +0.000 A 
ATOM     11  C   UNL     1      -1.547  11.372  22.708  0.00  0.00    +0.000 A 
ATOM     12  C   UNL     1      -2.301  12.468  23.132  0.00  0.00    +0.000 A 
ATOM     13  C   UNL     1      -1.862  13.763  22.884  0.00  0.00    +0.000 A 
ATOM     14  C   UNL     1      -0.670  13.948  22.186  0.00  0.00    +0.000 A 
ATOM     15  C   UNL     1       0.088  12.852  21.714  0.00  0.00    +0.000 A 
ATOM     16  C   UNL     1       1.337  13.182  20.937  0.00  0.00    +0.000 C 
BRANCH  13  17
ATOM     17  O   UNL     1      -2.672  14.751  23.366  0.00  0.00    +0.000 OA
ATOM     18  C   UNL     1      -3.612  14.378  24.367  0.00  0.00    +0.000 C 
ENDBRANCH  13  17
ENDBRANCH   6  10
BRANCH   1  20
ATOM     19  N   UNL     1       1.935   5.693  20.657  0.00  0.00    +0.000 N 
ATOM     20  C   UNL     1       2.553   6.502  19.725  0.00  0.00    +0.000 C 
ATOM     21  O   UNL     1       3.552   6.167  19.103  0.00  0.00    +0.000 OA
ATOM     22  H   UNL     1       1.124   6.048  21.151  0.00  0.00    +0.000 HD
BRANCH  19  23
ATOM     23  C   UNL     1       2.412   4.365  20.979  0.00  0.00    +0.000 C 
BRANCH  23  24
ATOM     24  C   UNL     1       1.284   3.337  20.957  0.00  0.00    +0.000 C 
BRANCH  24  25
ATOM     25  C   UNL     1       1.009   2.850  19.540  0.00  0.00    +0.000 C 
BRANCH  25  27
ATOM     26  C   UNL     1       2.509   2.203  17.833  0.00  0.00    +0.000 C 
ATOM     27  O   UNL     1       2.089   3.245  18.698  0.00  0.00    +0.000 OA
ENDBRANCH  25  27
ENDBRANCH  24  25
ENDBRANCH  23  24
ENDBRANCH  19  23
ENDBRANCH   1  20
TORSDOF 7
ENDMDL
MODEL 8
REMARK VINA RESULT:      -7.1      1.372      1.813
REMARK  Name = 
REMARK  10 active torsions:
REMARK  status: ('A' for Active; 'I' for Inactive)
REMARK    1  A    between atoms: C_1  and  O_2
REMARK    2  A    between atoms: O_2  and  C_3
REMARK    3  A    between atoms: C_3  and  C_4
REMARK    4  A    between atoms: C_4  and  C_5
REMARK    5  A    between atoms: C_5  and  N_6
REMARK    6  A    between atoms: C_7  and  C_9
REMARK    7  A    between atoms: C_14  and  C_15
REMARK    8  A    between atoms: C_18  and  O_19
REMARK    9  A    between atoms: O_19  and  C_20
REMARK   10  A    between atoms: C_22  and  C_23
REMARK                            x       y       z     vdW  Elec       q    Type
REMARK                         _______ _______ _______ _____ _____    ______ ____
ROOT
ATOM      1  C   UNL     1       3.494   4.463  18.833  0.00  0.00    +0.000 A 
ATOM      2  C   UNL     1       3.060   3.596  19.850  0.00  0.00    +0.000 A 
ATOM      3  C   UNL     1       2.183   4.031  20.845  0.00  0.00    +0.000 A 
ATOM      4  C   UNL     1       1.706   5.349  20.854  0.00  0.00    +0.000 A 
ATOM      5  C   UNL     1       2.148   6.257  19.867  0.00  0.00    +0.000 A 
ATOM      6  C   UNL     1       1.942   7.651  19.568  0.00  0.00    +0.000 A 
ATOM      7  C   UNL     1       2.742   7.903  18.471  0.00  0.00    +0.000 A 
ATOM      8  O   UNL     1       3.357   6.782  18.037  0.00  0.00    +0.000 OA
ATOM      9  C   UNL     1       3.023   5.776  18.894  0.00  0.00    +0.000 A 
ENDROOT
BRANCH   6  10
ATOM     10  C   UNL     1       1.184   8.687  20.275  0.00  0.00    +0.000 A 
ATOM     11  C   UNL     1       1.218   8.685  21.681  0.00  0.00    +0.000 A 
ATOM     12  C   UNL     1       0.528   9.640  22.431  0.00  0.00    +0.000 A 
ATOM     13  C   UNL     1      -0.189  10.648  21.799  0.00  0.00    +0.000 A 
ATOM     14  C   UNL     1      -0.227  10.676  20.406  0.00  0.00    +0.000 A 
ATOM     15  C   UNL     1       0.433   9.697  19.629  0.00  0.00    +0.000 A 
ATOM     16  C   UNL     1       0.284   9.811  18.133  0.00  0.00    +0.000 C 
BRANCH  13  17
ATOM     17  O   UNL     1      -0.804  11.535  22.637  0.00  0.00    +0.000 OA
ATOM     18  C   UNL     1      -0.589  12.917  22.375  0.00  0.00    +0.000 C 
ENDBRANCH  13  17
ENDBRANCH   6  10
BRANCH   1  20
ATOM     19  N   UNL     1       5.577   4.695  17.584  0.00  0.00    +0.000 N 
ATOM     20  C   UNL     1       4.416   3.973  17.784  0.00  0.00    +0.000 C 
ATOM     21  O   UNL     1       4.133   2.967  17.146  0.00  0.00    +0.000 OA
ATOM     22  H   UNL     1       5.732   5.531  18.136  0.00  0.00    +0.000 HD
BRANCH  19  23
ATOM     23  C   UNL     1       6.571   4.320  16.603  0.00  0.00    +0.000 C 
BRANCH  23  24
ATOM     24  C   UNL     1       6.821   5.438  15.594  0.00  0.00    +0.000 C 
BRANCH  24  25
ATOM     25  C   UNL     1       7.031   4.880  14.192  0.00  0.00    +0.000 C 
BRANCH  25  27
ATOM     26  C   UNL     1       6.104   3.390  12.610  0.00  0.00    +0.000 C 
ATOM     27  O   UNL     1       5.943   4.018  13.871  0.00  0.00    +0.000 OA
ENDBRANCH  25  27
ENDBRANCH  24  25
ENDBRANCH  23  24
ENDBRANCH  19  23
ENDBRANCH   1  20
TORSDOF 7
ENDMDL
MODEL 9
REMARK VINA RESULT:      -7.1      1.309      1.526
REMARK  Name = 
REMARK  10 active torsions:
REMARK  status: ('A' for Active; 'I' for Inactive)
REMARK    1  A    between atoms: C_1  and  O_2
REMARK    2  A    between atoms: O_2  and  C_3
REMARK    3  A    between atoms: C_3  and  C_4
REMARK    4  A    between atoms: C_4  and  C_5
REMARK    5  A    between atoms: C_5  and  N_6
REMARK    6  A    between atoms: C_7  and  C_9
REMARK    7  A    between atoms: C_14  and  C_15
REMARK    8  A    between atoms: C_18  and  O_19
REMARK    9  A    between atoms: O_19  and  C_20
REMARK   10  A    between atoms: C_22  and  C_23
REMARK                            x       y       z     vdW  Elec       q    Type
REMARK                         _______ _______ _______ _____ _____    ______ ____
ROOT
ATOM      1  C   UNL     1       3.209   5.006  18.520  0.00  0.00    +0.000 A 
ATOM      2  C   UNL     1       2.984   4.078  19.550  0.00  0.00    +0.000 A 
ATOM      3  C   UNL     1       2.260   4.425  20.692  0.00  0.00    +0.000 A 
ATOM      4  C   UNL     1       1.731   5.714  20.840  0.00  0.00    +0.000 A 
ATOM      5  C   UNL     1       1.965   6.684  19.840  0.00  0.00    +0.000 A 
ATOM      6  C   UNL     1       1.651   8.076  19.645  0.00  0.00    +0.000 A 
ATOM      7  C   UNL     1       2.251   8.413  18.448  0.00  0.00    +0.000 A 
ATOM      8  O   UNL     1       2.839   7.344  17.869  0.00  0.00    +0.000 OA
ATOM      9  C   UNL     1       2.693   6.289  18.718  0.00  0.00    +0.000 A 
ENDROOT
BRANCH   6  10
ATOM     10  C   UNL     1       0.970   9.041  20.512  0.00  0.00    +0.000 A 
ATOM     11  C   UNL     1       0.604   8.622  21.805  0.00  0.00    +0.000 A 
ATOM     12  C   UNL     1      -0.043   9.481  22.696  0.00  0.00    +0.000 A 
ATOM     13  C   UNL     1      -0.314  10.795  22.336  0.00  0.00    +0.000 A 
ATOM     14  C   UNL     1       0.050  11.234  21.065  0.00  0.00    +0.000 A 
ATOM     15  C   UNL     1       0.672  10.371  20.134  0.00  0.00    +0.000 A 
ATOM     16  C   UNL     1       0.980  10.952  18.778  0.00  0.00    +0.000 C 
BRANCH  13  17
ATOM     17  O   UNL     1      -0.931  11.544  23.298  0.00  0.00    +0.000 OA
ATOM     18  C   UNL     1      -1.225  12.896  22.966  0.00  0.00    +0.000 C 
ENDBRANCH  13  17
ENDBRANCH   6  10
BRANCH   1  20
ATOM     19  N   UNL     1       4.730   5.586  16.704  0.00  0.00    +0.000 N 
ATOM     20  C   UNL     1       3.971   4.608  17.316  0.00  0.00    +0.000 C 
ATOM     21  O   UNL     1       3.912   3.454  16.912  0.00  0.00    +0.000 OA
ATOM     22  H   UNL     1       4.711   6.527  17.083  0.00  0.00    +0.000 HD
BRANCH  19  23
ATOM     23  C   UNL     1       5.534   5.331  15.529  0.00  0.00    +0.000 C 
BRANCH  23  24
ATOM     24  C   UNL     1       6.966   4.951  15.893  0.00  0.00    +0.000 C 
BRANCH  24  25
ATOM     25  C   UNL     1       7.427   5.677  17.151  0.00  0.00    +0.000 C 
BRANCH  25  27
ATOM     26  C   UNL     1       6.960   5.461  19.457  0.00  0.00    +0.000 C 
ATOM     27  O   UNL     1       7.321   4.790  18.262  0.00  0.00    +0.000 OA
ENDBRANCH  25  27
ENDBRANCH  24  25
ENDBRANCH  23  24
ENDBRANCH  19  23
ENDBRANCH   1  20
TORSDOF 7
ENDMDL
