MODEL 1
REMARK VINA RESULT:      -7.3      0.000      0.000
REMARK  Name = 
REMARK  10 active torsions:
REMARK  status: ('A' for Active; 'I' for Inactive)
REMARK    1  A    between atoms: C_1  and  C_2
REMARK    2  A    between atoms: C_4  and  C_5
REMARK    3  A    between atoms: N_6  and  C_7
REMARK    4  A    between atoms: C_7  and  C_8
REMARK    5  A    between atoms: C_8  and  C_9
REMARK    6  A    between atoms: C_8  and  N_10
REMARK    7  A    between atoms: N_13  and  C_14
REMARK    8  A    between atoms: C_14  and  C_15
REMARK    9  A    between atoms: C_16  and  C_17
REMARK   10  A    between atoms: C_19  and  C_20
REMARK                            x       y       z     vdW  Elec       q    Type
REMARK                         _______ _______ _______ _____ _____    ______ ____
ROOT
ATOM      1  N   UNL     1       2.325   4.820  18.164  0.00  0.00    +0.000 N 
ATOM      2  C   UNL     1       2.476   5.657  19.239  0.00  0.00    +0.000 C 
ATOM      3  O   UNL     1       2.950   5.321  20.313  0.00  0.00    +0.000 OA
ATOM      4  N   UNL     1       2.000   6.908  18.947  0.00  0.00    +0.000 N 
ATOM      5  H   UNL     1       1.603   5.084  17.507  0.00  0.00    +0.000 HD
ATOM      6  H   UNL     1       2.092   7.168  17.971  0.00  0.00    +0.000 HD
ENDROOT
BRANCH   1   7
ATOM      7  C   UNL     1       2.705   3.409  18.198  0.00  0.00    +0.000 C 
ATOM      8  C   UNL     1       1.787   2.670  19.172  0.00  0.00    +0.000 C 
BRANCH   7   9
ATOM      9  C   UNL     1       4.204   3.179  18.485  0.00  0.00    +0.000 C 
BRANCH   9  15
ATOM     10  C   UNL     1       6.255   4.309  14.262  0.00  0.00    +0.000 C 
ATOM     11  C   UNL     1       5.999   4.363  15.721  0.00  0.00    +0.000 A 
ATOM     12  C   UNL     1       6.709   5.083  16.705  0.00  0.00    +0.000 A 
ATOM     13  C   UNL     1       6.087   4.787  17.900  0.00  0.00    +0.000 A 
ATOM     14  C   UNL     1       6.369   5.273  19.271  0.00  0.00    +0.000 C 
ATOM     15  N   UNL     1       5.096   3.890  17.585  0.00  0.00    +0.000 N 
ATOM     16  N   UNL     1       4.993   3.664  16.257  0.00  0.00    +0.000 NA
ENDBRANCH   9  15
ENDBRANCH   7   9
ENDBRANCH   1   7
BRANCH   4  17
ATOM     17  C   UNL     1       2.157   8.023  19.861  0.00  0.00    +0.000 C 
BRANCH  17  18
ATOM     18  C   UNL     1       1.108   9.062  19.572  0.00  0.00    +0.000 A 
ATOM     19  C   UNL     1       0.112   9.471  20.397  0.00  0.00    +0.000 A 
ATOM     20  C   UNL     1      -0.148   8.978  21.793  0.00  0.00    +0.000 C 
ATOM     21  C   UNL     1      -0.830  10.491  19.957  0.00  0.00    +0.000 A 
ATOM     22  C   UNL     1      -0.728  11.066  18.751  0.00  0.00    +0.000 A 
ATOM     23  C   UNL     1      -1.671  12.115  18.254  0.00  0.00    +0.000 C 
ATOM     24  N   UNL     1       0.286  10.676  17.917  0.00  0.00    +0.000 N 
ATOM     25  C   UNL     1       1.218   9.717  18.222  0.00  0.00    +0.000 A 
ATOM     26  O   UNL     1       2.085   9.394  17.413  0.00  0.00    +0.000 OA
ATOM     27  H   UNL     1       0.380  11.095  16.997  0.00  0.00    +0.000 HD
ENDBRANCH  17  18
ENDBRANCH   4  17
TORSDOF 5
ENDMDL
MODEL 2
REMARK VINA RESULT:      -7.2      2.562      3.389
REMARK  Name = 
REMARK  10 active torsions:
REMARK  status: ('A' for Active; 'I' for Inactive)
REMARK    1  A    between atoms: C_1  and  C_2
REMARK    2  A    between atoms: C_4  and  C_5
REMARK    3  A    between atoms: N_6  and  C_7
REMARK    4  A    between atoms: C_7  and  C_8
REMARK    5  A    between atoms: C_8  and  C_9
REMARK    6  A    between atoms: C_8  and  N_10
REMARK    7  A    between atoms: N_13  and  C_14
REMARK    8  A    between atoms: C_14  and  C_15
REMARK    9  A    between atoms: C_16  and  C_17
REMARK   10  A    between atoms: C_19  and  C_20
REMARK                            x       y       z     vdW  Elec       q    Type
REMARK                         _______ _______ _______ _____ _____    ______ ____
ROOT
ATOM      1  N   UNL     1       1.497   6.262  20.800  0.00  0.00    +0.000 N 
ATOM      2  C   UNL     1       1.813   7.525  20.370  0.00  0.00    +0.000 C 
ATOM      3  O   UNL     1       2.352   7.776  19.303  0.00  0.00    +0.000 OA
ATOM      4  N   UNL     1       1.465   8.457  21.312  0.00  0.00    +0.000 N 
ATOM      5  H   UNL     1       1.425   6.151  21.803  0.00  0.00    +0.000 HD
ATOM      6  H   UNL     1       0.655   8.200  21.867  0.00  0.00    +0.000 HD
ENDROOT
BRANCH   1   7
ATOM      7  C   UNL     1       1.793   5.062  20.020  0.00  0.00    +0.000 C 
ATOM      8  C   UNL     1       0.902   3.919  20.507  0.00  0.00    +0.000 C 
BRANCH   7   9
ATOM      9  C   UNL     1       3.292   4.694  19.997  0.00  0.00    +0.000 C 
BRANCH   9  15
ATOM     10  C   UNL     1       5.300   6.135  15.849  0.00  0.00    +0.000 C 
ATOM     11  C   UNL     1       4.715   5.198  16.837  0.00  0.00    +0.000 A 
ATOM     12  C   UNL     1       4.401   3.834  16.665  0.00  0.00    +0.000 A 
ATOM     13  C   UNL     1       3.869   3.423  17.870  0.00  0.00    +0.000 A 
ATOM     14  C   UNL     1       3.388   2.088  18.297  0.00  0.00    +0.000 C 
ATOM     15  N   UNL     1       3.846   4.544  18.662  0.00  0.00    +0.000 N 
ATOM     16  N   UNL     1       4.409   5.620  18.069  0.00  0.00    +0.000 NA
ENDBRANCH   9  15
ENDBRANCH   7   9
ENDBRANCH   1   7
BRANCH   4  17
ATOM     17  C   UNL     1       1.567   9.881  21.060  0.00  0.00    +0.000 C 
BRANCH  17  18
ATOM     18  C   UNL     1       0.287  10.558  21.468  0.00  0.00    +0.000 A 
ATOM     19  C   UNL     1      -0.519  11.322  20.689  0.00  0.00    +0.000 A 
ATOM     20  C   UNL     1      -0.307  11.647  19.236  0.00  0.00    +0.000 C 
ATOM     21  C   UNL     1      -1.728  11.913  21.246  0.00  0.00    +0.000 A 
ATOM     22  C   UNL     1      -2.089  11.702  22.519  0.00  0.00    +0.000 A 
ATOM     23  C   UNL     1      -3.320  12.287  23.136  0.00  0.00    +0.000 C 
ATOM     24  N   UNL     1      -1.295  10.914  23.309  0.00  0.00    +0.000 N 
ATOM     25  C   UNL     1      -0.130  10.322  22.894  0.00  0.00    +0.000 A 
ATOM     26  O   UNL     1       0.551   9.651  23.667  0.00  0.00    +0.000 OA
ATOM     27  H   UNL     1      -1.547  10.744  24.277  0.00  0.00    +0.000 HD
ENDBRANCH  17  18
ENDBRANCH   4  17
TORSDOF 5
ENDMDL
MODEL 3
REMARK VINA RESULT:      -7.2      2.143      2.792
REMARK  Name = 
REMARK  10 active torsions:
REMARK  status: ('A' for Active; 'I' for Inactive)
REMARK    1  A    between atoms: C_1  and  C_2
REMARK    2  A    between atoms: C_4  and  C_5
REMARK    3  A    between atoms: N_6  and  C_7
REMARK    4  A    between atoms: C_7  and  C_8
REMARK    5  A    between atoms: C_8  and  C_9
REMARK    6  A    between atoms: C_8  and  N_10
REMARK    7  A    between atoms: N_13  and  C_14
REMARK    8  A    between atoms: C_14  and  C_15
REMARK    9  A    between atoms: C_16  and  C_17
REMARK   10  A    between atoms: C_19  and  C_20
REMARK                            x       y       z     vdW  Elec       q    Type
REMARK                         _______ _______ _______ _____ _____    ______ ____
ROOT
ATOM      1  N   UNL     1       3.037   4.979  20.416  0.00  0.00    +0.000 N 
ATOM      2  C   UNL     1       1.850   5.652  20.551  0.00  0.00    +0.000 C 
ATOM      3  O   UNL     1       0.750   5.122  20.521  0.00  0.00    +0.000 OA
ATOM      4  N   UNL     1       2.071   6.996  20.698  0.00  0.00    +0.000 N 
ATOM      5  H   UNL     1       3.813   5.533  20.077  0.00  0.00    +0.000 HD
ATOM      6  H   UNL     1       2.942   7.223  21.165  0.00  0.00    +0.000 HD
ENDROOT
BRANCH   1   7
ATOM      7  C   UNL     1       3.111   3.535  20.199  0.00  0.00    +0.000 C 
ATOM      8  C   UNL     1       2.659   2.818  21.471  0.00  0.00    +0.000 C 
BRANCH   7   9
ATOM      9  C   UNL     1       4.486   3.056  19.689  0.00  0.00    +0.000 C 
BRANCH   9  15
ATOM     10  C   UNL     1       7.699   6.468  18.524  0.00  0.00    +0.000 C 
ATOM     11  C   UNL     1       6.574   5.521  18.337  0.00  0.00    +0.000 A 
ATOM     12  C   UNL     1       5.721   5.391  17.220  0.00  0.00    +0.000 A 
ATOM     13  C   UNL     1       4.836   4.385  17.547  0.00  0.00    +0.000 A 
ATOM     14  C   UNL     1       3.734   3.786  16.758  0.00  0.00    +0.000 C 
ATOM     15  N   UNL     1       5.164   4.009  18.827  0.00  0.00    +0.000 N 
ATOM     16  N   UNL     1       6.254   4.652  19.301  0.00  0.00    +0.000 NA
ENDBRANCH   9  15
ENDBRANCH   7   9
ENDBRANCH   1   7
BRANCH   4  17
ATOM     17  C   UNL     1       0.996   7.924  20.992  0.00  0.00    +0.000 C 
BRANCH  17  18
ATOM     18  C   UNL     1       1.192   9.189  20.202  0.00  0.00    +0.000 A 
ATOM     19  C   UNL     1       1.537   9.291  18.894  0.00  0.00    +0.000 A 
ATOM     20  C   UNL     1       1.784   8.152  17.945  0.00  0.00    +0.000 C 
ATOM     21  C   UNL     1       1.693  10.603  18.279  0.00  0.00    +0.000 A 
ATOM     22  C   UNL     1       1.479  11.731  18.971  0.00  0.00    +0.000 A 
ATOM     23  C   UNL     1       1.627  13.099  18.384  0.00  0.00    +0.000 C 
ATOM     24  N   UNL     1       1.110  11.639  20.287  0.00  0.00    +0.000 N 
ATOM     25  C   UNL     1       0.949  10.461  20.968  0.00  0.00    +0.000 A 
ATOM     26  O   UNL     1       0.646  10.452  22.160  0.00  0.00    +0.000 OA
ATOM     27  H   UNL     1       0.947  12.480  20.830  0.00  0.00    +0.000 HD
ENDBRANCH  17  18
ENDBRANCH   4  17
TORSDOF 5
ENDMDL
MODEL 4
REMARK VINA RESULT:      -7.1      2.067      8.466
REMARK  Name = 
REMARK  10 active torsions:
REMARK  status: ('A' for Active; 'I' for Inactive)
REMARK    1  A    between atoms: C_1  and  C_2
REMARK    2  A    between atoms: C_4  and  C_5
REMARK    3  A    between atoms: N_6  and  C_7
REMARK    4  A    between atoms: C_7  and  C_8
REMARK    5  A    between atoms: C_8  and  C_9
REMARK    6  A    between atoms: C_8  and  N_10
REMARK    7  A    between atoms: N_13  and  C_14
REMARK    8  A    between atoms: C_14  and  C_15
REMARK    9  A    between atoms: C_16  and  C_17
REMARK   10  A    between atoms: C_19  and  C_20
REMARK                            x       y       z     vdW  Elec       q    Type
REMARK                         _______ _______ _______ _____ _____    ______ ____
ROOT
ATOM      1  N   UNL     1       0.713   9.415  18.729  0.00  0.00    +0.000 N 
ATOM      2  C   UNL     1       1.892   9.209  18.060  0.00  0.00    +0.000 C 
ATOM      3  O   UNL     1       2.453  10.052  17.377  0.00  0.00    +0.000 OA
ATOM      4  N   UNL     1       2.334   7.926  18.244  0.00  0.00    +0.000 N 
ATOM      5  H   UNL     1       0.173   8.581  18.921  0.00  0.00    +0.000 HD
ATOM      6  H   UNL     1       2.079   7.526  19.141  0.00  0.00    +0.000 HD
ENDROOT
BRANCH   1   7
ATOM      7  C   UNL     1      -0.017  10.680  18.679  0.00  0.00    +0.000 C 
ATOM      8  C   UNL     1       0.717  11.712  19.536  0.00  0.00    +0.000 C 
BRANCH   7   9
ATOM      9  C   UNL     1      -1.511  10.547  19.039  0.00  0.00    +0.000 C 
BRANCH   9  15
ATOM     10  C   UNL     1      -2.929  10.036  14.450  0.00  0.00    +0.000 C 
ATOM     11  C   UNL     1      -3.009  10.440  15.875  0.00  0.00    +0.000 A 
ATOM     12  C   UNL     1      -4.002  11.217  16.505  0.00  0.00    +0.000 A 
ATOM     13  C   UNL     1      -3.609  11.319  17.823  0.00  0.00    +0.000 A 
ATOM     14  C   UNL     1      -4.269  11.987  18.969  0.00  0.00    +0.000 C 
ATOM     15  N   UNL     1      -2.408  10.658  17.900  0.00  0.00    +0.000 N 
ATOM     16  N   UNL     1      -2.056  10.070  16.736  0.00  0.00    +0.000 NA
ENDBRANCH   9  15
ENDBRANCH   7   9
ENDBRANCH   1   7
BRANCH   4  17
ATOM     17  C   UNL     1       3.625   7.479  17.756  0.00  0.00    +0.000 C 
BRANCH  17  18
ATOM     18  C   UNL     1       3.677   5.976  17.772  0.00  0.00    +0.000 A 
ATOM     19  C   UNL     1       4.329   5.170  16.898  0.00  0.00    +0.000 A 
ATOM     20  C   UNL     1       5.157   5.613  15.724  0.00  0.00    +0.000 C 
ATOM     21  C   UNL     1       4.272   3.723  17.054  0.00  0.00    +0.000 A 
ATOM     22  C   UNL     1       3.604   3.153  18.067  0.00  0.00    +0.000 A 
ATOM     23  C   UNL     1       3.516   1.674  18.269  0.00  0.00    +0.000 C 
ATOM     24  N   UNL     1       2.959   3.957  18.968  0.00  0.00    +0.000 N 
ATOM     25  C   UNL     1       2.934   5.327  18.909  0.00  0.00    +0.000 A 
ATOM     26  O   UNL     1       2.308   5.988  19.736  0.00  0.00    +0.000 OA
ATOM     27  H   UNL     1       2.443   3.548  19.740  0.00  0.00    +0.000 HD
ENDBRANCH  17  18
ENDBRANCH   4  17
TORSDOF 5
ENDMDL
MODEL 5
REMARK VINA RESULT:      -7.1      1.558      1.758
REMARK  Name = 
REMARK  10 active torsions:
REMARK  status: ('A' for Active; 'I' for Inactive)
REMARK    1  A    between atoms: C_1  and  C_2
REMARK    2  A    between atoms: C_4  and  C_5
REMARK    3  A    between atoms: N_6  and  C_7
REMARK    4  A    between atoms: C_7  and  C_8
REMARK    5  A    between atoms: C_8  and  C_9
REMARK    6  A    between atoms: C_8  and  N_10
REMARK    7  A    between atoms: N_13  and  C_14
REMARK    8  A    between atoms: C_14  and  C_15
REMARK    9  A    between atoms: C_16  and  C_17
REMARK   10  A    between atoms: C_19  and  C_20
REMARK                            x       y       z     vdW  Elec       q    Type
REMARK                         _______ _______ _______ _____ _____    ______ ____
ROOT
ATOM      1  N   UNL     1       3.948   5.550  19.739  0.00  0.00    +0.000 N 
ATOM      2  C   UNL     1       2.601   5.793  19.816  0.00  0.00    +0.000 C 
ATOM      3  O   UNL     1       1.741   5.065  19.345  0.00  0.00    +0.000 OA
ATOM      4  N   UNL     1       2.360   6.972  20.470  0.00  0.00    +0.000 N 
ATOM      5  H   UNL     1       4.541   6.367  19.809  0.00  0.00    +0.000 HD
ATOM      6  H   UNL     1       3.049   7.200  21.179  0.00  0.00    +0.000 HD
ENDROOT
BRANCH   1   7
ATOM      7  C   UNL     1       4.506   4.383  19.057  0.00  0.00    +0.000 C 
ATOM      8  C   UNL     1       4.200   3.132  19.880  0.00  0.00    +0.000 C 
BRANCH   7   9
ATOM      9  C   UNL     1       6.002   4.529  18.707  0.00  0.00    +0.000 C 
BRANCH   9  15
ATOM     10  C   UNL     1       6.030   3.832  13.928  0.00  0.00    +0.000 C 
ATOM     11  C   UNL     1       6.276   4.525  15.216  0.00  0.00    +0.000 A 
ATOM     12  C   UNL     1       6.997   5.716  15.440  0.00  0.00    +0.000 A 
ATOM     13  C   UNL     1       6.945   5.928  16.803  0.00  0.00    +0.000 A 
ATOM     14  C   UNL     1       7.495   7.034  17.620  0.00  0.00    +0.000 C 
ATOM     15  N   UNL     1       6.257   4.855  17.314  0.00  0.00    +0.000 N 
ATOM     16  N   UNL     1       5.794   4.022  16.357  0.00  0.00    +0.000 NA
ENDBRANCH   9  15
ENDBRANCH   7   9
ENDBRANCH   1   7
BRANCH   4  17
ATOM     17  C   UNL     1       1.017   7.405  20.807  0.00  0.00    +0.000 C 
BRANCH  17  18
ATOM     18  C   UNL     1       0.915   8.897  20.653  0.00  0.00    +0.000 A 
ATOM     19  C   UNL     1       0.560   9.796  21.605  0.00  0.00    +0.000 A 
ATOM     20  C   UNL     1       0.202   9.488  23.032  0.00  0.00    +0.000 C 
ATOM     21  C   UNL     1       0.505  11.216  21.286  0.00  0.00    +0.000 A 
ATOM     22  C   UNL     1       0.824  11.674  20.068  0.00  0.00    +0.000 A 
ATOM     23  C   UNL     1       0.781  13.121  19.693  0.00  0.00    +0.000 C 
ATOM     24  N   UNL     1       1.204  10.778  19.104  0.00  0.00    +0.000 N 
ATOM     25  C   UNL     1       1.277   9.422  19.289  0.00  0.00    +0.000 A 
ATOM     26  O   UNL     1       1.598   8.671  18.370  0.00  0.00    +0.000 OA
ATOM     27  H   UNL     1       1.446  11.102  18.173  0.00  0.00    +0.000 HD
ENDBRANCH  17  18
ENDBRANCH   4  17
TORSDOF 5
ENDMDL
MODEL 6
REMARK VINA RESULT:      -7.1      1.959      2.413
REMARK  Name = 
REMARK  10 active torsions:
REMARK  status: ('A' for Active; 'I' for Inactive)
REMARK    1  A    between atoms: C_1  and  C_2
REMARK    2  A    between atoms: C_4  and  C_5
REMARK    3  A    between atoms: N_6  and  C_7
REMARK    4  A    between atoms: C_7  and  C_8
REMARK    5  A    between atoms: C_8  and  C_9
REMARK    6  A    between atoms: C_8  and  N_10
REMARK    7  A    between atoms: N_13  and  C_14
REMARK    8  A    between atoms: C_14  and  C_15
REMARK    9  A    between atoms: C_16  and  C_17
REMARK   10  A    between atoms: C_19  and  C_20
REMARK                            x       y       z     vdW  Elec       q    Type
REMARK                         _______ _______ _______ _____ _____    ______ ____
ROOT
ATOM      1  N   UNL     1       3.833   5.570  19.927  0.00  0.00    +0.000 N 
ATOM      2  C   UNL     1       2.552   6.033  19.768  0.00  0.00    +0.000 C 
ATOM      3  O   UNL     1       1.736   5.552  18.997  0.00  0.00    +0.000 OA
ATOM      4  N   UNL     1       2.328   7.119  20.572  0.00  0.00    +0.000 N 
ATOM      5  H   UNL     1       4.499   6.248  20.274  0.00  0.00    +0.000 HD
ATOM      6  H   UNL     1       2.855   7.106  21.439  0.00  0.00    +0.000 HD
ENDROOT
BRANCH   1   7
ATOM      7  C   UNL     1       4.370   4.445  19.163  0.00  0.00    +0.000 C 
ATOM      8  C   UNL     1       3.996   3.142  19.868  0.00  0.00    +0.000 C 
BRANCH   7   9
ATOM      9  C   UNL     1       5.880   4.564  18.868  0.00  0.00    +0.000 C 
BRANCH   9  15
ATOM     10  C   UNL     1       5.986   3.819  14.098  0.00  0.00    +0.000 C 
ATOM     11  C   UNL     1       6.244   4.507  15.386  0.00  0.00    +0.000 A 
ATOM     12  C   UNL     1       7.038   5.648  15.619  0.00  0.00    +0.000 A 
ATOM     13  C   UNL     1       6.965   5.877  16.978  0.00  0.00    +0.000 A 
ATOM     14  C   UNL     1       7.567   6.952  17.801  0.00  0.00    +0.000 C 
ATOM     15  N   UNL     1       6.193   4.858  17.480  0.00  0.00    +0.000 N 
ATOM     16  N   UNL     1       5.700   4.048  16.518  0.00  0.00    +0.000 NA
ENDBRANCH   9  15
ENDBRANCH   7   9
ENDBRANCH   1   7
BRANCH   4  17
ATOM     17  C   UNL     1       1.016   7.724  20.700  0.00  0.00    +0.000 C 
BRANCH  17  18
ATOM     18  C   UNL     1       1.083   9.166  20.280  0.00  0.00    +0.000 A 
ATOM     19  C   UNL     1       1.267   9.646  19.025  0.00  0.00    +0.000 A 
ATOM     20  C   UNL     1       1.428   8.829  17.773  0.00  0.00    +0.000 C 
ATOM     21  C   UNL     1       1.314  11.083  18.790  0.00  0.00    +0.000 A 
ATOM     22  C   UNL     1       1.155  11.962  19.789  0.00  0.00    +0.000 A 
ATOM     23  C   UNL     1       1.196  13.445  19.598  0.00  0.00    +0.000 C 
ATOM     24  N   UNL     1       0.949  11.489  21.058  0.00  0.00    +0.000 N 
ATOM     25  C   UNL     1       0.901  10.161  21.395  0.00  0.00    +0.000 A 
ATOM     26  O   UNL     1       0.742   9.807  22.561  0.00  0.00    +0.000 OA
ATOM     27  H   UNL     1       0.830  12.137  21.830  0.00  0.00    +0.000 HD
ENDBRANCH  17  18
ENDBRANCH   4  17
TORSDOF 5
ENDMDL
MODEL 7
REMARK VINA RESULT:      -7.1      1.867      2.713
REMARK  Name = 
REMARK  10 active torsions:
REMARK  status: ('A' for Active; 'I' for Inactive)
REMARK    1  A    between atoms: C_1  and  C_2
REMARK    2  A    between atoms: C_4  and  C_5
REMARK    3  A    between atoms: N_6  and  C_7
REMARK    4  A    between atoms: C_7  and  C_8
REMARK    5  A    between atoms: C_8  and  C_9
REMARK    6  A    between atoms: C_8  and  N_10
REMARK    7  A    between atoms: N_13  and  C_14
REMARK    8  A    between atoms: C_14  and  C_15
REMARK    9  A    between atoms: C_16  and  C_17
REMARK   10  A    between atoms: C_19  and  C_20
REMARK                            x       y       z     vdW  Elec       q    Type
REMARK                         _______ _______ _______ _____ _____    ______ ____
ROOT
ATOM      1  N   UNL     1       3.426   4.877  19.297  0.00  0.00    +0.000 N 
ATOM      2  C   UNL     1       2.285   5.389  19.859  0.00  0.00    +0.000 C 
ATOM      3  O   UNL     1       1.264   4.746  20.053  0.00  0.00    +0.000 OA
ATOM      4  N   UNL     1       2.443   6.719  20.146  0.00  0.00    +0.000 N 
ATOM      5  H   UNL     1       4.029   5.554  18.848  0.00  0.00    +0.000 HD
ATOM      6  H   UNL     1       3.394   6.980  20.384  0.00  0.00    +0.000 HD
ENDROOT
BRANCH   1   7
ATOM      7  C   UNL     1       3.536   3.491  18.847  0.00  0.00    +0.000 C 
ATOM      8  C   UNL     1       4.031   2.628  20.008  0.00  0.00    +0.000 C 
BRANCH   7   9
ATOM      9  C   UNL     1       4.377   3.322  17.564  0.00  0.00    +0.000 C 
BRANCH   9  15
ATOM     10  C   UNL     1       8.035   5.999  19.232  0.00  0.00    +0.000 C 
ATOM     11  C   UNL     1       7.115   5.401  18.235  0.00  0.00    +0.000 A 
ATOM     12  C   UNL     1       7.028   5.677  16.855  0.00  0.00    +0.000 A 
ATOM     13  C   UNL     1       6.010   4.875  16.382  0.00  0.00    +0.000 A 
ATOM     14  C   UNL     1       5.484   4.708  15.007  0.00  0.00    +0.000 C 
ATOM     15  N   UNL     1       5.520   4.216  17.483  0.00  0.00    +0.000 N 
ATOM     16  N   UNL     1       6.218   4.482  18.609  0.00  0.00    +0.000 NA
ENDBRANCH   9  15
ENDBRANCH   7   9
ENDBRANCH   1   7
BRANCH   4  17
ATOM     17  C   UNL     1       1.437   7.474  20.868  0.00  0.00    +0.000 C 
BRANCH  17  18
ATOM     18  C   UNL     1       1.344   8.863  20.296  0.00  0.00    +0.000 A 
ATOM     19  C   UNL     1       1.473   9.223  18.995  0.00  0.00    +0.000 A 
ATOM     20  C   UNL     1       1.723   8.299  17.835  0.00  0.00    +0.000 C 
ATOM     21  C   UNL     1       1.361  10.623  18.608  0.00  0.00    +0.000 A 
ATOM     22  C   UNL     1       1.107  11.580  19.510  0.00  0.00    +0.000 A 
ATOM     23  C   UNL     1       0.984  13.030  19.163  0.00  0.00    +0.000 C 
ATOM     24  N   UNL     1       0.954  11.227  20.825  0.00  0.00    +0.000 N 
ATOM     25  C   UNL     1       1.053   9.945  21.301  0.00  0.00    +0.000 A 
ATOM     26  O   UNL     1       0.935   9.702  22.500  0.00  0.00    +0.000 OA
ATOM     27  H   UNL     1       0.765  11.936  21.525  0.00  0.00    +0.000 HD
ENDBRANCH  17  18
ENDBRANCH   4  17
TORSDOF 5
ENDMDL
MODEL 8
REMARK VINA RESULT:      -7.1      1.734      2.452
REMARK  Name = 
REMARK  10 active torsions:
REMARK  status: ('A' for Active; 'I' for Inactive)
REMARK    1  A    between atoms: C_1  and  C_2
REMARK    2  A    between atoms: C_4  and  C_5
REMARK    3  A    between atoms: N_6  and  C_7
REMARK    4  A    between atoms: C_7  and  C_8
REMARK    5  A    between atoms: C_8  and  C_9
REMARK    6  A    between atoms: C_8  and  N_10
REMARK    7  A    between atoms: N_13  and  C_14
REMARK    8  A    between atoms: C_14  and  C_15
REMARK    9  A    between atoms: C_16  and  C_17
REMARK   10  A    between atoms: C_19  and  C_20
REMARK                            x       y       z     vdW  Elec       q    Type
REMARK                         _______ _______ _______ _____ _____    ______ ____
ROOT
ATOM      1  N   UNL     1       2.366   6.659  19.301  0.00  0.00    +0.000 N 
ATOM      2  C   UNL     1       2.409   7.760  18.486  0.00  0.00    +0.000 C 
ATOM      3  O   UNL     1       3.070   7.834  17.461  0.00  0.00    +0.000 OA
ATOM      4  N   UNL     1       1.632   8.767  18.994  0.00  0.00    +0.000 N 
ATOM      5  H   UNL     1       2.119   6.842  20.265  0.00  0.00    +0.000 HD
ATOM      6  H   UNL     1       0.825   8.443  19.516  0.00  0.00    +0.000 HD
ENDROOT
BRANCH   1   7
ATOM      7  C   UNL     1       3.133   5.444  19.034  0.00  0.00    +0.000 C 
ATOM      8  C   UNL     1       2.443   4.260  19.712  0.00  0.00    +0.000 C 
BRANCH   7   9
ATOM      9  C   UNL     1       4.628   5.564  19.399  0.00  0.00    +0.000 C 
BRANCH   9  15
ATOM     10  C   UNL     1       5.894   3.866  15.059  0.00  0.00    +0.000 C 
ATOM     11  C   UNL     1       6.073   4.444  16.412  0.00  0.00    +0.000 A 
ATOM     12  C   UNL     1       7.279   4.694  17.100  0.00  0.00    +0.000 A 
ATOM     13  C   UNL     1       6.906   5.219  18.320  0.00  0.00    +0.000 A 
ATOM     14  C   UNL     1       7.737   5.700  19.449  0.00  0.00    +0.000 C 
ATOM     15  N   UNL     1       5.533   5.210  18.319  0.00  0.00    +0.000 N 
ATOM     16  N   UNL     1       5.011   4.794  17.144  0.00  0.00    +0.000 NA
ENDBRANCH   9  15
ENDBRANCH   7   9
ENDBRANCH   1   7
BRANCH   4  17
ATOM     17  C   UNL     1       1.393   9.997  18.263  0.00  0.00    +0.000 C 
BRANCH  17  18
ATOM     18  C   UNL     1       0.170  10.680  18.812  0.00  0.00    +0.000 A 
ATOM     19  C   UNL     1      -1.092  10.617  18.320  0.00  0.00    +0.000 A 
ATOM     20  C   UNL     1      -1.542   9.833  17.118  0.00  0.00    +0.000 C 
ATOM     21  C   UNL     1      -2.170  11.348  18.972  0.00  0.00    +0.000 A 
ATOM     22  C   UNL     1      -1.954  12.075  20.077  0.00  0.00    +0.000 A 
ATOM     23  C   UNL     1      -3.027  12.843  20.782  0.00  0.00    +0.000 C 
ATOM     24  N   UNL     1      -0.688  12.129  20.596  0.00  0.00    +0.000 N 
ATOM     25  C   UNL     1       0.401  11.494  20.056  0.00  0.00    +0.000 A 
ATOM     26  O   UNL     1       1.518  11.610  20.557  0.00  0.00    +0.000 OA
ATOM     27  H   UNL     1      -0.501  12.676  21.430  0.00  0.00    +0.000 HD
ENDBRANCH  17  18
ENDBRANCH   4  17
TORSDOF 5
ENDMDL
MODEL 9
REMARK VINA RESULT:      -7.0      5.421      8.435
REMARK  Name = 
REMARK  10 active torsions:
REMARK  status: ('A' for Active; 'I' for Inactive)
REMARK    1  A    between atoms: C_1  and  C_2
REMARK    2  A    between atoms: C_4  and  C_5
REMARK    3  A    between atoms: N_6  and  C_7
REMARK    4  A    between atoms: C_7  and  C_8
REMARK    5  A    between atoms: C_8  and  C_9
REMARK    6  A    between atoms: C_8  and  N_10
REMARK    7  A    between atoms: N_13  and  C_14
REMARK    8  A    between atoms: C_14  and  C_15
REMARK    9  A    between atoms: C_16  and  C_17
REMARK   10  A    between atoms: C_19  and  C_20
REMARK                            x       y       z     vdW  Elec       q    Type
REMARK                         _______ _______ _______ _____ _____    ______ ____
ROOT
ATOM      1  N   UNL     1       7.718   8.768  17.451  0.00  0.00    +0.000 N 
ATOM      2  C   UNL     1       7.897   7.479  17.881  0.00  0.00    +0.000 C 
ATOM      3  O   UNL     1       8.370   7.173  18.965  0.00  0.00    +0.000 OA
ATOM      4  N   UNL     1       7.499   6.589  16.919  0.00  0.00    +0.000 N 
ATOM      5  H   UNL     1       7.694   8.891  16.447  0.00  0.00    +0.000 HD
ATOM      6  H   UNL     1       6.738   6.924  16.337  0.00  0.00    +0.000 HD
ENDROOT
BRANCH   1   7
ATOM      7  C   UNL     1       8.096   9.931  18.252  0.00  0.00    +0.000 C 
ATOM      8  C   UNL     1       7.993  11.186  17.385  0.00  0.00    +0.000 C 
BRANCH   7   9
ATOM      9  C   UNL     1       9.467   9.784  18.945  0.00  0.00    +0.000 C 
BRANCH   9  15
ATOM     10  C   UNL     1       8.960  12.885  22.613  0.00  0.00    +0.000 C 
ATOM     11  C   UNL     1       9.573  12.267  21.412  0.00  0.00    +0.000 A 
ATOM     12  C   UNL     1      10.674  12.729  20.661  0.00  0.00    +0.000 A 
ATOM     13  C   UNL     1      10.836  11.813  19.643  0.00  0.00    +0.000 A 
ATOM     14  C   UNL     1      11.847  11.753  18.562  0.00  0.00    +0.000 C 
ATOM     15  N   UNL     1       9.820  10.902  19.804  0.00  0.00    +0.000 N 
ATOM     16  N   UNL     1       9.077  11.133  20.908  0.00  0.00    +0.000 NA
ENDBRANCH   9  15
ENDBRANCH   7   9
ENDBRANCH   1   7
BRANCH   4  17
ATOM     17  C   UNL     1       7.457   5.160  17.163  0.00  0.00    +0.000 C 
BRANCH  17  18
ATOM     18  C   UNL     1       6.029   4.721  17.341  0.00  0.00    +0.000 A 
ATOM     19  C   UNL     1       5.159   4.351  16.368  0.00  0.00    +0.000 A 
ATOM     20  C   UNL     1       5.445   4.288  14.894  0.00  0.00    +0.000 C 
ATOM     21  C   UNL     1       3.800   3.956  16.713  0.00  0.00    +0.000 A 
ATOM     22  C   UNL     1       3.382   3.923  17.986  0.00  0.00    +0.000 A 
ATOM     23  C   UNL     1       1.998   3.526  18.390  0.00  0.00    +0.000 C 
ATOM     24  N   UNL     1       4.258   4.274  18.979  0.00  0.00    +0.000 N 
ATOM     25  C   UNL     1       5.552   4.675  18.767  0.00  0.00    +0.000 A 
ATOM     26  O   UNL     1       6.276   5.006  19.704  0.00  0.00    +0.000 OA
ATOM     27  H   UNL     1       3.962   4.260  19.949  0.00  0.00    +0.000 HD
ENDBRANCH  17  18
ENDBRANCH   4  17
TORSDOF 5
ENDMDL
