MODEL 1
REMARK VINA RESULT:      -8.0      0.000      0.000
REMARK  Name = 
REMARK  12 active torsions:
REMARK  status: ('A' for Active; 'I' for Inactive)
REMARK    1  A    between atoms: C_1  and  C_2
REMARK    2  A    between atoms: C_2  and  O_3
REMARK    3  A    between atoms: O_3  and  C_4
REMARK    4  A    between atoms: C_4  and  C_6
REMARK    5  A    between atoms: C_6  and  C_7
REMARK    6  A    between atoms: C_7  and  N_8
REMARK    7  A    between atoms: C_11  and  C_12
REMARK    8  A    between atoms: C_17  and  C_18
REMARK    9  A    between atoms: C_22  and  O_23
REMARK   10  A    between atoms: O_23  and  C_24
REMARK   11  A    between atoms: C_26  and  O_27
REMARK   12  A    between atoms: O_27  and  C_28
REMARK                            x       y       z     vdW  Elec       q    Type
REMARK                         _______ _______ _______ _____ _____    ______ ____
ROOT
ATOM      1  C   UNL     1       1.388   8.706  19.052  0.00  0.00    +0.000 A 
ATOM      2  C   UNL     1       0.768   9.503  17.983  0.00  0.00    +0.000 A 
ATOM      3  C   UNL     1      -0.044  10.526  18.296  0.00  0.00    +0.000 A 
ATOM      4  N   UNL     1      -0.279  10.814  19.635  0.00  0.00    +0.000 N 
ATOM      5  C   UNL     1      -1.021  11.820  20.199  0.00  0.00    +0.000 A 
ATOM      6  C   UNL     1      -0.895  11.662  21.568  0.00  0.00    +0.000 A 
ATOM      7  N   UNL     1      -0.124  10.559  21.848  0.00  0.00    +0.000 NA
ATOM      8  C   UNL     1       0.256  10.083  20.682  0.00  0.00    +0.000 A 
ATOM      9  C   UNL     1       1.111   9.002  20.346  0.00  0.00    +0.000 A 
ENDROOT
BRANCH   6  10
ATOM     10  C   UNL     1      -1.495  12.533  22.577  0.00  0.00    +0.000 A 
ATOM     11  C   UNL     1      -2.747  12.179  23.119  0.00  0.00    +0.000 A 
ATOM     12  C   UNL     1      -3.404  12.975  24.069  0.00  0.00    +0.000 A 
ATOM     13 CL   UNL     1      -4.947  12.377  24.570  0.00  0.00    +0.000 Cl
ATOM     14  C   UNL     1      -2.808  14.154  24.514  0.00  0.00    +0.000 A 
ATOM     15  C   UNL     1      -1.554  14.504  23.984  0.00  0.00    +0.000 A 
ATOM     16  C   UNL     1      -0.888  13.715  23.033  0.00  0.00    +0.000 A 
BRANCH  14  17
ATOM     17  O   UNL     1      -3.234  15.095  25.409  0.00  0.00    +0.000 OA
ATOM     18  C   UNL     1      -3.181  16.472  25.092  0.00  0.00    +0.000 C 
ENDBRANCH  14  17
BRANCH  16  19
ATOM     19  O   UNL     1       0.305  14.105  22.477  0.00  0.00    +0.000 OA
ATOM     20  C   UNL     1       0.280  15.274  21.664  0.00  0.00    +0.000 C 
ENDBRANCH  16  19
ENDBRANCH   6  10
BRANCH   1  24
ATOM     21  N   UNL     1       4.154   5.507  18.106  0.00  0.00    +0.000 NA
ATOM     22  C   UNL     1       3.625   5.609  19.476  0.00  0.00    +0.000 C 
ATOM     23  C   UNL     1       2.610   6.683  19.689  0.00  0.00    +0.000 C 
ATOM     24  C   UNL     1       2.320   7.627  18.775  0.00  0.00    +0.000 C 
ATOM     25  C   UNL     1       3.025   7.625  17.442  0.00  0.00    +0.000 C 
ATOM     26  C   UNL     1       4.343   6.837  17.501  0.00  0.00    +0.000 C 
BRANCH  21  27
ATOM     27  C   UNL     1       5.430   4.766  18.090  0.00  0.00    +0.000 C 
BRANCH  27  28
ATOM     28  C   UNL     1       6.619   5.660  17.750  0.00  0.00    +0.000 C 
BRANCH  28  29
ATOM     29  C   UNL     1       7.465   5.900  18.966  0.00  0.00    +0.000 C 
ATOM     30  O   UNL     1       7.381   5.301  20.027  0.00  0.00    +0.000 OA
BRANCH  29  31
ATOM     31  O   UNL     1       8.288   6.957  18.716  0.00  0.00    +0.000 OA
BRANCH  31  33
ATOM     32  C   UNL     1       8.275   9.243  18.058  0.00  0.00    +0.000 C 
ATOM     33  C   UNL     1       7.844   7.838  17.679  0.00  0.00    +0.000 C 
ENDBRANCH  31  33
ENDBRANCH  29  31
ENDBRANCH  28  29
ENDBRANCH  27  28
ENDBRANCH  21  27
ENDBRANCH   1  24
TORSDOF 9
ENDMDL
MODEL 2
REMARK VINA RESULT:      -7.9      1.512      1.995
REMARK  Name = 
REMARK  12 active torsions:
REMARK  status: ('A' for Active; 'I' for Inactive)
REMARK    1  A    between atoms: C_1  and  C_2
REMARK    2  A    between atoms: C_2  and  O_3
REMARK    3  A    between atoms: O_3  and  C_4
REMARK    4  A    between atoms: C_4  and  C_6
REMARK    5  A    between atoms: C_6  and  C_7
REMARK    6  A    between atoms: C_7  and  N_8
REMARK    7  A    between atoms: C_11  and  C_12
REMARK    8  A    between atoms: C_17  and  C_18
REMARK    9  A    between atoms: C_22  and  O_23
REMARK   10  A    between atoms: O_23  and  C_24
REMARK   11  A    between atoms: C_26  and  O_27
REMARK   12  A    between atoms: O_27  and  C_28
REMARK                            x       y       z     vdW  Elec       q    Type
REMARK                         _______ _______ _______ _____ _____    ______ ____
ROOT
ATOM      1  C   UNL     1       1.444   8.688  19.102  0.00  0.00    +0.000 A 
ATOM      2  C   UNL     1       0.929   9.555  18.032  0.00  0.00    +0.000 A 
ATOM      3  C   UNL     1       0.151  10.606  18.340  0.00  0.00    +0.000 A 
ATOM      4  N   UNL     1      -0.149  10.855  19.673  0.00  0.00    +0.000 N 
ATOM      5  C   UNL     1      -0.874  11.875  20.234  0.00  0.00    +0.000 A 
ATOM      6  C   UNL     1      -0.838  11.659  21.601  0.00  0.00    +0.000 A 
ATOM      7  N   UNL     1      -0.139  10.508  21.879  0.00  0.00    +0.000 NA
ATOM      8  C   UNL     1       0.285  10.058  20.719  0.00  0.00    +0.000 A 
ATOM      9  C   UNL     1       1.106   8.948  20.389  0.00  0.00    +0.000 A 
ENDROOT
BRANCH   6  10
ATOM     10  C   UNL     1      -1.454  12.520  22.608  0.00  0.00    +0.000 A 
ATOM     11  C   UNL     1      -2.702  12.147  23.148  0.00  0.00    +0.000 A 
ATOM     12  C   UNL     1      -3.373  12.933  24.095  0.00  0.00    +0.000 A 
ATOM     13 CL   UNL     1      -4.908  12.311  24.593  0.00  0.00    +0.000 Cl
ATOM     14  C   UNL     1      -2.796  14.121  24.542  0.00  0.00    +0.000 A 
ATOM     15  C   UNL     1      -1.547  14.490  24.016  0.00  0.00    +0.000 A 
ATOM     16  C   UNL     1      -0.866  13.712  23.066  0.00  0.00    +0.000 A 
BRANCH  14  17
ATOM     17  O   UNL     1      -3.239  15.054  25.436  0.00  0.00    +0.000 OA
ATOM     18  C   UNL     1      -3.099  16.437  25.170  0.00  0.00    +0.000 C 
ENDBRANCH  14  17
BRANCH  16  19
ATOM     19  O   UNL     1       0.323  14.120  22.514  0.00  0.00    +0.000 OA
ATOM     20  C   UNL     1       0.314  15.369  21.829  0.00  0.00    +0.000 C 
ENDBRANCH  16  19
ENDBRANCH   6  10
BRANCH   1  24
ATOM     21  N   UNL     1       4.096   5.385  18.186  0.00  0.00    +0.000 NA
ATOM     22  C   UNL     1       3.564   5.513  19.552  0.00  0.00    +0.000 C 
ATOM     23  C   UNL     1       2.588   6.625  19.755  0.00  0.00    +0.000 C 
ATOM     24  C   UNL     1       2.337   7.574  18.835  0.00  0.00    +0.000 C 
ATOM     25  C   UNL     1       3.048   7.539  17.505  0.00  0.00    +0.000 C 
ATOM     26  C   UNL     1       4.336   6.704  17.575  0.00  0.00    +0.000 C 
BRANCH  21  27
ATOM     27  C   UNL     1       5.344   4.597  18.180  0.00  0.00    +0.000 C 
BRANCH  27  28
ATOM     28  C   UNL     1       5.649   4.002  16.808  0.00  0.00    +0.000 C 
BRANCH  28  29
ATOM     29  C   UNL     1       7.043   4.353  16.378  0.00  0.00    +0.000 C 
ATOM     30  O   UNL     1       8.023   4.415  17.105  0.00  0.00    +0.000 OA
BRANCH  29  31
ATOM     31  O   UNL     1       7.018   4.675  15.054  0.00  0.00    +0.000 OA
BRANCH  31  33
ATOM     32  C   UNL     1       6.138   3.704  13.069  0.00  0.00    +0.000 C 
ATOM     33  C   UNL     1       5.788   4.378  14.383  0.00  0.00    +0.000 C 
ENDBRANCH  31  33
ENDBRANCH  29  31
ENDBRANCH  28  29
ENDBRANCH  27  28
ENDBRANCH  21  27
ENDBRANCH   1  24
TORSDOF 9
ENDMDL
MODEL 3
REMARK VINA RESULT:      -7.6      3.866      5.101
REMARK  Name = 
REMARK  12 active torsions:
REMARK  status: ('A' for Active; 'I' for Inactive)
REMARK    1  A    between atoms: C_1  and  C_2
REMARK    2  A    between atoms: C_2  and  O_3
REMARK    3  A    between atoms: O_3  and  C_4
REMARK    4  A    between atoms: C_4  and  C_6
REMARK    5  A    between atoms: C_6  and  C_7
REMARK    6  A    between atoms: C_7  and  N_8
REMARK    7  A    between atoms: C_11  and  C_12
REMARK    8  A    between atoms: C_17  and  C_18
REMARK    9  A    between atoms: C_22  and  O_23
REMARK   10  A    between atoms: O_23  and  C_24
REMARK   11  A    between atoms: C_26  and  O_27
REMARK   12  A    between atoms: O_27  and  C_28
REMARK                            x       y       z     vdW  Elec       q    Type
REMARK                         _______ _______ _______ _____ _____    ______ ____
ROOT
ATOM      1  C   UNL     1       3.455   6.685  18.146  0.00  0.00    +0.000 A 
ATOM      2  C   UNL     1       3.028   6.068  19.411  0.00  0.00    +0.000 A 
ATOM      3  C   UNL     1       2.173   6.719  20.217  0.00  0.00    +0.000 A 
ATOM      4  N   UNL     1       1.702   7.968  19.833  0.00  0.00    +0.000 N 
ATOM      5  C   UNL     1       0.802   8.796  20.453  0.00  0.00    +0.000 A 
ATOM      6  C   UNL     1       0.673   9.900  19.629  0.00  0.00    +0.000 A 
ATOM      7  N   UNL     1       1.504   9.778  18.540  0.00  0.00    +0.000 NA
ATOM      8  C   UNL     1       2.090   8.608  18.667  0.00  0.00    +0.000 A 
ATOM      9  C   UNL     1       2.995   7.917  17.820  0.00  0.00    +0.000 A 
ENDROOT
BRANCH   6  10
ATOM     10  C   UNL     1      -0.212  11.037  19.874  0.00  0.00    +0.000 A 
ATOM     11  C   UNL     1      -1.512  11.014  19.327  0.00  0.00    +0.000 A 
ATOM     12  C   UNL     1      -2.411  12.078  19.490  0.00  0.00    +0.000 A 
ATOM     13 CL   UNL     1      -3.936  11.861  18.704  0.00  0.00    +0.000 Cl
ATOM     14  C   UNL     1      -2.030  13.200  20.226  0.00  0.00    +0.000 A 
ATOM     15  C   UNL     1      -0.740  13.220  20.781  0.00  0.00    +0.000 A 
ATOM     16  C   UNL     1       0.169  12.162  20.625  0.00  0.00    +0.000 A 
BRANCH  14  17
ATOM     17  O   UNL     1      -2.703  14.352  20.519  0.00  0.00    +0.000 OA
ATOM     18  C   UNL     1      -3.738  14.362  21.482  0.00  0.00    +0.000 C 
ENDBRANCH  14  17
BRANCH  16  19
ATOM     19  O   UNL     1       1.448  12.228  21.119  0.00  0.00    +0.000 OA
ATOM     20  C   UNL     1       2.224  13.360  20.738  0.00  0.00    +0.000 C 
ENDBRANCH  16  19
ENDBRANCH   6  10
BRANCH   1  24
ATOM     21  N   UNL     1       6.068   4.558  15.421  0.00  0.00    +0.000 NA
ATOM     22  C   UNL     1       5.862   6.002  15.228  0.00  0.00    +0.000 C 
ATOM     23  C   UNL     1       5.020   6.670  16.265  0.00  0.00    +0.000 C 
ATOM     24  C   UNL     1       4.330   6.004  17.208  0.00  0.00    +0.000 C 
ATOM     25  C   UNL     1       4.396   4.498  17.266  0.00  0.00    +0.000 C 
ATOM     26  C   UNL     1       4.849   3.901  15.924  0.00  0.00    +0.000 C 
BRANCH  21  27
ATOM     27  C   UNL     1       6.500   3.916  14.165  0.00  0.00    +0.000 C 
BRANCH  27  28
ATOM     28  C   UNL     1       5.348   3.731  13.181  0.00  0.00    +0.000 C 
BRANCH  28  29
ATOM     29  C   UNL     1       5.797   2.946  11.982  0.00  0.00    +0.000 C 
ATOM     30  O   UNL     1       6.954   2.768  11.636  0.00  0.00    +0.000 OA
BRANCH  29  31
ATOM     31  O   UNL     1       4.693   2.536  11.297  0.00  0.00    +0.000 OA
BRANCH  31  33
ATOM     32  C   UNL     1       3.230   3.788   9.899  0.00  0.00    +0.000 C 
ATOM     33  C   UNL     1       3.587   3.445  11.334  0.00  0.00    +0.000 C 
ENDBRANCH  31  33
ENDBRANCH  29  31
ENDBRANCH  28  29
ENDBRANCH  27  28
ENDBRANCH  21  27
ENDBRANCH   1  24
TORSDOF 9
ENDMDL
MODEL 4
REMARK VINA RESULT:      -7.6      3.804      5.174
REMARK  Name = 
REMARK  12 active torsions:
REMARK  status: ('A' for Active; 'I' for Inactive)
REMARK    1  A    between atoms: C_1  and  C_2
REMARK    2  A    between atoms: C_2  and  O_3
REMARK    3  A    between atoms: O_3  and  C_4
REMARK    4  A    between atoms: C_4  and  C_6
REMARK    5  A    between atoms: C_6  and  C_7
REMARK    6  A    between atoms: C_7  and  N_8
REMARK    7  A    between atoms: C_11  and  C_12
REMARK    8  A    between atoms: C_17  and  C_18
REMARK    9  A    between atoms: C_22  and  O_23
REMARK   10  A    between atoms: O_23  and  C_24
REMARK   11  A    between atoms: C_26  and  O_27
REMARK   12  A    between atoms: O_27  and  C_28
REMARK                            x       y       z     vdW  Elec       q    Type
REMARK                         _______ _______ _______ _____ _____    ______ ____
ROOT
ATOM      1  C   UNL     1       3.342   6.688  18.422  0.00  0.00    +0.000 A 
ATOM      2  C   UNL     1       2.950   6.049  19.687  0.00  0.00    +0.000 A 
ATOM      3  C   UNL     1       2.061   6.653  20.494  0.00  0.00    +0.000 A 
ATOM      4  N   UNL     1       1.524   7.875  20.109  0.00  0.00    +0.000 N 
ATOM      5  C   UNL     1       0.581   8.653  20.730  0.00  0.00    +0.000 A 
ATOM      6  C   UNL     1       0.391   9.749  19.906  0.00  0.00    +0.000 A 
ATOM      7  N   UNL     1       1.228   9.672  18.817  0.00  0.00    +0.000 NA
ATOM      8  C   UNL     1       1.876   8.535  18.944  0.00  0.00    +0.000 A 
ATOM      9  C   UNL     1       2.817   7.894  18.096  0.00  0.00    +0.000 A 
ENDROOT
BRANCH   6  10
ATOM     10  C   UNL     1      -0.554  10.836  20.152  0.00  0.00    +0.000 A 
ATOM     11  C   UNL     1      -0.483  11.533  21.375  0.00  0.00    +0.000 A 
ATOM     12  C   UNL     1      -1.372  12.567  21.701  0.00  0.00    +0.000 A 
ATOM     13 CL   UNL     1      -1.134  13.258  23.268  0.00  0.00    +0.000 Cl
ATOM     14  C   UNL     1      -2.358  12.944  20.789  0.00  0.00    +0.000 A 
ATOM     15  C   UNL     1      -2.423  12.261  19.564  0.00  0.00    +0.000 A 
ATOM     16  C   UNL     1      -1.540  11.223  19.228  0.00  0.00    +0.000 A 
BRANCH  14  17
ATOM     17  O   UNL     1      -3.334  13.897  20.865  0.00  0.00    +0.000 OA
ATOM     18  C   UNL     1      -4.654  13.616  20.440  0.00  0.00    +0.000 C 
ENDBRANCH  14  17
BRANCH  16  19
ATOM     19  O   UNL     1      -1.660  10.522  18.054  0.00  0.00    +0.000 OA
ATOM     20  C   UNL     1      -2.972  10.100  17.692  0.00  0.00    +0.000 C 
ENDBRANCH  16  19
ENDBRANCH   6  10
BRANCH   1  24
ATOM     21  N   UNL     1       6.086   4.719  15.706  0.00  0.00    +0.000 NA
ATOM     22  C   UNL     1       5.589   6.062  15.367  0.00  0.00    +0.000 C 
ATOM     23  C   UNL     1       4.722   6.702  16.401  0.00  0.00    +0.000 C 
ATOM     24  C   UNL     1       4.253   6.056  17.483  0.00  0.00    +0.000 C 
ATOM     25  C   UNL     1       4.613   4.609  17.711  0.00  0.00    +0.000 C 
ATOM     26  C   UNL     1       5.062   3.927  16.410  0.00  0.00    +0.000 C 
BRANCH  21  27
ATOM     27  C   UNL     1       6.529   4.001  14.496  0.00  0.00    +0.000 C 
BRANCH  27  28
ATOM     28  C   UNL     1       5.405   3.830  13.477  0.00  0.00    +0.000 C 
BRANCH  28  29
ATOM     29  C   UNL     1       5.950   3.343  12.165  0.00  0.00    +0.000 C 
ATOM     30  O   UNL     1       7.074   3.550  11.736  0.00  0.00    +0.000 OA
BRANCH  29  31
ATOM     31  O   UNL     1       4.951   2.703  11.495  0.00  0.00    +0.000 OA
BRANCH  31  33
ATOM     32  C   UNL     1       3.307   3.607  10.032  0.00  0.00    +0.000 C 
ATOM     33  C   UNL     1       3.694   3.389  11.484  0.00  0.00    +0.000 C 
ENDBRANCH  31  33
ENDBRANCH  29  31
ENDBRANCH  28  29
ENDBRANCH  27  28
ENDBRANCH  21  27
ENDBRANCH   1  24
TORSDOF 9
ENDMDL
MODEL 5
REMARK VINA RESULT:      -7.5      1.838      3.086
REMARK  Name = 
REMARK  12 active torsions:
REMARK  status: ('A' for Active; 'I' for Inactive)
REMARK    1  A    between atoms: C_1  and  C_2
REMARK    2  A    between atoms: C_2  and  O_3
REMARK    3  A    between atoms: O_3  and  C_4
REMARK    4  A    between atoms: C_4  and  C_6
REMARK    5  A    between atoms: C_6  and  C_7
REMARK    6  A    between atoms: C_7  and  N_8
REMARK    7  A    between atoms: C_11  and  C_12
REMARK    8  A    between atoms: C_17  and  C_18
REMARK    9  A    between atoms: C_22  and  O_23
REMARK   10  A    between atoms: O_23  and  C_24
REMARK   11  A    between atoms: C_26  and  O_27
REMARK   12  A    between atoms: O_27  and  C_28
REMARK                            x       y       z     vdW  Elec       q    Type
REMARK                         _______ _______ _______ _____ _____    ______ ____
ROOT
ATOM      1  C   UNL     1       1.353   8.861  19.131  0.00  0.00    +0.000 A 
ATOM      2  C   UNL     1       0.689   9.597  18.045  0.00  0.00    +0.000 A 
ATOM      3  C   UNL     1      -0.166  10.592  18.336  0.00  0.00    +0.000 A 
ATOM      4  N   UNL     1      -0.401  10.909  19.668  0.00  0.00    +0.000 N 
ATOM      5  C   UNL     1      -1.183  11.897  20.210  0.00  0.00    +0.000 A 
ATOM      6  C   UNL     1      -1.038  11.786  21.581  0.00  0.00    +0.000 A 
ATOM      7  N   UNL     1      -0.215  10.728  21.886  0.00  0.00    +0.000 NA
ATOM      8  C   UNL     1       0.175  10.234  20.731  0.00  0.00    +0.000 A 
ATOM      9  C   UNL     1       1.075   9.183  20.418  0.00  0.00    +0.000 A 
ENDROOT
BRANCH   6  10
ATOM     10  C   UNL     1      -1.667  12.659  22.570  0.00  0.00    +0.000 A 
ATOM     11  C   UNL     1      -2.987  12.380  22.979  0.00  0.00    +0.000 A 
ATOM     12  C   UNL     1      -3.673  13.185  23.900  0.00  0.00    +0.000 A 
ATOM     13 CL   UNL     1      -5.294  12.685  24.230  0.00  0.00    +0.000 Cl
ATOM     14  C   UNL     1      -3.038  14.298  24.452  0.00  0.00    +0.000 A 
ATOM     15  C   UNL     1      -1.719  14.572  24.056  0.00  0.00    +0.000 A 
ATOM     16  C   UNL     1      -1.023  13.774  23.134  0.00  0.00    +0.000 A 
BRANCH  14  17
ATOM     17  O   UNL     1      -3.480  15.231  25.346  0.00  0.00    +0.000 OA
ATOM     18  C   UNL     1      -4.176  16.382  24.907  0.00  0.00    +0.000 C 
ENDBRANCH  14  17
BRANCH  16  19
ATOM     19  O   UNL     1       0.242  14.095  22.708  0.00  0.00    +0.000 OA
ATOM     20  C   UNL     1       0.410  15.377  22.111  0.00  0.00    +0.000 C 
ENDBRANCH  16  19
ENDBRANCH   6  10
BRANCH   1  24
ATOM     21  N   UNL     1       4.274   5.724  18.491  0.00  0.00    +0.000 NA
ATOM     22  C   UNL     1       3.968   6.649  17.387  0.00  0.00    +0.000 C 
ATOM     23  C   UNL     1       3.020   7.752  17.724  0.00  0.00    +0.000 C 
ATOM     24  C   UNL     1       2.330   7.816  18.876  0.00  0.00    +0.000 C 
ATOM     25  C   UNL     1       2.508   6.743  19.921  0.00  0.00    +0.000 C 
ATOM     26  C   UNL     1       3.082   5.453  19.313  0.00  0.00    +0.000 C 
BRANCH  21  27
ATOM     27  C   UNL     1       4.824   4.455  17.976  0.00  0.00    +0.000 C 
BRANCH  27  28
ATOM     28  C   UNL     1       3.762   3.366  17.857  0.00  0.00    +0.000 C 
BRANCH  28  29
ATOM     29  C   UNL     1       3.842   2.420  19.019  0.00  0.00    +0.000 C 
ATOM     30  O   UNL     1       4.759   2.348  19.822  0.00  0.00    +0.000 OA
BRANCH  29  31
ATOM     31  O   UNL     1       2.758   1.595  18.979  0.00  0.00    +0.000 OA
BRANCH  31  33
ATOM     32  C   UNL     1       1.361   2.572  20.638  0.00  0.00    +0.000 C 
ATOM     33  C   UNL     1       1.496   2.246  19.162  0.00  0.00    +0.000 C 
ENDBRANCH  31  33
ENDBRANCH  29  31
ENDBRANCH  28  29
ENDBRANCH  27  28
ENDBRANCH  21  27
ENDBRANCH   1  24
TORSDOF 9
ENDMDL
MODEL 6
REMARK VINA RESULT:      -7.3      2.942      3.835
REMARK  Name = 
REMARK  12 active torsions:
REMARK  status: ('A' for Active; 'I' for Inactive)
REMARK    1  A    between atoms: C_1  and  C_2
REMARK    2  A    between atoms: C_2  and  O_3
REMARK    3  A    between atoms: O_3  and  C_4
REMARK    4  A    between atoms: C_4  and  C_6
REMARK    5  A    between atoms: C_6  and  C_7
REMARK    6  A    between atoms: C_7  and  N_8
REMARK    7  A    between atoms: C_11  and  C_12
REMARK    8  A    between atoms: C_17  and  C_18
REMARK    9  A    between atoms: C_22  and  O_23
REMARK   10  A    between atoms: O_23  and  C_24
REMARK   11  A    between atoms: C_26  and  O_27
REMARK   12  A    between atoms: O_27  and  C_28
REMARK                            x       y       z     vdW  Elec       q    Type
REMARK                         _______ _______ _______ _____ _____    ______ ____
ROOT
ATOM      1  C   UNL     1       2.373   7.136  19.163  0.00  0.00    +0.000 A 
ATOM      2  C   UNL     1       1.868   6.634  20.450  0.00  0.00    +0.000 A 
ATOM      3  C   UNL     1       1.118   7.431  21.231  0.00  0.00    +0.000 A 
ATOM      4  N   UNL     1       0.831   8.720  20.799  0.00  0.00    +0.000 N 
ATOM      5  C   UNL     1       0.062   9.691  21.388  0.00  0.00    +0.000 A 
ATOM      6  C   UNL     1       0.089  10.771  20.524  0.00  0.00    +0.000 A 
ATOM      7  N   UNL     1       0.888  10.491  19.441  0.00  0.00    +0.000 NA
ATOM      8  C   UNL     1       1.300   9.254  19.611  0.00  0.00    +0.000 A 
ATOM      9  C   UNL     1       2.093   8.409  18.791  0.00  0.00    +0.000 A 
ENDROOT
BRANCH   6  10
ATOM     10  C   UNL     1      -0.623  12.032  20.725  0.00  0.00    +0.000 A 
ATOM     11  C   UNL     1      -1.995  12.094  20.406  0.00  0.00    +0.000 A 
ATOM     12  C   UNL     1      -2.742  13.273  20.541  0.00  0.00    +0.000 A 
ATOM     13 CL   UNL     1      -4.396  13.140  20.055  0.00  0.00    +0.000 Cl
ATOM     14  C   UNL     1      -2.128  14.430  21.021  0.00  0.00    +0.000 A 
ATOM     15  C   UNL     1      -0.764  14.368  21.351  0.00  0.00    +0.000 A 
ATOM     16  C   UNL     1      -0.005  13.194  21.219  0.00  0.00    +0.000 A 
BRANCH  14  17
ATOM     17  O   UNL     1      -2.621  15.687  21.233  0.00  0.00    +0.000 OA
ATOM     18  C   UNL     1      -2.761  16.600  20.162  0.00  0.00    +0.000 C 
ENDBRANCH  14  17
BRANCH  16  19
ATOM     19  O   UNL     1       1.341  13.168  21.484  0.00  0.00    +0.000 OA
ATOM     20  C   UNL     1       2.175  13.950  20.634  0.00  0.00    +0.000 C 
ENDBRANCH  16  19
ENDBRANCH   6  10
BRANCH   1  24
ATOM     21  N   UNL     1       4.683   4.749  16.380  0.00  0.00    +0.000 NA
ATOM     22  C   UNL     1       3.744   4.073  17.289  0.00  0.00    +0.000 C 
ATOM     23  C   UNL     1       2.924   4.979  18.149  0.00  0.00    +0.000 C 
ATOM     24  C   UNL     1       3.136   6.303  18.251  0.00  0.00    +0.000 C 
ATOM     25  C   UNL     1       4.243   6.951  17.457  0.00  0.00    +0.000 C 
ATOM     26  C   UNL     1       5.299   5.925  17.018  0.00  0.00    +0.000 C 
BRANCH  21  27
ATOM     27  C   UNL     1       5.734   3.820  15.924  0.00  0.00    +0.000 C 
BRANCH  27  28
ATOM     28  C   UNL     1       6.983   4.549  15.435  0.00  0.00    +0.000 C 
BRANCH  28  29
ATOM     29  C   UNL     1       6.914   4.780  13.953  0.00  0.00    +0.000 C 
ATOM     30  O   UNL     1       7.655   5.504  13.306  0.00  0.00    +0.000 OA
BRANCH  29  31
ATOM     31  O   UNL     1       5.831   4.114  13.462  0.00  0.00    +0.000 OA
BRANCH  31  33
ATOM     32  C   UNL     1       4.734   3.155  11.582  0.00  0.00    +0.000 C 
ATOM     33  C   UNL     1       6.073   3.367  12.266  0.00  0.00    +0.000 C 
ENDBRANCH  31  33
ENDBRANCH  29  31
ENDBRANCH  28  29
ENDBRANCH  27  28
ENDBRANCH  21  27
ENDBRANCH   1  24
TORSDOF 9
ENDMDL
MODEL 7
REMARK VINA RESULT:      -7.2      2.210      3.137
REMARK  Name = 
REMARK  12 active torsions:
REMARK  status: ('A' for Active; 'I' for Inactive)
REMARK    1  A    between atoms: C_1  and  C_2
REMARK    2  A    between atoms: C_2  and  O_3
REMARK    3  A    between atoms: O_3  and  C_4
REMARK    4  A    between atoms: C_4  and  C_6
REMARK    5  A    between atoms: C_6  and  C_7
REMARK    6  A    between atoms: C_7  and  N_8
REMARK    7  A    between atoms: C_11  and  C_12
REMARK    8  A    between atoms: C_17  and  C_18
REMARK    9  A    between atoms: C_22  and  O_23
REMARK   10  A    between atoms: O_23  and  C_24
REMARK   11  A    between atoms: C_26  and  O_27
REMARK   12  A    between atoms: O_27  and  C_28
REMARK                            x       y       z     vdW  Elec       q    Type
REMARK                         _______ _______ _______ _____ _____    ______ ____
ROOT
ATOM      1  C   UNL     1       1.536   9.138  19.248  0.00  0.00    +0.000 A 
ATOM      2  C   UNL     1       1.596  10.273  18.315  0.00  0.00    +0.000 A 
ATOM      3  C   UNL     1       1.018  11.441  18.644  0.00  0.00    +0.000 A 
ATOM      4  N   UNL     1       0.375  11.553  19.870  0.00  0.00    +0.000 N 
ATOM      5  C   UNL     1      -0.240  12.636  20.443  0.00  0.00    +0.000 A 
ATOM      6  C   UNL     1      -0.688  12.207  21.680  0.00  0.00    +0.000 A 
ATOM      7  N   UNL     1      -0.392  10.876  21.855  0.00  0.00    +0.000 NA
ATOM      8  C   UNL     1       0.265  10.511  20.776  0.00  0.00    +0.000 A 
ATOM      9  C   UNL     1       0.875   9.279  20.423  0.00  0.00    +0.000 A 
ENDROOT
BRANCH   6  10
ATOM     10  C   UNL     1      -1.381  13.039  22.662  0.00  0.00    +0.000 A 
ATOM     11  C   UNL     1      -2.664  12.649  23.096  0.00  0.00    +0.000 A 
ATOM     12  C   UNL     1      -3.407  13.407  24.013  0.00  0.00    +0.000 A 
ATOM     13 CL   UNL     1      -4.972  12.769  24.377  0.00  0.00    +0.000 Cl
ATOM     14  C   UNL     1      -2.869  14.584  24.534  0.00  0.00    +0.000 A 
ATOM     15  C   UNL     1      -1.586  14.969  24.112  0.00  0.00    +0.000 A 
ATOM     16  C   UNL     1      -0.833  14.219  23.195  0.00  0.00    +0.000 A 
BRANCH  14  17
ATOM     17  O   UNL     1      -3.382  15.491  25.417  0.00  0.00    +0.000 OA
ATOM     18  C   UNL     1      -4.287  16.490  24.987  0.00  0.00    +0.000 C 
ENDBRANCH  14  17
BRANCH  16  19
ATOM     19  O   UNL     1       0.392  14.644  22.744  0.00  0.00    +0.000 OA
ATOM     20  C   UNL     1       0.526  16.036  22.475  0.00  0.00    +0.000 C 
ENDBRANCH  16  19
ENDBRANCH   6  10
BRANCH   1  24
ATOM     21  N   UNL     1       3.483   5.383  18.308  0.00  0.00    +0.000 NA
ATOM     22  C   UNL     1       3.013   5.617  19.683  0.00  0.00    +0.000 C 
ATOM     23  C   UNL     1       2.274   6.897  19.895  0.00  0.00    +0.000 C 
ATOM     24  C   UNL     1       2.192   7.872  18.973  0.00  0.00    +0.000 C 
ATOM     25  C   UNL     1       2.855   7.696  17.630  0.00  0.00    +0.000 C 
ATOM     26  C   UNL     1       3.960   6.628  17.681  0.00  0.00    +0.000 C 
BRANCH  21  27
ATOM     27  C   UNL     1       4.555   4.369  18.283  0.00  0.00    +0.000 C 
BRANCH  27  28
ATOM     28  C   UNL     1       4.248   3.220  17.328  0.00  0.00    +0.000 C 
BRANCH  28  29
ATOM     29  C   UNL     1       3.349   2.213  17.984  0.00  0.00    +0.000 C 
ATOM     30  O   UNL     1       3.706   1.171  18.512  0.00  0.00    +0.000 OA
BRANCH  29  31
ATOM     31  O   UNL     1       2.057   2.614  17.817  0.00  0.00    +0.000 OA
BRANCH  31  33
ATOM     32  C   UNL     1       0.826   3.099  19.793  0.00  0.00    +0.000 C 
ATOM     33  C   UNL     1       1.124   2.046  18.742  0.00  0.00    +0.000 C 
ENDBRANCH  31  33
ENDBRANCH  29  31
ENDBRANCH  28  29
ENDBRANCH  27  28
ENDBRANCH  21  27
ENDBRANCH   1  24
TORSDOF 9
ENDMDL
MODEL 8
REMARK VINA RESULT:      -7.2      1.211      1.667
REMARK  Name = 
REMARK  12 active torsions:
REMARK  status: ('A' for Active; 'I' for Inactive)
REMARK    1  A    between atoms: C_1  and  C_2
REMARK    2  A    between atoms: C_2  and  O_3
REMARK    3  A    between atoms: O_3  and  C_4
REMARK    4  A    between atoms: C_4  and  C_6
REMARK    5  A    between atoms: C_6  and  C_7
REMARK    6  A    between atoms: C_7  and  N_8
REMARK    7  A    between atoms: C_11  and  C_12
REMARK    8  A    between atoms: C_17  and  C_18
REMARK    9  A    between atoms: C_22  and  O_23
REMARK   10  A    between atoms: O_23  and  C_24
REMARK   11  A    between atoms: C_26  and  O_27
REMARK   12  A    between atoms: O_27  and  C_28
REMARK                            x       y       z     vdW  Elec       q    Type
REMARK                         _______ _______ _______ _____ _____    ______ ____
ROOT
ATOM      1  C   UNL     1       1.245   8.825  18.890  0.00  0.00    +0.000 A 
ATOM      2  C   UNL     1       0.331   9.405  17.895  0.00  0.00    +0.000 A 
ATOM      3  C   UNL     1      -0.564  10.334  18.270  0.00  0.00    +0.000 A 
ATOM      4  N   UNL     1      -0.603  10.734  19.600  0.00  0.00    +0.000 N 
ATOM      5  C   UNL     1      -1.382  11.683  20.209  0.00  0.00    +0.000 A 
ATOM      6  C   UNL     1      -0.996  11.697  21.537  0.00  0.00    +0.000 A 
ATOM      7  N   UNL     1      -0.024  10.749  21.757  0.00  0.00    +0.000 NA
ATOM      8  C   UNL     1       0.215  10.204  20.584  0.00  0.00    +0.000 A 
ATOM      9  C   UNL     1       1.157   9.221  20.183  0.00  0.00    +0.000 A 
ENDROOT
BRANCH   6  10
ATOM     10  C   UNL     1      -1.538  12.582  22.566  0.00  0.00    +0.000 A 
ATOM     11  C   UNL     1      -2.820  12.311  23.087  0.00  0.00    +0.000 A 
ATOM     12  C   UNL     1      -3.424  13.128  24.053  0.00  0.00    +0.000 A 
ATOM     13 CL   UNL     1      -5.014  12.637  24.524  0.00  0.00    +0.000 Cl
ATOM     14  C   UNL     1      -2.744  14.245  24.537  0.00  0.00    +0.000 A 
ATOM     15  C   UNL     1      -1.462  14.512  24.028  0.00  0.00    +0.000 A 
ATOM     16  C   UNL     1      -0.847  13.702  23.061  0.00  0.00    +0.000 A 
BRANCH  14  17
ATOM     17  O   UNL     1      -3.107  15.190  25.454  0.00  0.00    +0.000 OA
ATOM     18  C   UNL     1      -3.947  16.268  25.090  0.00  0.00    +0.000 C 
ENDBRANCH  14  17
BRANCH  16  19
ATOM     19  O   UNL     1       0.378  14.014  22.527  0.00  0.00    +0.000 OA
ATOM     20  C   UNL     1       0.631  15.392  22.268  0.00  0.00    +0.000 C 
ENDBRANCH  16  19
ENDBRANCH   6  10
BRANCH   1  24
ATOM     21  N   UNL     1       4.283   5.889  17.925  0.00  0.00    +0.000 NA
ATOM     22  C   UNL     1       4.245   7.150  17.167  0.00  0.00    +0.000 C 
ATOM     23  C   UNL     1       3.226   8.140  17.627  0.00  0.00    +0.000 C 
ATOM     24  C   UNL     1       2.271   7.861  18.532  0.00  0.00    +0.000 C 
ATOM     25  C   UNL     1       2.202   6.489  19.155  0.00  0.00    +0.000 C 
ATOM     26  C   UNL     1       2.929   5.442  18.296  0.00  0.00    +0.000 C 
BRANCH  21  27
ATOM     27  C   UNL     1       4.964   4.832  17.152  0.00  0.00    +0.000 C 
BRANCH  27  28
ATOM     28  C   UNL     1       5.442   5.324  15.789  0.00  0.00    +0.000 C 
BRANCH  28  29
ATOM     29  C   UNL     1       6.921   5.112  15.639  0.00  0.00    +0.000 C 
ATOM     30  O   UNL     1       7.499   4.803  14.609  0.00  0.00    +0.000 OA
BRANCH  29  31
ATOM     31  O   UNL     1       7.501   5.240  16.866  0.00  0.00    +0.000 OA
BRANCH  31  33
ATOM     32  C   UNL     1       7.926   6.538  18.813  0.00  0.00    +0.000 C 
ATOM     33  C   UNL     1       7.666   6.588  17.318  0.00  0.00    +0.000 C 
ENDBRANCH  31  33
ENDBRANCH  29  31
ENDBRANCH  28  29
ENDBRANCH  27  28
ENDBRANCH  21  27
ENDBRANCH   1  24
TORSDOF 9
ENDMDL
MODEL 9
REMARK VINA RESULT:      -7.2      2.219      2.514
REMARK  Name = 
REMARK  12 active torsions:
REMARK  status: ('A' for Active; 'I' for Inactive)
REMARK    1  A    between atoms: C_1  and  C_2
REMARK    2  A    between atoms: C_2  and  O_3
REMARK    3  A    between atoms: O_3  and  C_4
REMARK    4  A    between atoms: C_4  and  C_6
REMARK    5  A    between atoms: C_6  and  C_7
REMARK    6  A    between atoms: C_7  and  N_8
REMARK    7  A    between atoms: C_11  and  C_12
REMARK    8  A    between atoms: C_17  and  C_18
REMARK    9  A    between atoms: C_22  and  O_23
REMARK   10  A    between atoms: O_23  and  C_24
REMARK   11  A    between atoms: C_26  and  O_27
REMARK   12  A    between atoms: O_27  and  C_28
REMARK                            x       y       z     vdW  Elec       q    Type
REMARK                         _______ _______ _______ _____ _____    ______ ____
ROOT
ATOM      1  C   UNL     1       1.515   8.531  20.052  0.00  0.00    +0.000 A 
ATOM      2  C   UNL     1       1.403   8.401  21.512  0.00  0.00    +0.000 A 
ATOM      3  C   UNL     1       0.648   9.269  22.205  0.00  0.00    +0.000 A 
ATOM      4  N   UNL     1      -0.019  10.278  21.521  0.00  0.00    +0.000 N 
ATOM      5  C   UNL     1      -0.872  11.242  21.992  0.00  0.00    +0.000 A 
ATOM      6  C   UNL     1      -1.273  11.968  20.884  0.00  0.00    +0.000 A 
ATOM      7  N   UNL     1      -0.653  11.489  19.755  0.00  0.00    +0.000 NA
ATOM      8  C   UNL     1       0.070  10.464  20.151  0.00  0.00    +0.000 A 
ATOM      9  C   UNL     1       0.871   9.545  19.424  0.00  0.00    +0.000 A 
ENDROOT
BRANCH   6  10
ATOM     10  C   UNL     1      -2.215  13.085  20.902  0.00  0.00    +0.000 A 
ATOM     11  C   UNL     1      -3.597  12.807  20.887  0.00  0.00    +0.000 A 
ATOM     12  C   UNL     1      -4.566  13.821  20.872  0.00  0.00    +0.000 A 
ATOM     13 CL   UNL     1      -6.200  13.259  20.813  0.00  0.00    +0.000 Cl
ATOM     14  C   UNL     1      -4.167  15.158  20.886  0.00  0.00    +0.000 A 
ATOM     15  C   UNL     1      -2.791  15.438  20.913  0.00  0.00    +0.000 A 
ATOM     16  C   UNL     1      -1.813  14.432  20.928  0.00  0.00    +0.000 A 
BRANCH  14  17
ATOM     17  O   UNL     1      -4.897  16.312  20.867  0.00  0.00    +0.000 OA
ATOM     18  C   UNL     1      -5.562  16.730  19.690  0.00  0.00    +0.000 C 
ENDBRANCH  14  17
BRANCH  16  19
ATOM     19  O   UNL     1      -0.472  14.724  20.888  0.00  0.00    +0.000 OA
ATOM     20  C   UNL     1      -0.081  15.823  20.070  0.00  0.00    +0.000 C 
ENDBRANCH  16  19
ENDBRANCH   6  10
BRANCH   1  24
ATOM     21  N   UNL     1       3.729   5.777  17.543  0.00  0.00    +0.000 NA
ATOM     22  C   UNL     1       3.447   5.401  18.937  0.00  0.00    +0.000 C 
ATOM     23  C   UNL     1       2.602   6.367  19.700  0.00  0.00    +0.000 C 
ATOM     24  C   UNL     1       2.268   7.587  19.244  0.00  0.00    +0.000 C 
ATOM     25  C   UNL     1       2.738   8.036  17.883  0.00  0.00    +0.000 C 
ATOM     26  C   UNL     1       3.955   7.227  17.411  0.00  0.00    +0.000 C 
BRANCH  21  27
ATOM     27  C   UNL     1       4.897   5.040  17.025  0.00  0.00    +0.000 C 
BRANCH  27  28
ATOM     28  C   UNL     1       6.002   4.893  18.068  0.00  0.00    +0.000 C 
BRANCH  28  29
ATOM     29  C   UNL     1       7.354   5.010  17.427  0.00  0.00    +0.000 C 
ATOM     30  O   UNL     1       8.164   4.106  17.294  0.00  0.00    +0.000 OA
BRANCH  29  31
ATOM     31  O   UNL     1       7.562   6.315  17.093  0.00  0.00    +0.000 OA
BRANCH  31  33
ATOM     32  C   UNL     1       7.860   8.603  17.671  0.00  0.00    +0.000 C 
ATOM     33  C   UNL     1       7.869   7.178  18.194  0.00  0.00    +0.000 C 
ENDBRANCH  31  33
ENDBRANCH  29  31
ENDBRANCH  28  29
ENDBRANCH  27  28
ENDBRANCH  21  27
ENDBRANCH   1  24
TORSDOF 9
ENDMDL
