MODEL 1
REMARK VINA RESULT:      -7.2      0.000      0.000
REMARK  Name = 
REMARK  4 active torsions:
REMARK  status: ('A' for Active; 'I' for Inactive)
REMARK    1  A    between atoms: N_4  and  N_5
REMARK    2  A    between atoms: C_6  and  C_7
REMARK    3  A    between atoms: N_9  and  C_10
REMARK    4  A    between atoms: C_14  and  C_15
REMARK                            x       y       z     vdW  Elec       q    Type
REMARK                         _______ _______ _______ _____ _____    ______ ____
ROOT
ATOM      1  C   UNL     1       7.725   7.692  17.923  0.00  0.00    +0.000 C 
ATOM      2  O   UNL     1       8.192   6.884  18.713  0.00  0.00    +0.000 OA
ATOM      3  N   UNL     1       6.798   7.474  16.916  0.00  0.00    +0.000 N 
ATOM      4  H   UNL     1       6.649   8.217  16.243  0.00  0.00    +0.000 HD
ENDROOT
BRANCH   3   5
ATOM      5  C   UNL     1       6.115   6.253  16.716  0.00  0.00    +0.000 A 
ATOM      6  C   UNL     1       6.629   5.238  15.904  0.00  0.00    +0.000 A 
ATOM      7  C   UNL     1       5.933   4.048  15.708  0.00  0.00    +0.000 A 
ATOM      8  C   UNL     1       4.701   3.857  16.322  0.00  0.00    +0.000 A 
ATOM      9  C   UNL     1       4.162   4.852  17.151  0.00  0.00    +0.000 A 
ATOM     10  C   UNL     1       4.887   6.044  17.359  0.00  0.00    +0.000 A 
BRANCH   9  11
ATOM     11  C   UNL     1       2.810   4.654  17.792  0.00  0.00    +0.000 C 
ATOM     12  F   UNL     1       2.045   3.709  17.173  0.00  0.00    +0.000 F 
ATOM     13  F   UNL     1       2.900   4.264  19.093  0.00  0.00    +0.000 F 
ATOM     14  F   UNL     1       2.063   5.792  17.792  0.00  0.00    +0.000 F 
ENDBRANCH   9  11
ENDBRANCH   3   5
BRANCH   1  16
ATOM     15  N   UNL     1       8.971   9.461  18.991  0.00  0.00    +0.000 NA
ATOM     16  C   UNL     1       8.285   9.082  17.962  0.00  0.00    +0.000 C 
BRANCH  15  20
ATOM     17  N   UNL     1       9.675  11.325  21.175  0.00  0.00    +0.000 NA
ATOM     18  C   UNL     1       9.772  11.585  19.917  0.00  0.00    +0.000 C 
ATOM     19  N   UNL     1      10.081  12.823  19.464  0.00  0.00    +0.000 N 
ATOM     20  N   UNL     1       9.517  10.712  18.895  0.00  0.00    +0.000 N 
ATOM     21  H   UNL     1       9.960  12.146  21.711  0.00  0.00    +0.000 HD
ATOM     22  H   UNL     1       9.912  13.563  20.134  0.00  0.00    +0.000 HD
ATOM     23  H   UNL     1       9.630  13.041  18.580  0.00  0.00    +0.000 HD
ATOM     24  H   UNL     1      10.155  10.816  18.109  0.00  0.00    +0.000 HD
ENDBRANCH  15  20
ENDBRANCH   1  16
TORSDOF 4
ENDMDL
MODEL 2
REMARK VINA RESULT:      -7.1      5.485      7.079
REMARK  Name = 
REMARK  4 active torsions:
REMARK  status: ('A' for Active; 'I' for Inactive)
REMARK    1  A    between atoms: N_4  and  N_5
REMARK    2  A    between atoms: C_6  and  C_7
REMARK    3  A    between atoms: N_9  and  C_10
REMARK    4  A    between atoms: C_14  and  C_15
REMARK                            x       y       z     vdW  Elec       q    Type
REMARK                         _______ _______ _______ _____ _____    ______ ____
ROOT
ATOM      1  C   UNL     1       5.555   4.472  16.453  0.00  0.00    +0.000 C 
ATOM      2  O   UNL     1       6.192   5.411  16.907  0.00  0.00    +0.000 OA
ATOM      3  N   UNL     1       4.372   3.927  16.925  0.00  0.00    +0.000 N 
ATOM      4  H   UNL     1       4.069   3.043  16.532  0.00  0.00    +0.000 HD
ENDROOT
BRANCH   3   5
ATOM      5  C   UNL     1       3.608   4.479  17.979  0.00  0.00    +0.000 A 
ATOM      6  C   UNL     1       3.190   5.812  17.975  0.00  0.00    +0.000 A 
ATOM      7  C   UNL     1       2.451   6.340  19.030  0.00  0.00    +0.000 A 
ATOM      8  C   UNL     1       2.122   5.536  20.116  0.00  0.00    +0.000 A 
ATOM      9  C   UNL     1       2.518   4.191  20.145  0.00  0.00    +0.000 A 
ATOM     10  C   UNL     1       3.247   3.662  19.060  0.00  0.00    +0.000 A 
BRANCH   9  11
ATOM     11  C   UNL     1       2.185   3.329  21.339  0.00  0.00    +0.000 C 
ATOM     12  F   UNL     1       0.907   2.853  21.330  0.00  0.00    +0.000 F 
ATOM     13  F   UNL     1       2.988   2.234  21.433  0.00  0.00    +0.000 F 
ATOM     14  F   UNL     1       2.322   3.998  22.518  0.00  0.00    +0.000 F 
ENDBRANCH   9  11
ENDBRANCH   3   5
BRANCH   1  16
ATOM     15  N   UNL     1       5.816   4.044  14.092  0.00  0.00    +0.000 NA
ATOM     16  C   UNL     1       6.163   3.733  15.299  0.00  0.00    +0.000 C 
BRANCH  15  20
ATOM     17  N   UNL     1       4.742   2.916  11.580  0.00  0.00    +0.000 NA
ATOM     18  C   UNL     1       5.960   2.806  11.981  0.00  0.00    +0.000 C 
ATOM     19  N   UNL     1       6.857   2.020  11.340  0.00  0.00    +0.000 N 
ATOM     20  N   UNL     1       6.490   3.380  13.105  0.00  0.00    +0.000 N 
ATOM     21  H   UNL     1       4.632   2.417  10.696  0.00  0.00    +0.000 HD
ATOM     22  H   UNL     1       6.438   1.308  10.755  0.00  0.00    +0.000 HD
ATOM     23  H   UNL     1       7.534   1.601  11.972  0.00  0.00    +0.000 HD
ATOM     24  H   UNL     1       7.446   3.705  12.977  0.00  0.00    +0.000 HD
ENDBRANCH  15  20
ENDBRANCH   1  16
TORSDOF 4
ENDMDL
MODEL 3
REMARK VINA RESULT:      -7.1      5.074      6.646
REMARK  Name = 
REMARK  4 active torsions:
REMARK  status: ('A' for Active; 'I' for Inactive)
REMARK    1  A    between atoms: N_4  and  N_5
REMARK    2  A    between atoms: C_6  and  C_7
REMARK    3  A    between atoms: N_9  and  C_10
REMARK    4  A    between atoms: C_14  and  C_15
REMARK                            x       y       z     vdW  Elec       q    Type
REMARK                         _______ _______ _______ _____ _____    ______ ____
ROOT
ATOM      1  C   UNL     1       5.821   4.487  17.197  0.00  0.00    +0.000 C 
ATOM      2  O   UNL     1       6.470   4.360  18.225  0.00  0.00    +0.000 OA
ATOM      3  N   UNL     1       4.459   4.699  17.059  0.00  0.00    +0.000 N 
ATOM      4  H   UNL     1       4.058   4.609  16.132  0.00  0.00    +0.000 HD
ENDROOT
BRANCH   3   5
ATOM      5  C   UNL     1       3.580   4.943  18.139  0.00  0.00    +0.000 A 
ATOM      6  C   UNL     1       3.451   6.207  18.721  0.00  0.00    +0.000 A 
ATOM      7  C   UNL     1       2.590   6.423  19.793  0.00  0.00    +0.000 A 
ATOM      8  C   UNL     1       1.844   5.368  20.307  0.00  0.00    +0.000 A 
ATOM      9  C   UNL     1       1.944   4.090  19.739  0.00  0.00    +0.000 A 
ATOM     10  C   UNL     1       2.803   3.889  18.638  0.00  0.00    +0.000 A 
BRANCH   9  11
ATOM     11  C   UNL     1       1.155   2.940  20.318  0.00  0.00    +0.000 C 
ATOM     12  F   UNL     1      -0.037   2.726  19.692  0.00  0.00    +0.000 F 
ATOM     13  F   UNL     1       1.828   1.759  20.250  0.00  0.00    +0.000 F 
ATOM     14  F   UNL     1       0.855   3.126  21.633  0.00  0.00    +0.000 F 
ENDBRANCH   9  11
ENDBRANCH   3   5
BRANCH   1  16
ATOM     15  N   UNL     1       5.901   3.908  14.855  0.00  0.00    +0.000 NA
ATOM     16  C   UNL     1       6.554   4.292  15.904  0.00  0.00    +0.000 C 
BRANCH  15  20
ATOM     17  N   UNL     1       4.982   3.235  12.127  0.00  0.00    +0.000 NA
ATOM     18  C   UNL     1       6.203   3.467  12.463  0.00  0.00    +0.000 C 
ATOM     19  N   UNL     1       7.230   3.279  11.600  0.00  0.00    +0.000 N 
ATOM     20  N   UNL     1       6.637   3.847  13.704  0.00  0.00    +0.000 N 
ATOM     21  H   UNL     1       4.943   3.006  11.133  0.00  0.00    +0.000 HD
ATOM     22  H   UNL     1       7.013   2.663  10.827  0.00  0.00    +0.000 HD
ATOM     23  H   UNL     1       8.081   2.973  12.064  0.00  0.00    +0.000 HD
ATOM     24  H   UNL     1       7.400   4.520  13.674  0.00  0.00    +0.000 HD
ENDBRANCH  15  20
ENDBRANCH   1  16
TORSDOF 4
ENDMDL
MODEL 4
REMARK VINA RESULT:      -7.1      4.522      6.051
REMARK  Name = 
REMARK  4 active torsions:
REMARK  status: ('A' for Active; 'I' for Inactive)
REMARK    1  A    between atoms: N_4  and  N_5
REMARK    2  A    between atoms: C_6  and  C_7
REMARK    3  A    between atoms: N_9  and  C_10
REMARK    4  A    between atoms: C_14  and  C_15
REMARK                            x       y       z     vdW  Elec       q    Type
REMARK                         _______ _______ _______ _____ _____    ______ ____
ROOT
ATOM      1  C   UNL     1       5.226   5.798  17.264  0.00  0.00    +0.000 C 
ATOM      2  O   UNL     1       6.029   5.885  18.181  0.00  0.00    +0.000 OA
ATOM      3  N   UNL     1       3.866   5.542  17.332  0.00  0.00    +0.000 N 
ATOM      4  H   UNL     1       3.381   5.332  16.467  0.00  0.00    +0.000 HD
ENDROOT
BRANCH   3   5
ATOM      5  C   UNL     1       3.131   5.465  18.538  0.00  0.00    +0.000 A 
ATOM      6  C   UNL     1       2.664   6.605  19.196  0.00  0.00    +0.000 A 
ATOM      7  C   UNL     1       1.955   6.510  20.391  0.00  0.00    +0.000 A 
ATOM      8  C   UNL     1       1.706   5.261  20.950  0.00  0.00    +0.000 A 
ATOM      9  C   UNL     1       2.153   4.097  20.309  0.00  0.00    +0.000 A 
ATOM     10  C   UNL     1       2.851   4.207  19.088  0.00  0.00    +0.000 A 
BRANCH   9  11
ATOM     11  C   UNL     1       1.908   2.746  20.934  0.00  0.00    +0.000 C 
ATOM     12  F   UNL     1       1.754   1.742  20.024  0.00  0.00    +0.000 F 
ATOM     13  F   UNL     1       2.925   2.355  21.750  0.00  0.00    +0.000 F 
ATOM     14  F   UNL     1       0.783   2.724  21.701  0.00  0.00    +0.000 F 
ENDBRANCH   9  11
ENDBRANCH   3   5
BRANCH   1  16
ATOM     15  N   UNL     1       6.966   5.428  15.633  0.00  0.00    +0.000 NA
ATOM     16  C   UNL     1       5.776   5.873  15.871  0.00  0.00    +0.000 C 
BRANCH  15  20
ATOM     17  N   UNL     1       6.232   3.545  13.476  0.00  0.00    +0.000 NA
ATOM     18  C   UNL     1       7.046   4.535  13.351  0.00  0.00    +0.000 C 
ATOM     19  N   UNL     1       7.773   4.727  12.225  0.00  0.00    +0.000 N 
ATOM     20  N   UNL     1       7.344   5.456  14.319  0.00  0.00    +0.000 N 
ATOM     21  H   UNL     1       6.173   3.043  12.589  0.00  0.00    +0.000 HD
ATOM     22  H   UNL     1       7.873   3.899  11.652  0.00  0.00    +0.000 HD
ATOM     23  H   UNL     1       8.684   5.136  12.411  0.00  0.00    +0.000 HD
ATOM     24  H   UNL     1       7.466   6.397  13.952  0.00  0.00    +0.000 HD
ENDBRANCH  15  20
ENDBRANCH   1  16
TORSDOF 4
ENDMDL
MODEL 5
REMARK VINA RESULT:      -7.0      5.567      7.381
REMARK  Name = 
REMARK  4 active torsions:
REMARK  status: ('A' for Active; 'I' for Inactive)
REMARK    1  A    between atoms: N_4  and  N_5
REMARK    2  A    between atoms: C_6  and  C_7
REMARK    3  A    between atoms: N_9  and  C_10
REMARK    4  A    between atoms: C_14  and  C_15
REMARK                            x       y       z     vdW  Elec       q    Type
REMARK                         _______ _______ _______ _____ _____    ______ ____
ROOT
ATOM      1  C   UNL     1       4.225   4.698  17.829  0.00  0.00    +0.000 C 
ATOM      2  O   UNL     1       3.781   5.754  17.404  0.00  0.00    +0.000 OA
ATOM      3  N   UNL     1       5.161   3.860  17.244  0.00  0.00    +0.000 N 
ATOM      4  H   UNL     1       5.290   2.939  17.648  0.00  0.00    +0.000 HD
ENDROOT
BRANCH   3   5
ATOM      5  C   UNL     1       5.882   4.173  16.068  0.00  0.00    +0.000 A 
ATOM      6  C   UNL     1       7.001   5.010  16.083  0.00  0.00    +0.000 A 
ATOM      7  C   UNL     1       7.688   5.317  14.912  0.00  0.00    +0.000 A 
ATOM      8  C   UNL     1       7.258   4.791  13.699  0.00  0.00    +0.000 A 
ATOM      9  C   UNL     1       6.145   3.940  13.651  0.00  0.00    +0.000 A 
ATOM     10  C   UNL     1       5.471   3.619  14.848  0.00  0.00    +0.000 A 
BRANCH   9  11
ATOM     11  C   UNL     1       5.663   3.396  12.329  0.00  0.00    +0.000 C 
ATOM     12  F   UNL     1       6.309   3.927  11.251  0.00  0.00    +0.000 F 
ATOM     13  F   UNL     1       5.822   2.048  12.229  0.00  0.00    +0.000 F 
ATOM     14  F   UNL     1       4.338   3.633  12.120  0.00  0.00    +0.000 F 
ENDBRANCH   9  11
ENDBRANCH   3   5
BRANCH   1  16
ATOM     15  N   UNL     1       3.196   2.947  19.133  0.00  0.00    +0.000 NA
ATOM     16  C   UNL     1       3.622   4.168  19.095  0.00  0.00    +0.000 C 
BRANCH  15  20
ATOM     17  N   UNL     1       0.495   3.247  20.296  0.00  0.00    +0.000 NA
ATOM     18  C   UNL     1       1.510   2.737  20.901  0.00  0.00    +0.000 C 
ATOM     19  N   UNL     1       1.471   2.410  22.215  0.00  0.00    +0.000 N 
ATOM     20  N   UNL     1       2.748   2.527  20.355  0.00  0.00    +0.000 N 
ATOM     21  H   UNL     1      -0.306   3.253  20.928  0.00  0.00    +0.000 HD
ATOM     22  H   UNL     1       0.739   2.877  22.735  0.00  0.00    +0.000 HD
ATOM     23  H   UNL     1       2.366   2.538  22.678  0.00  0.00    +0.000 HD
ATOM     24  H   UNL     1       3.186   1.666  20.674  0.00  0.00    +0.000 HD
ENDBRANCH  15  20
ENDBRANCH   1  16
TORSDOF 4
ENDMDL
MODEL 6
REMARK VINA RESULT:      -7.0      4.866      6.844
REMARK  Name = 
REMARK  4 active torsions:
REMARK  status: ('A' for Active; 'I' for Inactive)
REMARK    1  A    between atoms: N_4  and  N_5
REMARK    2  A    between atoms: C_6  and  C_7
REMARK    3  A    between atoms: N_9  and  C_10
REMARK    4  A    between atoms: C_14  and  C_15
REMARK                            x       y       z     vdW  Elec       q    Type
REMARK                         _______ _______ _______ _____ _____    ______ ____
ROOT
ATOM      1  C   UNL     1       6.003   5.242  16.211  0.00  0.00    +0.000 C 
ATOM      2  O   UNL     1       6.704   6.063  16.783  0.00  0.00    +0.000 OA
ATOM      3  N   UNL     1       4.702   4.866  16.507  0.00  0.00    +0.000 N 
ATOM      4  H   UNL     1       4.329   4.048  16.039  0.00  0.00    +0.000 HD
ENDROOT
BRANCH   3   5
ATOM      5  C   UNL     1       3.896   5.495  17.483  0.00  0.00    +0.000 A 
ATOM      6  C   UNL     1       3.709   6.879  17.512  0.00  0.00    +0.000 A 
ATOM      7  C   UNL     1       2.923   7.481  18.492  0.00  0.00    +0.000 A 
ATOM      8  C   UNL     1       2.313   6.700  19.467  0.00  0.00    +0.000 A 
ATOM      9  C   UNL     1       2.474   5.307  19.459  0.00  0.00    +0.000 A 
ATOM     10  C   UNL     1       3.254   4.708  18.449  0.00  0.00    +0.000 A 
BRANCH   9  11
ATOM     11  C   UNL     1       1.835   4.465  20.537  0.00  0.00    +0.000 C 
ATOM     12  F   UNL     1       2.417   4.612  21.762  0.00  0.00    +0.000 F 
ATOM     13  F   UNL     1       0.517   4.754  20.714  0.00  0.00    +0.000 F 
ATOM     14  F   UNL     1       1.892   3.133  20.259  0.00  0.00    +0.000 F 
ENDBRANCH   9  11
ENDBRANCH   3   5
BRANCH   1  16
ATOM     15  N   UNL     1       5.901   3.956  14.171  0.00  0.00    +0.000 NA
ATOM     16  C   UNL     1       6.642   4.454  15.107  0.00  0.00    +0.000 C 
BRANCH  15  20
ATOM     17  N   UNL     1       4.844   2.936  11.605  0.00  0.00    +0.000 NA
ATOM     18  C   UNL     1       6.060   2.808  12.011  0.00  0.00    +0.000 C 
ATOM     19  N   UNL     1       6.961   2.048  11.343  0.00  0.00    +0.000 N 
ATOM     20  N   UNL     1       6.582   3.333  13.162  0.00  0.00    +0.000 N 
ATOM     21  H   UNL     1       4.741   2.475  10.701  0.00  0.00    +0.000 HD
ATOM     22  H   UNL     1       6.546   1.362  10.726  0.00  0.00    +0.000 HD
ATOM     23  H   UNL     1       7.633   1.603  11.962  0.00  0.00    +0.000 HD
ATOM     24  H   UNL     1       7.539   3.663  13.054  0.00  0.00    +0.000 HD
ENDBRANCH  15  20
ENDBRANCH   1  16
TORSDOF 4
ENDMDL
MODEL 7
REMARK VINA RESULT:      -7.0      4.961      6.991
REMARK  Name = 
REMARK  4 active torsions:
REMARK  status: ('A' for Active; 'I' for Inactive)
REMARK    1  A    between atoms: N_4  and  N_5
REMARK    2  A    between atoms: C_6  and  C_7
REMARK    3  A    between atoms: N_9  and  C_10
REMARK    4  A    between atoms: C_14  and  C_15
REMARK                            x       y       z     vdW  Elec       q    Type
REMARK                         _______ _______ _______ _____ _____    ______ ____
ROOT
ATOM      1  C   UNL     1       5.376   5.624  15.565  0.00  0.00    +0.000 C 
ATOM      2  O   UNL     1       5.387   6.836  15.404  0.00  0.00    +0.000 OA
ATOM      3  N   UNL     1       4.770   4.896  16.575  0.00  0.00    +0.000 N 
ATOM      4  H   UNL     1       5.003   3.912  16.653  0.00  0.00    +0.000 HD
ENDROOT
BRANCH   3   5
ATOM      5  C   UNL     1       3.919   5.454  17.556  0.00  0.00    +0.000 A 
ATOM      6  C   UNL     1       3.675   6.827  17.634  0.00  0.00    +0.000 A 
ATOM      7  C   UNL     1       2.845   7.359  18.617  0.00  0.00    +0.000 A 
ATOM      8  C   UNL     1       2.247   6.517  19.548  0.00  0.00    +0.000 A 
ATOM      9  C   UNL     1       2.465   5.132  19.492  0.00  0.00    +0.000 A 
ATOM     10  C   UNL     1       3.290   4.605  18.477  0.00  0.00    +0.000 A 
BRANCH   9  11
ATOM     11  C   UNL     1       1.839   4.225  20.523  0.00  0.00    +0.000 C 
ATOM     12  F   UNL     1       0.483   4.344  20.604  0.00  0.00    +0.000 F 
ATOM     13  F   UNL     1       2.082   2.908  20.276  0.00  0.00    +0.000 F 
ATOM     14  F   UNL     1       2.307   4.463  21.779  0.00  0.00    +0.000 F 
ENDBRANCH   9  11
ENDBRANCH   3   5
BRANCH   1  16
ATOM     15  N   UNL     1       5.624   3.904  13.890  0.00  0.00    +0.000 NA
ATOM     16  C   UNL     1       6.200   4.806  14.616  0.00  0.00    +0.000 C 
BRANCH  15  20
ATOM     17  N   UNL     1       4.879   2.563  11.363  0.00  0.00    +0.000 NA
ATOM     18  C   UNL     1       6.066   2.600  11.861  0.00  0.00    +0.000 C 
ATOM     19  N   UNL     1       7.088   1.887  11.331  0.00  0.00    +0.000 N 
ATOM     20  N   UNL     1       6.441   3.274  12.992  0.00  0.00    +0.000 N 
ATOM     21  H   UNL     1       4.893   2.019  10.500  0.00  0.00    +0.000 HD
ATOM     22  H   UNL     1       6.793   1.111  10.753  0.00  0.00    +0.000 HD
ATOM     23  H   UNL     1       7.750   1.569  12.033  0.00  0.00    +0.000 HD
ATOM     24  H   UNL     1       7.366   3.693  12.921  0.00  0.00    +0.000 HD
ENDBRANCH  15  20
ENDBRANCH   1  16
TORSDOF 4
ENDMDL
MODEL 8
REMARK VINA RESULT:      -7.0      5.218      7.126
REMARK  Name = 
REMARK  4 active torsions:
REMARK  status: ('A' for Active; 'I' for Inactive)
REMARK    1  A    between atoms: N_4  and  N_5
REMARK    2  A    between atoms: C_6  and  C_7
REMARK    3  A    between atoms: N_9  and  C_10
REMARK    4  A    between atoms: C_14  and  C_15
REMARK                            x       y       z     vdW  Elec       q    Type
REMARK                         _______ _______ _______ _____ _____    ______ ____
ROOT
ATOM      1  C   UNL     1       5.507   5.046  15.388  0.00  0.00    +0.000 C 
ATOM      2  O   UNL     1       5.494   6.267  15.339  0.00  0.00    +0.000 OA
ATOM      3  N   UNL     1       4.881   4.214  16.302  0.00  0.00    +0.000 N 
ATOM      4  H   UNL     1       5.136   3.233  16.300  0.00  0.00    +0.000 HD
ENDROOT
BRANCH   3   5
ATOM      5  C   UNL     1       3.979   4.661  17.295  0.00  0.00    +0.000 A 
ATOM      6  C   UNL     1       3.936   5.993  17.714  0.00  0.00    +0.000 A 
ATOM      7  C   UNL     1       3.050   6.410  18.704  0.00  0.00    +0.000 A 
ATOM      8  C   UNL     1       2.191   5.491  19.296  0.00  0.00    +0.000 A 
ATOM      9  C   UNL     1       2.202   4.149  18.891  0.00  0.00    +0.000 A 
ATOM     10  C   UNL     1       3.089   3.744  17.871  0.00  0.00    +0.000 A 
BRANCH   9  11
ATOM     11  C   UNL     1       1.290   3.149  19.557  0.00  0.00    +0.000 C 
ATOM     12  F   UNL     1       0.509   3.689  20.536  0.00  0.00    +0.000 F 
ATOM     13  F   UNL     1       0.431   2.560  18.680  0.00  0.00    +0.000 F 
ATOM     14  F   UNL     1       1.977   2.132  20.149  0.00  0.00    +0.000 F 
ENDBRANCH   9  11
ENDBRANCH   3   5
BRANCH   1  16
ATOM     15  N   UNL     1       5.867   3.838  13.330  0.00  0.00    +0.000 NA
ATOM     16  C   UNL     1       6.388   4.336  14.404  0.00  0.00    +0.000 C 
BRANCH  15  20
ATOM     17  N   UNL     1       5.457   1.584  11.461  0.00  0.00    +0.000 NA
ATOM     18  C   UNL     1       6.571   2.203  11.643  0.00  0.00    +0.000 C 
ATOM     19  N   UNL     1       7.727   1.776  11.083  0.00  0.00    +0.000 N 
ATOM     20  N   UNL     1       6.762   3.291  12.451  0.00  0.00    +0.000 N 
ATOM     21  H   UNL     1       5.595   0.835  10.782  0.00  0.00    +0.000 HD
ATOM     22  H   UNL     1       7.715   0.804  10.801  0.00  0.00    +0.000 HD
ATOM     23  H   UNL     1       8.538   1.961  11.667  0.00  0.00    +0.000 HD
ATOM     24  H   UNL     1       7.415   3.968  12.064  0.00  0.00    +0.000 HD
ENDBRANCH  15  20
ENDBRANCH   1  16
TORSDOF 4
ENDMDL
MODEL 9
REMARK VINA RESULT:      -7.0      4.611      5.719
REMARK  Name = 
REMARK  4 active torsions:
REMARK  status: ('A' for Active; 'I' for Inactive)
REMARK    1  A    between atoms: N_4  and  N_5
REMARK    2  A    between atoms: C_6  and  C_7
REMARK    3  A    between atoms: N_9  and  C_10
REMARK    4  A    between atoms: C_14  and  C_15
REMARK                            x       y       z     vdW  Elec       q    Type
REMARK                         _______ _______ _______ _____ _____    ______ ____
ROOT
ATOM      1  C   UNL     1       6.073   4.461  17.697  0.00  0.00    +0.000 C 
ATOM      2  O   UNL     1       6.570   4.230  18.789  0.00  0.00    +0.000 OA
ATOM      3  N   UNL     1       4.844   4.050  17.206  0.00  0.00    +0.000 N 
ATOM      4  H   UNL     1       4.661   4.185  16.218  0.00  0.00    +0.000 HD
ENDROOT
BRANCH   3   5
ATOM      5  C   UNL     1       3.867   3.375  17.975  0.00  0.00    +0.000 A 
ATOM      6  C   UNL     1       3.443   2.081  17.665  0.00  0.00    +0.000 A 
ATOM      7  C   UNL     1       2.469   1.439  18.425  0.00  0.00    +0.000 A 
ATOM      8  C   UNL     1       1.898   2.092  19.512  0.00  0.00    +0.000 A 
ATOM      9  C   UNL     1       2.309   3.388  19.855  0.00  0.00    +0.000 A 
ATOM     10  C   UNL     1       3.312   4.018  19.090  0.00  0.00    +0.000 A 
BRANCH   9  11
ATOM     11  C   UNL     1       1.665   4.105  21.016  0.00  0.00    +0.000 C 
ATOM     12  F   UNL     1       2.532   4.878  21.730  0.00  0.00    +0.000 F 
ATOM     13  F   UNL     1       0.661   4.937  20.625  0.00  0.00    +0.000 F 
ATOM     14  F   UNL     1       1.110   3.245  21.915  0.00  0.00    +0.000 F 
ENDBRANCH   9  11
ENDBRANCH   3   5
BRANCH   1  16
ATOM     15  N   UNL     1       7.081   4.707  15.518  0.00  0.00    +0.000 NA
ATOM     16  C   UNL     1       6.924   5.196  16.705  0.00  0.00    +0.000 C 
BRANCH  15  20
ATOM     17  N   UNL     1       7.291   4.484  12.577  0.00  0.00    +0.000 NA
ATOM     18  C   UNL     1       7.934   5.330  13.305  0.00  0.00    +0.000 C 
ATOM     19  N   UNL     1       8.902   6.126  12.792  0.00  0.00    +0.000 N 
ATOM     20  N   UNL     1       7.797   5.493  14.657  0.00  0.00    +0.000 N 
ATOM     21  H   UNL     1       7.563   4.605  11.601  0.00  0.00    +0.000 HD
ATOM     22  H   UNL     1       9.291   5.793  11.919  0.00  0.00    +0.000 HD
ATOM     23  H   UNL     1       9.646   6.317  13.457  0.00  0.00    +0.000 HD
ATOM     24  H   UNL     1       7.860   6.465  14.952  0.00  0.00    +0.000 HD
ENDBRANCH  15  20
ENDBRANCH   1  16
TORSDOF 4
ENDMDL
