MODEL 1
REMARK VINA RESULT:      -9.3      0.000      0.000
REMARK  Name = 
REMARK  8 active torsions:
REMARK  status: ('A' for Active; 'I' for Inactive)
REMARK    1  A    between atoms: C_1  and  C_2
REMARK    2  A    between atoms: C_5  and  S_6
REMARK    3  A    between atoms: S_6  and  C_9
REMARK    4  A    between atoms: C_9  and  C_10
REMARK    5  A    between atoms: N_12  and  C_13
REMARK    6  A    between atoms: C_13  and  C_14
REMARK    7  A    between atoms: C_17  and  N_18
REMARK    8  A    between atoms: C_31  and  C_32
REMARK                            x       y       z     vdW  Elec       q    Type
REMARK                         _______ _______ _______ _____ _____    ______ ____
ROOT
ATOM      1  C   UNL     1       2.506   4.708  18.458  0.00  0.00    +0.000 C 
ATOM      2  O   UNL     1       1.988   4.615  17.346  0.00  0.00    +0.000 OA
ATOM      3  N   UNL     1       2.959   5.916  18.943  0.00  0.00    +0.000 N 
ATOM      4  H   UNL     1       3.112   6.004  19.947  0.00  0.00    +0.000 HD
ENDROOT
BRANCH   1   5
ATOM      5  C   UNL     1       2.705   3.496  19.372  0.00  0.00    +0.000 C 
ATOM      6  C   UNL     1       1.533   2.505  19.265  0.00  0.00    +0.000 C 
ATOM      7  C   UNL     1       0.517   2.932  20.315  0.00  0.00    +0.000 C 
ATOM      8  C   UNL     1       1.270   3.758  21.347  0.00  0.00    +0.000 C 
ATOM      9  C   UNL     1       2.712   3.870  20.863  0.00  0.00    +0.000 C 
BRANCH   5  10
ATOM     10  S   UNL     1       4.242   2.700  18.891  0.00  0.00    +0.000 S 
ATOM     11  O   UNL     1       3.979   1.848  17.741  0.00  0.00    +0.000 OA
ATOM     12  O   UNL     1       4.846   2.108  20.074  0.00  0.00    +0.000 OA
BRANCH  10  17
ATOM     13  C   UNL     1       7.733   7.329  17.042  0.00  0.00    +0.000 C 
ATOM     14  C   UNL     1       6.900   6.152  17.477  0.00  0.00    +0.000 A 
ATOM     15  C   UNL     1       6.765   5.871  18.847  0.00  0.00    +0.000 A 
ATOM     16  C   UNL     1       5.985   4.799  19.287  0.00  0.00    +0.000 A 
ATOM     17  C   UNL     1       5.345   3.989  18.350  0.00  0.00    +0.000 A 
ATOM     18  C   UNL     1       5.456   4.264  16.984  0.00  0.00    +0.000 A 
ATOM     19  C   UNL     1       6.235   5.341  16.535  0.00  0.00    +0.000 A 
ATOM     20  C   UNL     1       6.323   5.617  15.058  0.00  0.00    +0.000 C 
ENDBRANCH  10  17
ENDBRANCH   5  10
ENDBRANCH   1   5
BRANCH   3  21
ATOM     21  C   UNL     1       2.726   7.155  18.234  0.00  0.00    +0.000 C 
BRANCH  21  22
ATOM     22  C   UNL     1       1.875   8.082  19.055  0.00  0.00    +0.000 A 
ATOM     23  C   UNL     1       1.372   9.257  18.493  0.00  0.00    +0.000 A 
ATOM     24  C   UNL     1       0.590  10.138  19.249  0.00  0.00    +0.000 A 
ATOM     25  C   UNL     1       0.302   9.890  20.596  0.00  0.00    +0.000 A 
ATOM     26  C   UNL     1       0.831   8.718  21.160  0.00  0.00    +0.000 A 
ATOM     27  C   UNL     1       1.603   7.824  20.403  0.00  0.00    +0.000 A 
BRANCH  25  28
ATOM     28  N   UNL     1      -0.483  10.794  21.371  0.00  0.00    +0.000 N 
ATOM     29  C   UNL     1      -1.377  11.759  20.774  0.00  0.00    +0.000 C 
ATOM     30  C   UNL     1      -1.762  12.681  21.911  0.00  0.00    +0.000 C 
ATOM     31  C   UNL     1      -1.686  11.792  23.135  0.00  0.00    +0.000 C 
ATOM     32  C   UNL     1      -0.631  10.778  22.767  0.00  0.00    +0.000 C 
ATOM     33  O   UNL     1      -0.073  10.082  23.603  0.00  0.00    +0.000 OA
ENDBRANCH  25  28
ENDBRANCH  21  22
ENDBRANCH   3  21
TORSDOF 6
ENDMDL
MODEL 2
REMARK VINA RESULT:      -9.1      0.821      1.005
REMARK  Name = 
REMARK  8 active torsions:
REMARK  status: ('A' for Active; 'I' for Inactive)
REMARK    1  A    between atoms: C_1  and  C_2
REMARK    2  A    between atoms: C_5  and  S_6
REMARK    3  A    between atoms: S_6  and  C_9
REMARK    4  A    between atoms: C_9  and  C_10
REMARK    5  A    between atoms: N_12  and  C_13
REMARK    6  A    between atoms: C_13  and  C_14
REMARK    7  A    between atoms: C_17  and  N_18
REMARK    8  A    between atoms: C_31  and  C_32
REMARK                            x       y       z     vdW  Elec       q    Type
REMARK                         _______ _______ _______ _____ _____    ______ ____
ROOT
ATOM      1  C   UNL     1       2.450   4.674  18.500  0.00  0.00    +0.000 C 
ATOM      2  O   UNL     1       1.962   4.571  17.375  0.00  0.00    +0.000 OA
ATOM      3  N   UNL     1       2.839   5.896  19.006  0.00  0.00    +0.000 N 
ATOM      4  H   UNL     1       2.965   5.980  20.015  0.00  0.00    +0.000 HD
ENDROOT
BRANCH   1   5
ATOM      5  C   UNL     1       2.679   3.463  19.407  0.00  0.00    +0.000 C 
ATOM      6  C   UNL     1       1.515   2.461  19.325  0.00  0.00    +0.000 C 
ATOM      7  C   UNL     1       0.518   2.878  20.398  0.00  0.00    +0.000 C 
ATOM      8  C   UNL     1       1.287   3.709  21.414  0.00  0.00    +0.000 C 
ATOM      9  C   UNL     1       2.717   3.835  20.899  0.00  0.00    +0.000 C 
BRANCH   5  10
ATOM     10  S   UNL     1       4.213   2.681  18.890  0.00  0.00    +0.000 S 
ATOM     11  O   UNL     1       3.936   1.850  17.728  0.00  0.00    +0.000 OA
ATOM     12  O   UNL     1       4.834   2.069  20.054  0.00  0.00    +0.000 OA
BRANCH  10  17
ATOM     13  C   UNL     1       7.664   7.355  17.081  0.00  0.00    +0.000 C 
ATOM     14  C   UNL     1       6.841   6.168  17.506  0.00  0.00    +0.000 A 
ATOM     15  C   UNL     1       6.721   5.864  18.873  0.00  0.00    +0.000 A 
ATOM     16  C   UNL     1       5.949   4.782  19.303  0.00  0.00    +0.000 A 
ATOM     17  C   UNL     1       5.304   3.984  18.360  0.00  0.00    +0.000 A 
ATOM     18  C   UNL     1       5.400   4.281  16.997  0.00  0.00    +0.000 A 
ATOM     19  C   UNL     1       6.170   5.369  16.558  0.00  0.00    +0.000 A 
ATOM     20  C   UNL     1       6.242   5.669  15.085  0.00  0.00    +0.000 C 
ENDBRANCH  10  17
ENDBRANCH   5  10
ENDBRANCH   1   5
BRANCH   3  21
ATOM     21  C   UNL     1       2.569   7.131  18.304  0.00  0.00    +0.000 C 
BRANCH  21  22
ATOM     22  C   UNL     1       1.824   8.090  19.188  0.00  0.00    +0.000 A 
ATOM     23  C   UNL     1       1.332   9.288  18.667  0.00  0.00    +0.000 A 
ATOM     24  C   UNL     1       0.648  10.199  19.481  0.00  0.00    +0.000 A 
ATOM     25  C   UNL     1       0.452   9.959  20.846  0.00  0.00    +0.000 A 
ATOM     26  C   UNL     1       0.972   8.763  21.367  0.00  0.00    +0.000 A 
ATOM     27  C   UNL     1       1.645   7.839  20.553  0.00  0.00    +0.000 A 
BRANCH  25  28
ATOM     28  N   UNL     1      -0.231  10.892  21.678  0.00  0.00    +0.000 N 
ATOM     29  C   UNL     1      -0.940  10.496  22.873  0.00  0.00    +0.000 C 
ATOM     30  C   UNL     1      -1.744  11.718  23.265  0.00  0.00    +0.000 C 
ATOM     31  C   UNL     1      -0.909  12.875  22.758  0.00  0.00    +0.000 C 
ATOM     32  C   UNL     1      -0.187  12.291  21.568  0.00  0.00    +0.000 C 
ATOM     33  O   UNL     1       0.343  12.990  20.718  0.00  0.00    +0.000 OA
ENDBRANCH  25  28
ENDBRANCH  21  22
ENDBRANCH   3  21
TORSDOF 6
ENDMDL
MODEL 3
REMARK VINA RESULT:      -8.9      0.864      1.550
REMARK  Name = 
REMARK  8 active torsions:
REMARK  status: ('A' for Active; 'I' for Inactive)
REMARK    1  A    between atoms: C_1  and  C_2
REMARK    2  A    between atoms: C_5  and  S_6
REMARK    3  A    between atoms: S_6  and  C_9
REMARK    4  A    between atoms: C_9  and  C_10
REMARK    5  A    between atoms: N_12  and  C_13
REMARK    6  A    between atoms: C_13  and  C_14
REMARK    7  A    between atoms: C_17  and  N_18
REMARK    8  A    between atoms: C_31  and  C_32
REMARK                            x       y       z     vdW  Elec       q    Type
REMARK                         _______ _______ _______ _____ _____    ______ ____
ROOT
ATOM      1  C   UNL     1       2.344   5.172  18.280  0.00  0.00    +0.000 C 
ATOM      2  O   UNL     1       1.601   5.119  17.300  0.00  0.00    +0.000 OA
ATOM      3  N   UNL     1       2.955   6.349  18.657  0.00  0.00    +0.000 N 
ATOM      4  H   UNL     1       3.318   6.419  19.607  0.00  0.00    +0.000 HD
ENDROOT
BRANCH   1   5
ATOM      5  C   UNL     1       2.660   3.943  19.135  0.00  0.00    +0.000 C 
ATOM      6  C   UNL     1       2.165   2.646  18.472  0.00  0.00    +0.000 C 
ATOM      7  C   UNL     1       0.742   2.430  18.968  0.00  0.00    +0.000 C 
ATOM      8  C   UNL     1       0.602   3.219  20.262  0.00  0.00    +0.000 C 
ATOM      9  C   UNL     1       1.923   3.950  20.484  0.00  0.00    +0.000 C 
BRANCH   5  10
ATOM     10  S   UNL     1       4.442   3.885  19.364  0.00  0.00    +0.000 S 
ATOM     11  O   UNL     1       4.823   2.513  19.663  0.00  0.00    +0.000 OA
ATOM     12  O   UNL     1       4.821   4.934  20.298  0.00  0.00    +0.000 OA
BRANCH  10  17
ATOM     13  C   UNL     1       7.253   5.154  14.119  0.00  0.00    +0.000 C 
ATOM     14  C   UNL     1       6.532   4.882  15.412  0.00  0.00    +0.000 A 
ATOM     15  C   UNL     1       5.708   3.747  15.517  0.00  0.00    +0.000 A 
ATOM     16  C   UNL     1       5.039   3.454  16.708  0.00  0.00    +0.000 A 
ATOM     17  C   UNL     1       5.179   4.308  17.800  0.00  0.00    +0.000 A 
ATOM     18  C   UNL     1       6.007   5.433  17.718  0.00  0.00    +0.000 A 
ATOM     19  C   UNL     1       6.685   5.731  16.526  0.00  0.00    +0.000 A 
ATOM     20  C   UNL     1       7.578   6.942  16.475  0.00  0.00    +0.000 C 
ENDBRANCH  10  17
ENDBRANCH   5  10
ENDBRANCH   1   5
BRANCH   3  21
ATOM     21  C   UNL     1       2.648   7.606  18.010  0.00  0.00    +0.000 C 
BRANCH  21  22
ATOM     22  C   UNL     1       1.777   8.455  18.890  0.00  0.00    +0.000 A 
ATOM     23  C   UNL     1       1.140   9.583  18.370  0.00  0.00    +0.000 A 
ATOM     24  C   UNL     1       0.336  10.393  19.181  0.00  0.00    +0.000 A 
ATOM     25  C   UNL     1       0.159  10.121  20.543  0.00  0.00    +0.000 A 
ATOM     26  C   UNL     1       0.822   8.998  21.063  0.00  0.00    +0.000 A 
ATOM     27  C   UNL     1       1.617   8.174  20.252  0.00  0.00    +0.000 A 
BRANCH  25  28
ATOM     28  N   UNL     1      -0.648  10.952  21.372  0.00  0.00    +0.000 N 
ATOM     29  C   UNL     1      -1.599  11.899  20.837  0.00  0.00    +0.000 C 
ATOM     30  C   UNL     1      -1.999  12.754  22.022  0.00  0.00    +0.000 C 
ATOM     31  C   UNL     1      -1.854  11.818  23.204  0.00  0.00    +0.000 C 
ATOM     32  C   UNL     1      -0.763  10.870  22.770  0.00  0.00    +0.000 C 
ATOM     33  O   UNL     1      -0.154  10.167  23.562  0.00  0.00    +0.000 OA
ENDBRANCH  25  28
ENDBRANCH  21  22
ENDBRANCH   3  21
TORSDOF 6
ENDMDL
MODEL 4
REMARK VINA RESULT:      -8.7      1.103      1.754
REMARK  Name = 
REMARK  8 active torsions:
REMARK  status: ('A' for Active; 'I' for Inactive)
REMARK    1  A    between atoms: C_1  and  C_2
REMARK    2  A    between atoms: C_5  and  S_6
REMARK    3  A    between atoms: S_6  and  C_9
REMARK    4  A    between atoms: C_9  and  C_10
REMARK    5  A    between atoms: N_12  and  C_13
REMARK    6  A    between atoms: C_13  and  C_14
REMARK    7  A    between atoms: C_17  and  N_18
REMARK    8  A    between atoms: C_31  and  C_32
REMARK                            x       y       z     vdW  Elec       q    Type
REMARK                         _______ _______ _______ _____ _____    ______ ____
ROOT
ATOM      1  C   UNL     1       3.165   5.062  19.246  0.00  0.00    +0.000 C 
ATOM      2  O   UNL     1       4.113   5.494  19.900  0.00  0.00    +0.000 OA
ATOM      3  N   UNL     1       2.417   5.884  18.430  0.00  0.00    +0.000 N 
ATOM      4  H   UNL     1       1.844   5.451  17.707  0.00  0.00    +0.000 HD
ENDROOT
BRANCH   1   5
ATOM      5  C   UNL     1       2.733   3.594  19.303  0.00  0.00    +0.000 C 
ATOM      6  C   UNL     1       1.247   3.451  19.675  0.00  0.00    +0.000 C 
ATOM      7  C   UNL     1       1.195   3.363  21.193  0.00  0.00    +0.000 C 
ATOM      8  C   UNL     1       2.573   2.913  21.657  0.00  0.00    +0.000 C 
ATOM      9  C   UNL     1       3.449   2.806  20.412  0.00  0.00    +0.000 C 
BRANCH   5  10
ATOM     10  S   UNL     1       3.043   2.874  17.686  0.00  0.00    +0.000 S 
ATOM     11  O   UNL     1       1.884   3.120  16.842  0.00  0.00    +0.000 OA
ATOM     12  O   UNL     1       3.494   1.504  17.869  0.00  0.00    +0.000 OA
BRANCH  10  17
ATOM     13  C   UNL     1       7.849   5.611  15.148  0.00  0.00    +0.000 C 
ATOM     14  C   UNL     1       6.657   4.971  15.809  0.00  0.00    +0.000 A 
ATOM     15  C   UNL     1       5.463   4.820  15.082  0.00  0.00    +0.000 A 
ATOM     16  C   UNL     1       4.345   4.213  15.658  0.00  0.00    +0.000 A 
ATOM     17  C   UNL     1       4.411   3.766  16.976  0.00  0.00    +0.000 A 
ATOM     18  C   UNL     1       5.596   3.894  17.708  0.00  0.00    +0.000 A 
ATOM     19  C   UNL     1       6.725   4.499  17.135  0.00  0.00    +0.000 A 
ATOM     20  C   UNL     1       7.988   4.610  17.945  0.00  0.00    +0.000 C 
ENDBRANCH  10  17
ENDBRANCH   5  10
ENDBRANCH   1   5
BRANCH   3  21
ATOM     21  C   UNL     1       2.790   7.261  18.194  0.00  0.00    +0.000 C 
BRANCH  21  22
ATOM     22  C   UNL     1       1.922   8.190  18.996  0.00  0.00    +0.000 A 
ATOM     23  C   UNL     1       1.456   9.378  18.432  0.00  0.00    +0.000 A 
ATOM     24  C   UNL     1       0.659  10.261  19.172  0.00  0.00    +0.000 A 
ATOM     25  C   UNL     1       0.319  10.000  20.504  0.00  0.00    +0.000 A 
ATOM     26  C   UNL     1       0.812   8.813  21.071  0.00  0.00    +0.000 A 
ATOM     27  C   UNL     1       1.599   7.918  20.330  0.00  0.00    +0.000 A 
BRANCH  25  28
ATOM     28  N   UNL     1      -0.481  10.904  21.263  0.00  0.00    +0.000 N 
ATOM     29  C   UNL     1      -1.371  11.861  20.648  0.00  0.00    +0.000 C 
ATOM     30  C   UNL     1      -1.775  12.788  21.774  0.00  0.00    +0.000 C 
ATOM     31  C   UNL     1      -1.713  11.907  23.004  0.00  0.00    +0.000 C 
ATOM     32  C   UNL     1      -0.648  10.896  22.657  0.00  0.00    +0.000 C 
ATOM     33  O   UNL     1      -0.099  10.208  23.505  0.00  0.00    +0.000 OA
ENDBRANCH  25  28
ENDBRANCH  21  22
ENDBRANCH   3  21
TORSDOF 6
ENDMDL
MODEL 5
REMARK VINA RESULT:      -8.7      0.571      1.513
REMARK  Name = 
REMARK  8 active torsions:
REMARK  status: ('A' for Active; 'I' for Inactive)
REMARK    1  A    between atoms: C_1  and  C_2
REMARK    2  A    between atoms: C_5  and  S_6
REMARK    3  A    between atoms: S_6  and  C_9
REMARK    4  A    between atoms: C_9  and  C_10
REMARK    5  A    between atoms: N_12  and  C_13
REMARK    6  A    between atoms: C_13  and  C_14
REMARK    7  A    between atoms: C_17  and  N_18
REMARK    8  A    between atoms: C_31  and  C_32
REMARK                            x       y       z     vdW  Elec       q    Type
REMARK                         _______ _______ _______ _____ _____    ______ ____
ROOT
ATOM      1  C   UNL     1       2.457   4.637  18.462  0.00  0.00    +0.000 C 
ATOM      2  O   UNL     1       1.820   4.556  17.413  0.00  0.00    +0.000 OA
ATOM      3  N   UNL     1       3.048   5.818  18.857  0.00  0.00    +0.000 N 
ATOM      4  H   UNL     1       3.311   5.919  19.837  0.00  0.00    +0.000 HD
ENDROOT
BRANCH   1   5
ATOM      5  C   UNL     1       2.659   3.437  19.391  0.00  0.00    +0.000 C 
ATOM      6  C   UNL     1       1.417   2.531  19.429  0.00  0.00    +0.000 C 
ATOM      7  C   UNL     1       0.541   3.057  20.558  0.00  0.00    +0.000 C 
ATOM      8  C   UNL     1       1.447   3.852  21.486  0.00  0.00    +0.000 C 
ATOM      9  C   UNL     1       2.839   3.847  20.862  0.00  0.00    +0.000 C 
BRANCH   5  10
ATOM     10  S   UNL     1       4.082   2.519  18.790  0.00  0.00    +0.000 S 
ATOM     11  O   UNL     1       3.607   1.438  17.940  0.00  0.00    +0.000 OA
ATOM     12  O   UNL     1       4.934   2.192  19.923  0.00  0.00    +0.000 OA
BRANCH  10  17
ATOM     13  C   UNL     1       7.541   6.078  15.269  0.00  0.00    +0.000 C 
ATOM     14  C   UNL     1       6.663   5.238  16.158  0.00  0.00    +0.000 A 
ATOM     15  C   UNL     1       5.758   4.333  15.577  0.00  0.00    +0.000 A 
ATOM     16  C   UNL     1       4.942   3.524  16.371  0.00  0.00    +0.000 A 
ATOM     17  C   UNL     1       5.016   3.630  17.759  0.00  0.00    +0.000 A 
ATOM     18  C   UNL     1       5.922   4.514  18.354  0.00  0.00    +0.000 A 
ATOM     19  C   UNL     1       6.748   5.327  17.562  0.00  0.00    +0.000 A 
ATOM     20  C   UNL     1       7.720   6.259  18.233  0.00  0.00    +0.000 C 
ENDBRANCH  10  17
ENDBRANCH   5  10
ENDBRANCH   1   5
BRANCH   3  21
ATOM     21  C   UNL     1       2.835   7.052  18.135  0.00  0.00    +0.000 C 
BRANCH  21  22
ATOM     22  C   UNL     1       2.022   8.013  18.956  0.00  0.00    +0.000 A 
ATOM     23  C   UNL     1       1.718   7.716  20.286  0.00  0.00    +0.000 A 
ATOM     24  C   UNL     1       0.949   8.594  21.060  0.00  0.00    +0.000 A 
ATOM     25  C   UNL     1       0.439   9.785  20.529  0.00  0.00    +0.000 A 
ATOM     26  C   UNL     1       0.729  10.063  19.184  0.00  0.00    +0.000 A 
ATOM     27  C   UNL     1       1.512   9.194  18.407  0.00  0.00    +0.000 A 
BRANCH  25  28
ATOM     28  N   UNL     1      -0.355  10.672  21.312  0.00  0.00    +0.000 N 
ATOM     29  C   UNL     1      -1.268  11.626  20.725  0.00  0.00    +0.000 C 
ATOM     30  C   UNL     1      -1.660  12.538  21.868  0.00  0.00    +0.000 C 
ATOM     31  C   UNL     1      -1.563  11.645  23.088  0.00  0.00    +0.000 C 
ATOM     32  C   UNL     1      -0.495  10.649  22.709  0.00  0.00    +0.000 C 
ATOM     33  O   UNL     1       0.079   9.958  23.539  0.00  0.00    +0.000 OA
ENDBRANCH  25  28
ENDBRANCH  21  22
ENDBRANCH   3  21
TORSDOF 6
ENDMDL
MODEL 6
REMARK VINA RESULT:      -8.7      0.999      1.363
REMARK  Name = 
REMARK  8 active torsions:
REMARK  status: ('A' for Active; 'I' for Inactive)
REMARK    1  A    between atoms: C_1  and  C_2
REMARK    2  A    between atoms: C_5  and  S_6
REMARK    3  A    between atoms: S_6  and  C_9
REMARK    4  A    between atoms: C_9  and  C_10
REMARK    5  A    between atoms: N_12  and  C_13
REMARK    6  A    between atoms: C_13  and  C_14
REMARK    7  A    between atoms: C_17  and  N_18
REMARK    8  A    between atoms: C_31  and  C_32
REMARK                            x       y       z     vdW  Elec       q    Type
REMARK                         _______ _______ _______ _____ _____    ______ ____
ROOT
ATOM      1  C   UNL     1       2.390   4.556  18.233  0.00  0.00    +0.000 C 
ATOM      2  O   UNL     1       1.873   4.288  17.149  0.00  0.00    +0.000 OA
ATOM      3  N   UNL     1       2.796   5.836  18.541  0.00  0.00    +0.000 N 
ATOM      4  H   UNL     1       2.948   6.069  19.522  0.00  0.00    +0.000 HD
ENDROOT
BRANCH   1   5
ATOM      5  C   UNL     1       2.640   3.491  19.304  0.00  0.00    +0.000 C 
ATOM      6  C   UNL     1       1.510   2.448  19.345  0.00  0.00    +0.000 C 
ATOM      7  C   UNL     1       0.479   2.976  20.332  0.00  0.00    +0.000 C 
ATOM      8  C   UNL     1       1.198   3.967  21.235  0.00  0.00    +0.000 C 
ATOM      9  C   UNL     1       2.634   4.069  20.729  0.00  0.00    +0.000 C 
BRANCH   5  10
ATOM     10  S   UNL     1       4.208   2.699  18.927  0.00  0.00    +0.000 S 
ATOM     11  O   UNL     1       4.008   1.795  17.804  0.00  0.00    +0.000 OA
ATOM     12  O   UNL     1       4.765   2.167  20.160  0.00  0.00    +0.000 OA
BRANCH  10  17
ATOM     13  C   UNL     1       7.716   7.295  17.031  0.00  0.00    +0.000 C 
ATOM     14  C   UNL     1       6.881   6.126  17.481  0.00  0.00    +0.000 A 
ATOM     15  C   UNL     1       6.665   5.921  18.855  0.00  0.00    +0.000 A 
ATOM     16  C   UNL     1       5.879   4.859  19.307  0.00  0.00    +0.000 A 
ATOM     17  C   UNL     1       5.317   3.981  18.382  0.00  0.00    +0.000 A 
ATOM     18  C   UNL     1       5.509   4.179  17.011  0.00  0.00    +0.000 A 
ATOM     19  C   UNL     1       6.294   5.248  16.549  0.00  0.00    +0.000 A 
ATOM     20  C   UNL     1       6.470   5.440  15.068  0.00  0.00    +0.000 C 
ENDBRANCH  10  17
ENDBRANCH   5  10
ENDBRANCH   1   5
BRANCH   3  21
ATOM     21  C   UNL     1       2.511   6.954  17.669  0.00  0.00    +0.000 C 
BRANCH  21  22
ATOM     22  C   UNL     1       1.913   8.093  18.446  0.00  0.00    +0.000 A 
ATOM     23  C   UNL     1       1.728   7.981  19.825  0.00  0.00    +0.000 A 
ATOM     24  C   UNL     1       1.159   9.027  20.560  0.00  0.00    +0.000 A 
ATOM     25  C   UNL     1       0.733  10.210  19.944  0.00  0.00    +0.000 A 
ATOM     26  C   UNL     1       0.901  10.304  18.553  0.00  0.00    +0.000 A 
ATOM     27  C   UNL     1       1.485   9.265  17.813  0.00  0.00    +0.000 A 
BRANCH  25  28
ATOM     28  N   UNL     1       0.141  11.270  20.690  0.00  0.00    +0.000 N 
ATOM     29  C   UNL     1      -1.216  11.214  21.182  0.00  0.00    +0.000 C 
ATOM     30  C   UNL     1      -1.519  12.626  21.637  0.00  0.00    +0.000 C 
ATOM     31  C   UNL     1      -0.168  13.164  22.060  0.00  0.00    +0.000 C 
ATOM     32  C   UNL     1       0.800  12.408  21.184  0.00  0.00    +0.000 C 
ATOM     33  O   UNL     1       1.953  12.777  21.013  0.00  0.00    +0.000 OA
ENDBRANCH  25  28
ENDBRANCH  21  22
ENDBRANCH   3  21
TORSDOF 6
ENDMDL
MODEL 7
REMARK VINA RESULT:      -8.6      1.163      2.005
REMARK  Name = 
REMARK  8 active torsions:
REMARK  status: ('A' for Active; 'I' for Inactive)
REMARK    1  A    between atoms: C_1  and  C_2
REMARK    2  A    between atoms: C_5  and  S_6
REMARK    3  A    between atoms: S_6  and  C_9
REMARK    4  A    between atoms: C_9  and  C_10
REMARK    5  A    between atoms: N_12  and  C_13
REMARK    6  A    between atoms: C_13  and  C_14
REMARK    7  A    between atoms: C_17  and  N_18
REMARK    8  A    between atoms: C_31  and  C_32
REMARK                            x       y       z     vdW  Elec       q    Type
REMARK                         _______ _______ _______ _____ _____    ______ ____
ROOT
ATOM      1  C   UNL     1       2.374   5.077  18.334  0.00  0.00    +0.000 C 
ATOM      2  O   UNL     1       1.812   4.970  17.244  0.00  0.00    +0.000 OA
ATOM      3  N   UNL     1       2.776   6.303  18.820  0.00  0.00    +0.000 N 
ATOM      4  H   UNL     1       2.969   6.384  19.817  0.00  0.00    +0.000 HD
ENDROOT
BRANCH   1   5
ATOM      5  C   UNL     1       2.687   3.866  19.215  0.00  0.00    +0.000 C 
ATOM      6  C   UNL     1       2.166   2.559  18.593  0.00  0.00    +0.000 C 
ATOM      7  C   UNL     1       0.748   2.374  19.115  0.00  0.00    +0.000 C 
ATOM      8  C   UNL     1       0.637   3.197  20.390  0.00  0.00    +0.000 C 
ATOM      9  C   UNL     1       1.969   3.916  20.574  0.00  0.00    +0.000 C 
BRANCH   5  10
ATOM     10  S   UNL     1       4.471   3.791  19.421  0.00  0.00    +0.000 S 
ATOM     11  O   UNL     1       4.845   2.410  19.688  0.00  0.00    +0.000 OA
ATOM     12  O   UNL     1       4.870   4.818  20.370  0.00  0.00    +0.000 OA
BRANCH  10  17
ATOM     13  C   UNL     1       7.230   5.151  14.171  0.00  0.00    +0.000 C 
ATOM     14  C   UNL     1       6.520   4.856  15.466  0.00  0.00    +0.000 A 
ATOM     15  C   UNL     1       5.715   3.708  15.566  0.00  0.00    +0.000 A 
ATOM     16  C   UNL     1       5.058   3.394  16.757  0.00  0.00    +0.000 A 
ATOM     17  C   UNL     1       5.192   4.240  17.857  0.00  0.00    +0.000 A 
ATOM     18  C   UNL     1       6.001   5.378  17.780  0.00  0.00    +0.000 A 
ATOM     19  C   UNL     1       6.667   5.698  16.586  0.00  0.00    +0.000 A 
ATOM     20  C   UNL     1       7.541   6.922  16.541  0.00  0.00    +0.000 C 
ENDBRANCH  10  17
ENDBRANCH   5  10
ENDBRANCH   1   5
BRANCH   3  21
ATOM     21  C   UNL     1       2.436   7.536  18.145  0.00  0.00    +0.000 C 
BRANCH  21  22
ATOM     22  C   UNL     1       1.722   8.471  19.080  0.00  0.00    +0.000 A 
ATOM     23  C   UNL     1       1.601   8.154  20.434  0.00  0.00    +0.000 A 
ATOM     24  C   UNL     1       0.926   9.008  21.314  0.00  0.00    +0.000 A 
ATOM     25  C   UNL     1       0.330  10.195  20.872  0.00  0.00    +0.000 A 
ATOM     26  C   UNL     1       0.436  10.494  19.504  0.00  0.00    +0.000 A 
ATOM     27  C   UNL     1       1.124   9.649  18.619  0.00  0.00    +0.000 A 
BRANCH  25  28
ATOM     28  N   UNL     1      -0.369  11.058  21.765  0.00  0.00    +0.000 N 
ATOM     29  C   UNL     1      -1.077  10.571  22.926  0.00  0.00    +0.000 C 
ATOM     30  C   UNL     1      -1.898  11.752  23.399  0.00  0.00    +0.000 C 
ATOM     31  C   UNL     1      -1.075  12.952  22.979  0.00  0.00    +0.000 C 
ATOM     32  C   UNL     1      -0.341  12.462  21.754  0.00  0.00    +0.000 C 
ATOM     33  O   UNL     1       0.184  13.226  20.958  0.00  0.00    +0.000 OA
ENDBRANCH  25  28
ENDBRANCH  21  22
ENDBRANCH   3  21
TORSDOF 6
ENDMDL
MODEL 8
REMARK VINA RESULT:      -8.6      1.015      1.471
REMARK  Name = 
REMARK  8 active torsions:
REMARK  status: ('A' for Active; 'I' for Inactive)
REMARK    1  A    between atoms: C_1  and  C_2
REMARK    2  A    between atoms: C_5  and  S_6
REMARK    3  A    between atoms: S_6  and  C_9
REMARK    4  A    between atoms: C_9  and  C_10
REMARK    5  A    between atoms: N_12  and  C_13
REMARK    6  A    between atoms: C_13  and  C_14
REMARK    7  A    between atoms: C_17  and  N_18
REMARK    8  A    between atoms: C_31  and  C_32
REMARK                            x       y       z     vdW  Elec       q    Type
REMARK                         _______ _______ _______ _____ _____    ______ ____
ROOT
ATOM      1  C   UNL     1       2.548   4.714  18.274  0.00  0.00    +0.000 C 
ATOM      2  O   UNL     1       2.024   4.523  17.177  0.00  0.00    +0.000 OA
ATOM      3  N   UNL     1       3.022   5.956  18.640  0.00  0.00    +0.000 N 
ATOM      4  H   UNL     1       3.179   6.137  19.630  0.00  0.00    +0.000 HD
ENDROOT
BRANCH   1   5
ATOM      5  C   UNL     1       2.730   3.593  19.300  0.00  0.00    +0.000 C 
ATOM      6  C   UNL     1       1.575   2.578  19.246  0.00  0.00    +0.000 C 
ATOM      7  C   UNL     1       0.518   3.083  20.219  0.00  0.00    +0.000 C 
ATOM      8  C   UNL     1       1.226   4.011  21.196  0.00  0.00    +0.000 C 
ATOM      9  C   UNL     1       2.682   4.100  20.751  0.00  0.00    +0.000 C 
BRANCH   5  10
ATOM     10  S   UNL     1       4.292   2.779  18.944  0.00  0.00    +0.000 S 
ATOM     11  O   UNL     1       4.093   1.871  17.825  0.00  0.00    +0.000 OA
ATOM     12  O   UNL     1       4.831   2.249  20.186  0.00  0.00    +0.000 OA
BRANCH  10  17
ATOM     13  C   UNL     1       7.875   7.324  17.063  0.00  0.00    +0.000 C 
ATOM     14  C   UNL     1       7.020   6.167  17.509  0.00  0.00    +0.000 A 
ATOM     15  C   UNL     1       6.812   5.953  18.883  0.00  0.00    +0.000 A 
ATOM     16  C   UNL     1       6.009   4.901  19.331  0.00  0.00    +0.000 A 
ATOM     17  C   UNL     1       5.422   4.044  18.402  0.00  0.00    +0.000 A 
ATOM     18  C   UNL     1       5.606   4.253  17.031  0.00  0.00    +0.000 A 
ATOM     19  C   UNL     1       6.408   5.310  16.574  0.00  0.00    +0.000 A 
ATOM     20  C   UNL     1       6.576   5.513  15.092  0.00  0.00    +0.000 C 
ENDBRANCH  10  17
ENDBRANCH   5  10
ENDBRANCH   1   5
BRANCH   3  21
ATOM     21  C   UNL     1       2.806   7.124  17.815  0.00  0.00    +0.000 C 
BRANCH  21  22
ATOM     22  C   UNL     1       1.994   8.150  18.553  0.00  0.00    +0.000 A 
ATOM     23  C   UNL     1       1.683   7.963  19.901  0.00  0.00    +0.000 A 
ATOM     24  C   UNL     1       0.915   8.902  20.599  0.00  0.00    +0.000 A 
ATOM     25  C   UNL     1       0.412  10.048  19.972  0.00  0.00    +0.000 A 
ATOM     26  C   UNL     1       0.709  10.217  18.610  0.00  0.00    +0.000 A 
ATOM     27  C   UNL     1       1.491   9.286  17.909  0.00  0.00    +0.000 A 
BRANCH  25  28
ATOM     28  N   UNL     1      -0.382  10.999  20.678  0.00  0.00    +0.000 N 
ATOM     29  C   UNL     1       0.021  11.563  21.946  0.00  0.00    +0.000 C 
ATOM     30  C   UNL     1      -1.215  12.267  22.463  0.00  0.00    +0.000 C 
ATOM     31  C   UNL     1      -1.945  12.684  21.203  0.00  0.00    +0.000 C 
ATOM     32  C   UNL     1      -1.541  11.632  20.200  0.00  0.00    +0.000 C 
ATOM     33  O   UNL     1      -2.157  11.450  19.160  0.00  0.00    +0.000 OA
ENDBRANCH  25  28
ENDBRANCH  21  22
ENDBRANCH   3  21
TORSDOF 6
ENDMDL
MODEL 9
REMARK VINA RESULT:      -8.5      3.781      9.757
REMARK  Name = 
REMARK  8 active torsions:
REMARK  status: ('A' for Active; 'I' for Inactive)
REMARK    1  A    between atoms: C_1  and  C_2
REMARK    2  A    between atoms: C_5  and  S_6
REMARK    3  A    between atoms: S_6  and  C_9
REMARK    4  A    between atoms: C_9  and  C_10
REMARK    5  A    between atoms: N_12  and  C_13
REMARK    6  A    between atoms: C_13  and  C_14
REMARK    7  A    between atoms: C_17  and  N_18
REMARK    8  A    between atoms: C_31  and  C_32
REMARK                            x       y       z     vdW  Elec       q    Type
REMARK                         _______ _______ _______ _____ _____    ______ ____
ROOT
ATOM      1  C   UNL     1      -0.229  10.711  20.878  0.00  0.00    +0.000 C 
ATOM      2  O   UNL     1      -0.846  10.337  21.875  0.00  0.00    +0.000 OA
ATOM      3  N   UNL     1       0.776   9.947  20.324  0.00  0.00    +0.000 N 
ATOM      4  H   UNL     1       1.056  10.145  19.364  0.00  0.00    +0.000 HD
ENDROOT
BRANCH   1   5
ATOM      5  C   UNL     1      -0.513  12.051  20.195  0.00  0.00    +0.000 C 
ATOM      6  C   UNL     1      -1.998  12.438  20.297  0.00  0.00    +0.000 C 
ATOM      7  C   UNL     1      -2.678  11.847  19.069  0.00  0.00    +0.000 C 
ATOM      8  C   UNL     1      -1.590  11.617  18.031  0.00  0.00    +0.000 C 
ATOM      9  C   UNL     1      -0.265  12.010  18.678  0.00  0.00    +0.000 C 
BRANCH   5  10
ATOM     10  S   UNL     1       0.512  13.294  20.990  0.00  0.00    +0.000 S 
ATOM     11  O   UNL     1       1.840  12.734  21.193  0.00  0.00    +0.000 OA
ATOM     12  O   UNL     1      -0.206  13.819  22.141  0.00  0.00    +0.000 OA
BRANCH  10  17
ATOM     13  C   UNL     1       1.168  18.111  17.330  0.00  0.00    +0.000 C 
ATOM     14  C   UNL     1       0.973  16.900  18.204  0.00  0.00    +0.000 A 
ATOM     15  C   UNL     1       2.051  16.025  18.423  0.00  0.00    +0.000 A 
ATOM     16  C   UNL     1       1.910  14.904  19.243  0.00  0.00    +0.000 A 
ATOM     17  C   UNL     1       0.678  14.642  19.839  0.00  0.00    +0.000 A 
ATOM     18  C   UNL     1      -0.401  15.510  19.645  0.00  0.00    +0.000 A 
ATOM     19  C   UNL     1      -0.266  16.641  18.825  0.00  0.00    +0.000 A 
ATOM     20  C   UNL     1      -1.442  17.562  18.647  0.00  0.00    +0.000 C 
ENDBRANCH  10  17
ENDBRANCH   5  10
ENDBRANCH   1   5
BRANCH   3  21
ATOM     21  C   UNL     1       1.064   8.611  20.797  0.00  0.00    +0.000 C 
BRANCH  21  22
ATOM     22  C   UNL     1       1.885   7.858  19.789  0.00  0.00    +0.000 A 
ATOM     23  C   UNL     1       2.389   6.594  20.098  0.00  0.00    +0.000 A 
ATOM     24  C   UNL     1       3.168   5.886  19.175  0.00  0.00    +0.000 A 
ATOM     25  C   UNL     1       3.491   6.423  17.923  0.00  0.00    +0.000 A 
ATOM     26  C   UNL     1       3.000   7.705  17.630  0.00  0.00    +0.000 A 
ATOM     27  C   UNL     1       2.206   8.413  18.546  0.00  0.00    +0.000 A 
BRANCH  25  28
ATOM     28  N   UNL     1       4.295   5.708  16.988  0.00  0.00    +0.000 N 
ATOM     29  C   UNL     1       5.276   6.357  16.149  0.00  0.00    +0.000 C 
ATOM     30  C   UNL     1       5.666   5.306  15.132  0.00  0.00    +0.000 C 
ATOM     31  C   UNL     1       5.477   4.000  15.874  0.00  0.00    +0.000 C 
ATOM     32  C   UNL     1       4.377   4.312  16.859  0.00  0.00    +0.000 C 
ATOM     33  O   UNL     1       3.737   3.438  17.424  0.00  0.00    +0.000 OA
ENDBRANCH  25  28
ENDBRANCH  21  22
ENDBRANCH   3  21
TORSDOF 6
ENDMDL
