MODEL 1
REMARK VINA RESULT:      -7.7      0.000      0.000
REMARK  Name = 
REMARK  4 active torsions:
REMARK  status: ('A' for Active; 'I' for Inactive)
REMARK    1  A    between atoms: C_4  and  C_5
REMARK    2  A    between atoms: N_9  and  C_10
REMARK    3  A    between atoms: C_10  and  C_11
REMARK    4  A    between atoms: C_11  and  N_12
REMARK                            x       y       z     vdW  Elec       q    Type
REMARK                         _______ _______ _______ _____ _____    ______ ____
ROOT
ATOM      1  C   UNL     1       5.634   5.680  17.867  0.00  0.00    +0.000 C 
ATOM      2  N   UNL     1       6.479   5.384  18.813  0.00  0.00    +0.000 NA
ATOM      3  N   UNL     1       7.605   6.159  18.807  0.00  0.00    +0.000 N 
ATOM      4  C   UNL     1       7.678   7.373  18.172  0.00  0.00    +0.000 C 
ATOM      5  N   UNL     1       8.649   8.168  18.703  0.00  0.00    +0.000 N 
ATOM      6  N   UNL     1       6.886   7.764  17.231  0.00  0.00    +0.000 NA
ATOM      7  C   UNL     1       5.919   6.739  16.805  0.00  0.00    +0.000 C 
ATOM      8  H   UNL     1       8.152   6.115  19.662  0.00  0.00    +0.000 HD
ATOM      9  H   UNL     1       9.561   7.734  18.828  0.00  0.00    +0.000 HD
ENDROOT
BRANCH   1  13
ATOM     10  C   UNL     1       1.943   3.518  17.593  0.00  0.00    +0.000 A 
ATOM     11  C   UNL     1       3.154   2.874  17.338  0.00  0.00    +0.000 A 
ATOM     12  C   UNL     1       4.355   3.582  17.427  0.00  0.00    +0.000 A 
ATOM     13  C   UNL     1       4.345   4.938  17.779  0.00  0.00    +0.000 A 
ATOM     14  C   UNL     1       3.128   5.578  18.037  0.00  0.00    +0.000 A 
ATOM     15  C   UNL     1       1.929   4.870  17.942  0.00  0.00    +0.000 A 
ENDBRANCH   1  13
BRANCH   5  16
ATOM     16  C   UNL     1       8.766   9.571  18.335  0.00  0.00    +0.000 C 
BRANCH  16  17
ATOM     17  C   UNL     1       9.293  10.376  19.542  0.00  0.00    +0.000 C 
BRANCH  17  18
ATOM     18  N   UNL     1      10.009  11.622  19.172  0.00  0.00    +0.000 NA
ATOM     19  C   UNL     1      11.155  11.867  20.065  0.00  0.00    +0.000 C 
ATOM     20  C   UNL     1      11.852  13.180  19.710  0.00  0.00    +0.000 C 
ATOM     21  C   UNL     1      12.308  13.191  18.257  0.00  0.00    +0.000 C 
ATOM     22  C   UNL     1      11.154  12.826  17.331  0.00  0.00    +0.000 C 
ATOM     23  C   UNL     1      10.468  11.533  17.772  0.00  0.00    +0.000 C 
ENDBRANCH  17  18
ENDBRANCH  16  17
ENDBRANCH   5  16
TORSDOF 4
ENDMDL
MODEL 2
REMARK VINA RESULT:      -7.6      1.170      1.544
REMARK  Name = 
REMARK  4 active torsions:
REMARK  status: ('A' for Active; 'I' for Inactive)
REMARK    1  A    between atoms: C_4  and  C_5
REMARK    2  A    between atoms: N_9  and  C_10
REMARK    3  A    between atoms: C_10  and  C_11
REMARK    4  A    between atoms: C_11  and  N_12
REMARK                            x       y       z     vdW  Elec       q    Type
REMARK                         _______ _______ _______ _____ _____    ______ ____
ROOT
ATOM      1  C   UNL     1       5.261   4.916  18.404  0.00  0.00    +0.000 C 
ATOM      2  N   UNL     1       6.205   4.729  19.282  0.00  0.00    +0.000 NA
ATOM      3  N   UNL     1       7.317   5.495  19.066  0.00  0.00    +0.000 N 
ATOM      4  C   UNL     1       7.310   6.627  18.291  0.00  0.00    +0.000 C 
ATOM      5  N   UNL     1       8.325   7.475  18.620  0.00  0.00    +0.000 N 
ATOM      6  N   UNL     1       6.418   6.909  17.402  0.00  0.00    +0.000 NA
ATOM      7  C   UNL     1       5.421   5.844  17.204  0.00  0.00    +0.000 C 
ATOM      8  H   UNL     1       7.952   5.547  19.857  0.00  0.00    +0.000 HD
ATOM      9  H   UNL     1       9.249   7.056  18.697  0.00  0.00    +0.000 HD
ENDROOT
BRANCH   1  13
ATOM     10  C   UNL     1       1.587   2.747  18.815  0.00  0.00    +0.000 A 
ATOM     11  C   UNL     1       2.696   2.399  19.585  0.00  0.00    +0.000 A 
ATOM     12  C   UNL     1       3.893   3.107  19.447  0.00  0.00    +0.000 A 
ATOM     13  C   UNL     1       3.977   4.173  18.542  0.00  0.00    +0.000 A 
ATOM     14  C   UNL     1       2.860   4.519  17.774  0.00  0.00    +0.000 A 
ATOM     15  C   UNL     1       1.668   3.806  17.909  0.00  0.00    +0.000 A 
ENDBRANCH   1  13
BRANCH   5  16
ATOM     16  C   UNL     1       8.389   8.826  18.082  0.00  0.00    +0.000 C 
BRANCH  16  17
ATOM     17  C   UNL     1       8.961   9.777  19.154  0.00  0.00    +0.000 C 
BRANCH  17  18
ATOM     18  N   UNL     1       9.882  10.810  18.616  0.00  0.00    +0.000 NA
ATOM     19  C   UNL     1       9.139  11.946  18.045  0.00  0.00    +0.000 C 
ATOM     20  C   UNL     1      10.095  12.978  17.446  0.00  0.00    +0.000 C 
ATOM     21  C   UNL     1      11.096  13.474  18.481  0.00  0.00    +0.000 C 
ATOM     22  C   UNL     1      11.789  12.298  19.160  0.00  0.00    +0.000 C 
ATOM     23  C   UNL     1      10.779  11.280  19.690  0.00  0.00    +0.000 C 
ENDBRANCH  17  18
ENDBRANCH  16  17
ENDBRANCH   5  16
TORSDOF 4
ENDMDL
MODEL 3
REMARK VINA RESULT:      -7.6      0.289      1.110
REMARK  Name = 
REMARK  4 active torsions:
REMARK  status: ('A' for Active; 'I' for Inactive)
REMARK    1  A    between atoms: C_4  and  C_5
REMARK    2  A    between atoms: N_9  and  C_10
REMARK    3  A    between atoms: C_10  and  C_11
REMARK    4  A    between atoms: C_11  and  N_12
REMARK                            x       y       z     vdW  Elec       q    Type
REMARK                         _______ _______ _______ _____ _____    ______ ____
ROOT
ATOM      1  C   UNL     1       5.622   5.624  17.928  0.00  0.00    +0.000 C 
ATOM      2  N   UNL     1       6.448   5.365  18.901  0.00  0.00    +0.000 NA
ATOM      3  N   UNL     1       7.578   6.135  18.883  0.00  0.00    +0.000 N 
ATOM      4  C   UNL     1       7.668   7.320  18.199  0.00  0.00    +0.000 C 
ATOM      5  N   UNL     1       8.633   8.133  18.715  0.00  0.00    +0.000 N 
ATOM      6  N   UNL     1       6.896   7.675  17.228  0.00  0.00    +0.000 NA
ATOM      7  C   UNL     1       5.931   6.637  16.828  0.00  0.00    +0.000 C 
ATOM      8  H   UNL     1       8.109   6.124  19.749  0.00  0.00    +0.000 HD
ATOM      9  H   UNL     1       9.541   7.701  18.876  0.00  0.00    +0.000 HD
ENDROOT
BRANCH   1  13
ATOM     10  C   UNL     1       1.925   3.471  17.672  0.00  0.00    +0.000 A 
ATOM     11  C   UNL     1       3.126   2.843  17.345  0.00  0.00    +0.000 A 
ATOM     12  C   UNL     1       4.329   3.549  17.427  0.00  0.00    +0.000 A 
ATOM     13  C   UNL     1       4.332   4.885  17.847  0.00  0.00    +0.000 A 
ATOM     14  C   UNL     1       3.123   5.509  18.178  0.00  0.00    +0.000 A 
ATOM     15  C   UNL     1       1.922   4.803  18.089  0.00  0.00    +0.000 A 
ENDBRANCH   1  13
BRANCH   5  16
ATOM     16  C   UNL     1       8.764   9.519  18.291  0.00  0.00    +0.000 C 
BRANCH  16  17
ATOM     17  C   UNL     1       9.339  10.358  19.451  0.00  0.00    +0.000 C 
BRANCH  17  18
ATOM     18  N   UNL     1      10.484  11.220  19.066  0.00  0.00    +0.000 NA
ATOM     19  C   UNL     1      10.245  11.884  17.773  0.00  0.00    +0.000 C 
ATOM     20  C   UNL     1      11.452  12.726  17.360  0.00  0.00    +0.000 C 
ATOM     21  C   UNL     1      11.799  13.759  18.424  0.00  0.00    +0.000 C 
ATOM     22  C   UNL     1      11.937  13.095  19.789  0.00  0.00    +0.000 C 
ATOM     23  C   UNL     1      10.721  12.228  20.117  0.00  0.00    +0.000 C 
ENDBRANCH  17  18
ENDBRANCH  16  17
ENDBRANCH   5  16
TORSDOF 4
ENDMDL
MODEL 4
REMARK VINA RESULT:      -7.6      1.097      1.347
REMARK  Name = 
REMARK  4 active torsions:
REMARK  status: ('A' for Active; 'I' for Inactive)
REMARK    1  A    between atoms: C_4  and  C_5
REMARK    2  A    between atoms: N_9  and  C_10
REMARK    3  A    between atoms: C_10  and  C_11
REMARK    4  A    between atoms: C_11  and  N_12
REMARK                            x       y       z     vdW  Elec       q    Type
REMARK                         _______ _______ _______ _____ _____    ______ ____
ROOT
ATOM      1  C   UNL     1       6.076   5.178  18.242  0.00  0.00    +0.000 C 
ATOM      2  N   UNL     1       6.853   5.181  19.287  0.00  0.00    +0.000 NA
ATOM      3  N   UNL     1       7.868   6.095  19.216  0.00  0.00    +0.000 N 
ATOM      4  C   UNL     1       7.849   7.173  18.367  0.00  0.00    +0.000 C 
ATOM      5  N   UNL     1       8.654   8.181  18.807  0.00  0.00    +0.000 N 
ATOM      6  N   UNL     1       7.111   7.272  17.313  0.00  0.00    +0.000 NA
ATOM      7  C   UNL     1       6.328   6.060  17.021  0.00  0.00    +0.000 C 
ATOM      8  H   UNL     1       8.328   6.282  20.101  0.00  0.00    +0.000 HD
ATOM      9  H   UNL     1       9.596   7.910  19.080  0.00  0.00    +0.000 HD
ENDROOT
BRANCH   1  13
ATOM     10  C   UNL     1       2.692   2.551  18.106  0.00  0.00    +0.000 A 
ATOM     11  C   UNL     1       2.898   3.482  17.088  0.00  0.00    +0.000 A 
ATOM     12  C   UNL     1       4.001   4.338  17.136  0.00  0.00    +0.000 A 
ATOM     13  C   UNL     1       4.906   4.257  18.203  0.00  0.00    +0.000 A 
ATOM     14  C   UNL     1       4.695   3.319  19.220  0.00  0.00    +0.000 A 
ATOM     15  C   UNL     1       3.589   2.469  19.171  0.00  0.00    +0.000 A 
ENDBRANCH   1  13
BRANCH   5  16
ATOM     16  C   UNL     1       8.629   9.497  18.187  0.00  0.00    +0.000 C 
BRANCH  16  17
ATOM     17  C   UNL     1       9.209  10.537  19.169  0.00  0.00    +0.000 C 
BRANCH  17  18
ATOM     18  N   UNL     1       9.506  11.853  18.551  0.00  0.00    +0.000 NA
ATOM     19  C   UNL     1       9.664  12.902  19.572  0.00  0.00    +0.000 C 
ATOM     20  C   UNL     1       9.916  14.263  18.922  0.00  0.00    +0.000 C 
ATOM     21  C   UNL     1      11.138  14.227  18.014  0.00  0.00    +0.000 C 
ATOM     22  C   UNL     1      11.036  13.071  17.026  0.00  0.00    +0.000 C 
ATOM     23  C   UNL     1      10.732  11.751  17.735  0.00  0.00    +0.000 C 
ENDBRANCH  17  18
ENDBRANCH  16  17
ENDBRANCH   5  16
TORSDOF 4
ENDMDL
MODEL 5
REMARK VINA RESULT:      -7.5      0.722      1.555
REMARK  Name = 
REMARK  4 active torsions:
REMARK  status: ('A' for Active; 'I' for Inactive)
REMARK    1  A    between atoms: C_4  and  C_5
REMARK    2  A    between atoms: N_9  and  C_10
REMARK    3  A    between atoms: C_10  and  C_11
REMARK    4  A    between atoms: C_11  and  N_12
REMARK                            x       y       z     vdW  Elec       q    Type
REMARK                         _______ _______ _______ _____ _____    ______ ____
ROOT
ATOM      1  C   UNL     1       5.651   5.645  17.888  0.00  0.00    +0.000 C 
ATOM      2  N   UNL     1       6.475   5.372  18.859  0.00  0.00    +0.000 NA
ATOM      3  N   UNL     1       7.604   6.144  18.856  0.00  0.00    +0.000 N 
ATOM      4  C   UNL     1       7.693   7.340  18.192  0.00  0.00    +0.000 C 
ATOM      5  N   UNL     1       8.655   8.147  18.723  0.00  0.00    +0.000 N 
ATOM      6  N   UNL     1       6.922   7.709  17.225  0.00  0.00    +0.000 NA
ATOM      7  C   UNL     1       5.960   6.676  16.806  0.00  0.00    +0.000 C 
ATOM      8  H   UNL     1       8.133   6.119  19.723  0.00  0.00    +0.000 HD
ATOM      9  H   UNL     1       9.563   7.714  18.878  0.00  0.00    +0.000 HD
ENDROOT
BRANCH   1  13
ATOM     10  C   UNL     1       1.925   3.541  17.637  0.00  0.00    +0.000 A 
ATOM     11  C   UNL     1       1.944   4.896  17.964  0.00  0.00    +0.000 A 
ATOM     12  C   UNL     1       3.161   5.579  18.047  0.00  0.00    +0.000 A 
ATOM     13  C   UNL     1       4.362   4.904  17.793  0.00  0.00    +0.000 A 
ATOM     14  C   UNL     1       4.336   3.545  17.462  0.00  0.00    +0.000 A 
ATOM     15  C   UNL     1       3.120   2.864  17.386  0.00  0.00    +0.000 A 
ENDBRANCH   1  13
BRANCH   5  16
ATOM     16  C   UNL     1       8.784   9.539  18.321  0.00  0.00    +0.000 C 
BRANCH  16  17
ATOM     17  C   UNL     1       9.309  10.369  19.512  0.00  0.00    +0.000 C 
BRANCH  17  18
ATOM     18  N   UNL     1      10.102  11.560  19.116  0.00  0.00    +0.000 NA
ATOM     19  C   UNL     1      10.481  11.504  17.695  0.00  0.00    +0.000 C 
ATOM     20  C   UNL     1      11.343  12.708  17.312  0.00  0.00    +0.000 C 
ATOM     21  C   UNL     1      10.629  14.019  17.613  0.00  0.00    +0.000 C 
ATOM     22  C   UNL     1      10.131  14.039  19.053  0.00  0.00    +0.000 C 
ATOM     23  C   UNL     1       9.323  12.785  19.385  0.00  0.00    +0.000 C 
ENDBRANCH  17  18
ENDBRANCH  16  17
ENDBRANCH   5  16
TORSDOF 4
ENDMDL
MODEL 6
REMARK VINA RESULT:      -7.5      1.159      1.528
REMARK  Name = 
REMARK  4 active torsions:
REMARK  status: ('A' for Active; 'I' for Inactive)
REMARK    1  A    between atoms: C_4  and  C_5
REMARK    2  A    between atoms: N_9  and  C_10
REMARK    3  A    between atoms: C_10  and  C_11
REMARK    4  A    between atoms: C_11  and  N_12
REMARK                            x       y       z     vdW  Elec       q    Type
REMARK                         _______ _______ _______ _____ _____    ______ ____
ROOT
ATOM      1  C   UNL     1       6.234   5.357  18.160  0.00  0.00    +0.000 C 
ATOM      2  N   UNL     1       7.089   5.278  19.139  0.00  0.00    +0.000 NA
ATOM      3  N   UNL     1       8.081   6.218  19.082  0.00  0.00    +0.000 N 
ATOM      4  C   UNL     1       7.980   7.371  18.346  0.00  0.00    +0.000 C 
ATOM      5  N   UNL     1       8.800   8.351  18.820  0.00  0.00    +0.000 N 
ATOM      6  N   UNL     1       7.162   7.553  17.364  0.00  0.00    +0.000 NA
ATOM      7  C   UNL     1       6.379   6.356  17.015  0.00  0.00    +0.000 C 
ATOM      8  H   UNL     1       8.604   6.331  19.945  0.00  0.00    +0.000 HD
ATOM      9  H   UNL     1       9.765   8.078  18.995  0.00  0.00    +0.000 HD
ENDROOT
BRANCH   1  13
ATOM     10  C   UNL     1       2.896   2.672  18.015  0.00  0.00    +0.000 A 
ATOM     11  C   UNL     1       3.171   3.509  16.933  0.00  0.00    +0.000 A 
ATOM     12  C   UNL     1       4.259   4.383  16.984  0.00  0.00    +0.000 A 
ATOM     13  C   UNL     1       5.080   4.417  18.119  0.00  0.00    +0.000 A 
ATOM     14  C   UNL     1       4.801   3.573  19.200  0.00  0.00    +0.000 A 
ATOM     15  C   UNL     1       3.710   2.704  19.148  0.00  0.00    +0.000 A 
ENDBRANCH   1  13
BRANCH   5  16
ATOM     16  C   UNL     1       8.707   9.719  18.334  0.00  0.00    +0.000 C 
BRANCH  16  17
ATOM     17  C   UNL     1       9.123  10.692  19.458  0.00  0.00    +0.000 C 
BRANCH  17  18
ATOM     18  N   UNL     1       9.963  11.825  18.997  0.00  0.00    +0.000 NA
ATOM     19  C   UNL     1      10.705  11.481  17.772  0.00  0.00    +0.000 C 
ATOM     20  C   UNL     1      11.607  12.635  17.337  0.00  0.00    +0.000 C 
ATOM     21  C   UNL     1      10.807  13.914  17.122  0.00  0.00    +0.000 C 
ATOM     22  C   UNL     1       9.947  14.218  18.343  0.00  0.00    +0.000 C 
ATOM     23  C   UNL     1       9.110  13.006  18.757  0.00  0.00    +0.000 C 
ENDBRANCH  17  18
ENDBRANCH  16  17
ENDBRANCH   5  16
TORSDOF 4
ENDMDL
MODEL 7
REMARK VINA RESULT:      -7.5      1.243      1.743
REMARK  Name = 
REMARK  4 active torsions:
REMARK  status: ('A' for Active; 'I' for Inactive)
REMARK    1  A    between atoms: C_4  and  C_5
REMARK    2  A    between atoms: N_9  and  C_10
REMARK    3  A    between atoms: C_10  and  C_11
REMARK    4  A    between atoms: C_11  and  N_12
REMARK                            x       y       z     vdW  Elec       q    Type
REMARK                         _______ _______ _______ _____ _____    ______ ____
ROOT
ATOM      1  C   UNL     1       5.049   5.030  18.270  0.00  0.00    +0.000 C 
ATOM      2  N   UNL     1       6.119   4.738  18.953  0.00  0.00    +0.000 NA
ATOM      3  N   UNL     1       7.201   5.513  18.638  0.00  0.00    +0.000 N 
ATOM      4  C   UNL     1       7.097   6.724  18.003  0.00  0.00    +0.000 C 
ATOM      5  N   UNL     1       8.176   7.521  18.248  0.00  0.00    +0.000 N 
ATOM      6  N   UNL     1       6.080   7.112  17.311  0.00  0.00    +0.000 NA
ATOM      7  C   UNL     1       5.034   6.085  17.168  0.00  0.00    +0.000 C 
ATOM      8  H   UNL     1       7.959   5.471  19.313  0.00  0.00    +0.000 HD
ATOM      9  H   UNL     1       9.088   7.088  18.123  0.00  0.00    +0.000 HD
ENDROOT
BRANCH   1  13
ATOM     10  C   UNL     1       1.393   2.922  19.022  0.00  0.00    +0.000 A 
ATOM     11  C   UNL     1       1.477   3.826  17.963  0.00  0.00    +0.000 A 
ATOM     12  C   UNL     1       2.670   4.512  17.722  0.00  0.00    +0.000 A 
ATOM     13  C   UNL     1       3.785   4.288  18.538  0.00  0.00    +0.000 A 
ATOM     14  C   UNL     1       3.696   3.378  19.598  0.00  0.00    +0.000 A 
ATOM     15  C   UNL     1       2.502   2.699  19.840  0.00  0.00    +0.000 A 
ENDBRANCH   1  13
BRANCH   5  16
ATOM     16  C   UNL     1       8.187   8.923  17.857  0.00  0.00    +0.000 C 
BRANCH  16  17
ATOM     17  C   UNL     1       8.867   9.758  18.962  0.00  0.00    +0.000 C 
BRANCH  17  18
ATOM     18  N   UNL     1       9.771  10.818  18.450  0.00  0.00    +0.000 NA
ATOM     19  C   UNL     1       9.011  11.988  17.976  0.00  0.00    +0.000 C 
ATOM     20  C   UNL     1       9.947  13.050  17.401  0.00  0.00    +0.000 C 
ATOM     21  C   UNL     1      10.990  13.483  18.423  0.00  0.00    +0.000 C 
ATOM     22  C   UNL     1      11.705  12.268  19.005  0.00  0.00    +0.000 C 
ATOM     23  C   UNL     1      10.712  11.223  19.513  0.00  0.00    +0.000 C 
ENDBRANCH  17  18
ENDBRANCH  16  17
ENDBRANCH   5  16
TORSDOF 4
ENDMDL
MODEL 8
REMARK VINA RESULT:      -7.3      1.191      1.675
REMARK  Name = 
REMARK  4 active torsions:
REMARK  status: ('A' for Active; 'I' for Inactive)
REMARK    1  A    between atoms: C_4  and  C_5
REMARK    2  A    between atoms: N_9  and  C_10
REMARK    3  A    between atoms: C_10  and  C_11
REMARK    4  A    between atoms: C_11  and  N_12
REMARK                            x       y       z     vdW  Elec       q    Type
REMARK                         _______ _______ _______ _____ _____    ______ ____
ROOT
ATOM      1  C   UNL     1       5.034   4.864  17.955  0.00  0.00    +0.000 C 
ATOM      2  N   UNL     1       6.086   4.518  18.641  0.00  0.00    +0.000 NA
ATOM      3  N   UNL     1       7.169   5.326  18.432  0.00  0.00    +0.000 N 
ATOM      4  C   UNL     1       7.073   6.590  17.909  0.00  0.00    +0.000 C 
ATOM      5  N   UNL     1       8.135   7.368  18.259  0.00  0.00    +0.000 N 
ATOM      6  N   UNL     1       6.072   7.033  17.224  0.00  0.00    +0.000 NA
ATOM      7  C   UNL     1       5.042   6.017  16.955  0.00  0.00    +0.000 C 
ATOM      8  H   UNL     1       7.907   5.227  19.124  0.00  0.00    +0.000 HD
ATOM      9  H   UNL     1       9.055   6.954  18.123  0.00  0.00    +0.000 HD
ENDROOT
BRANCH   1  13
ATOM     10  C   UNL     1       1.386   2.667  18.443  0.00  0.00    +0.000 A 
ATOM     11  C   UNL     1       1.478   3.983  18.896  0.00  0.00    +0.000 A 
ATOM     12  C   UNL     1       2.669   4.695  18.737  0.00  0.00    +0.000 A 
ATOM     13  C   UNL     1       3.770   4.092  18.115  0.00  0.00    +0.000 A 
ATOM     14  C   UNL     1       3.671   2.773  17.660  0.00  0.00    +0.000 A 
ATOM     15  C   UNL     1       2.482   2.061  17.825  0.00  0.00    +0.000 A 
ENDBRANCH   1  13
BRANCH   5  16
ATOM     16  C   UNL     1       8.146   8.800  17.999  0.00  0.00    +0.000 C 
BRANCH  16  17
ATOM     17  C   UNL     1       9.061   9.501  19.026  0.00  0.00    +0.000 C 
BRANCH  17  18
ATOM     18  N   UNL     1       9.057  10.981  18.928  0.00  0.00    +0.000 NA
ATOM     19  C   UNL     1       9.445  11.604  20.205  0.00  0.00    +0.000 C 
ATOM     20  C   UNL     1       9.385  13.129  20.109  0.00  0.00    +0.000 C 
ATOM     21  C   UNL     1      10.268  13.649  18.982  0.00  0.00    +0.000 C 
ATOM     22  C   UNL     1       9.950  12.928  17.678  0.00  0.00    +0.000 C 
ATOM     23  C   UNL     1       9.976  11.409  17.855  0.00  0.00    +0.000 C 
ENDBRANCH  17  18
ENDBRANCH  16  17
ENDBRANCH   5  16
TORSDOF 4
ENDMDL
MODEL 9
REMARK VINA RESULT:      -7.3      1.054      1.535
REMARK  Name = 
REMARK  4 active torsions:
REMARK  status: ('A' for Active; 'I' for Inactive)
REMARK    1  A    between atoms: C_4  and  C_5
REMARK    2  A    between atoms: N_9  and  C_10
REMARK    3  A    between atoms: C_10  and  C_11
REMARK    4  A    between atoms: C_11  and  N_12
REMARK                            x       y       z     vdW  Elec       q    Type
REMARK                         _______ _______ _______ _____ _____    ______ ____
ROOT
ATOM      1  C   UNL     1       5.516   5.362  17.888  0.00  0.00    +0.000 C 
ATOM      2  N   UNL     1       6.421   5.048  18.770  0.00  0.00    +0.000 NA
ATOM      3  N   UNL     1       7.534   5.842  18.722  0.00  0.00    +0.000 N 
ATOM      4  C   UNL     1       7.550   7.077  18.127  0.00  0.00    +0.000 C 
ATOM      5  N   UNL     1       8.540   7.870  18.625  0.00  0.00    +0.000 N 
ATOM      6  N   UNL     1       6.696   7.487  17.250  0.00  0.00    +0.000 NA
ATOM      7  C   UNL     1       5.719   6.461  16.849  0.00  0.00    +0.000 C 
ATOM      8  H   UNL     1       8.133   5.777  19.540  0.00  0.00    +0.000 HD
ATOM      9  H   UNL     1       9.464   7.447  18.680  0.00  0.00    +0.000 HD
ENDROOT
BRANCH   1  13
ATOM     10  C   UNL     1       1.849   3.145  17.775  0.00  0.00    +0.000 A 
ATOM     11  C   UNL     1       3.072   2.476  17.823  0.00  0.00    +0.000 A 
ATOM     12  C   UNL     1       4.265   3.202  17.858  0.00  0.00    +0.000 A 
ATOM     13  C   UNL     1       4.235   4.602  17.853  0.00  0.00    +0.000 A 
ATOM     14  C   UNL     1       3.004   5.268  17.808  0.00  0.00    +0.000 A 
ATOM     15  C   UNL     1       1.814   4.541  17.768  0.00  0.00    +0.000 A 
ENDBRANCH   1  13
BRANCH   5  16
ATOM     16  C   UNL     1       8.615   9.286  18.300  0.00  0.00    +0.000 C 
BRANCH  16  17
ATOM     17  C   UNL     1       9.240  10.052  19.485  0.00  0.00    +0.000 C 
BRANCH  17  18
ATOM     18  N   UNL     1       9.686  11.427  19.148  0.00  0.00    +0.000 NA
ATOM     19  C   UNL     1       9.046  11.912  17.914  0.00  0.00    +0.000 C 
ATOM     20  C   UNL     1       9.554  13.307  17.548  0.00  0.00    +0.000 C 
ATOM     21  C   UNL     1       9.324  14.297  18.682  0.00  0.00    +0.000 C 
ATOM     22  C   UNL     1       9.883  13.751  19.990  0.00  0.00    +0.000 C 
ATOM     23  C   UNL     1       9.378  12.335  20.270  0.00  0.00    +0.000 C 
ENDBRANCH  17  18
ENDBRANCH  16  17
ENDBRANCH   5  16
TORSDOF 4
ENDMDL
