MODEL 1
REMARK VINA RESULT:      -7.6      0.000      0.000
REMARK  Name = 
REMARK  8 active torsions:
REMARK  status: ('A' for Active; 'I' for Inactive)
REMARK    1  A    between atoms: C_2  and  C_3
REMARK    2  A    between atoms: C_3  and  C_4
REMARK    3  A    between atoms: C_4  and  C_5
REMARK    4  A    between atoms: C_5  and  C_6
REMARK    5  A    between atoms: C_6  and  C_7
REMARK    6  A    between atoms: C_7  and  C_8
REMARK    7  A    between atoms: C_9  and  C_10
REMARK    8  A    between atoms: N_20  and  O_21
REMARK                            x       y       z     vdW  Elec       q    Type
REMARK                         _______ _______ _______ _____ _____    ______ ____
ROOT
ATOM      1  C   UNL     1       7.892   8.806  17.719  0.00  0.00    +0.000 C 
ATOM      2  C   UNL     1       8.810   8.996  18.681  0.00  0.00    +0.000 C 
ENDROOT
BRANCH   2   3
ATOM      3  C   UNL     1       9.341  10.317  19.059  0.00  0.00    +0.000 A 
ATOM      4  C   UNL     1       9.453  10.708  20.398  0.00  0.00    +0.000 A 
ATOM      5  C   UNL     1      10.009  11.941  20.739  0.00  0.00    +0.000 A 
ATOM      6  C   UNL     1      10.487  12.807  19.750  0.00  0.00    +0.000 A 
ATOM      7  C   UNL     1      11.068  14.038  20.086  0.00  0.00    +0.000 A 
ATOM      8  C   UNL     1      11.554  14.890  19.097  0.00  0.00    +0.000 A 
ATOM      9  C   UNL     1      11.459  14.522  17.757  0.00  0.00    +0.000 A 
ATOM     10  C   UNL     1      10.880  13.300  17.406  0.00  0.00    +0.000 A 
ATOM     11  C   UNL     1      10.393  12.426  18.392  0.00  0.00    +0.000 A 
ATOM     12  C   UNL     1       9.820  11.181  18.064  0.00  0.00    +0.000 A 
ENDBRANCH   2   3
BRANCH   1  13
ATOM     13  C   UNL     1       7.298   7.473  17.371  0.00  0.00    +0.000 C 
BRANCH  13  14
ATOM     14  C   UNL     1       7.686   6.413  18.400  0.00  0.00    +0.000 C 
BRANCH  14  15
ATOM     15  C   UNL     1       7.374   5.004  17.892  0.00  0.00    +0.000 C 
BRANCH  15  16
ATOM     16  C   UNL     1       6.047   4.974  17.133  0.00  0.00    +0.000 C 
BRANCH  16  17
ATOM     17  C   UNL     1       4.859   4.857  18.085  0.00  0.00    +0.000 C 
BRANCH  17  19
ATOM     18  O   UNL     1       3.793   2.681  17.848  0.00  0.00    +0.000 OA
ATOM     19  C   UNL     1       4.563   3.420  18.458  0.00  0.00    +0.000 C 
ATOM     20  N   UNL     1       5.250   2.993  19.566  0.00  0.00    +0.000 N 
ATOM     21  H   UNL     1       5.875   3.560  20.127  0.00  0.00    +0.000 HD
BRANCH  20  22
ATOM     22  O   UNL     1       5.018   1.667  19.988  0.00  0.00    +0.000 OA
ATOM     23  H   UNL     1       5.367   1.143  19.233  0.00  0.00    +0.000 HD
ENDBRANCH  20  22
ENDBRANCH  17  19
ENDBRANCH  16  17
ENDBRANCH  15  16
ENDBRANCH  14  15
ENDBRANCH  13  14
ENDBRANCH   1  13
TORSDOF 8
ENDMDL
MODEL 2
REMARK VINA RESULT:      -7.6      5.343      7.987
REMARK  Name = 
REMARK  8 active torsions:
REMARK  status: ('A' for Active; 'I' for Inactive)
REMARK    1  A    between atoms: C_2  and  C_3
REMARK    2  A    between atoms: C_3  and  C_4
REMARK    3  A    between atoms: C_4  and  C_5
REMARK    4  A    between atoms: C_5  and  C_6
REMARK    5  A    between atoms: C_6  and  C_7
REMARK    6  A    between atoms: C_7  and  C_8
REMARK    7  A    between atoms: C_9  and  C_10
REMARK    8  A    between atoms: N_20  and  O_21
REMARK                            x       y       z     vdW  Elec       q    Type
REMARK                         _______ _______ _______ _____ _____    ______ ____
ROOT
ATOM      1  C   UNL     1       3.224   5.519  18.664  0.00  0.00    +0.000 C 
ATOM      2  C   UNL     1       2.955   6.680  18.046  0.00  0.00    +0.000 C 
ENDROOT
BRANCH   2   3
ATOM      3  C   UNL     1       2.224   7.793  18.675  0.00  0.00    +0.000 A 
ATOM      4  C   UNL     1       1.751   8.878  17.928  0.00  0.00    +0.000 A 
ATOM      5  C   UNL     1       1.013   9.896  18.531  0.00  0.00    +0.000 A 
ATOM      6  C   UNL     1       0.710   9.845  19.896  0.00  0.00    +0.000 A 
ATOM      7  C   UNL     1      -0.051  10.854  20.505  0.00  0.00    +0.000 A 
ATOM      8  C   UNL     1      -0.360  10.791  21.862  0.00  0.00    +0.000 A 
ATOM      9  C   UNL     1       0.095   9.720  22.628  0.00  0.00    +0.000 A 
ATOM     10  C   UNL     1       0.856   8.709  22.036  0.00  0.00    +0.000 A 
ATOM     11  C   UNL     1       1.170   8.754  20.667  0.00  0.00    +0.000 A 
ATOM     12  C   UNL     1       1.921   7.738  20.043  0.00  0.00    +0.000 A 
ENDBRANCH   2   3
BRANCH   1  13
ATOM     13  C   UNL     1       4.023   4.404  18.055  0.00  0.00    +0.000 C 
BRANCH  13  14
ATOM     14  C   UNL     1       4.644   4.835  16.727  0.00  0.00    +0.000 C 
BRANCH  14  15
ATOM     15  C   UNL     1       5.914   4.038  16.422  0.00  0.00    +0.000 C 
BRANCH  15  16
ATOM     16  C   UNL     1       7.150   4.938  16.454  0.00  0.00    +0.000 C 
BRANCH  16  17
ATOM     17  C   UNL     1       6.861   6.261  17.160  0.00  0.00    +0.000 C 
BRANCH  17  19
ATOM     18  O   UNL     1       8.411   7.306  18.721  0.00  0.00    +0.000 OA
ATOM     19  C   UNL     1       7.627   6.396  18.459  0.00  0.00    +0.000 C 
ATOM     20  N   UNL     1       7.365   5.388  19.353  0.00  0.00    +0.000 N 
ATOM     21  H   UNL     1       6.753   4.598  19.186  0.00  0.00    +0.000 HD
BRANCH  20  22
ATOM     22  O   UNL     1       8.050   5.434  20.584  0.00  0.00    +0.000 OA
ATOM     23  H   UNL     1       8.470   4.546  20.623  0.00  0.00    +0.000 HD
ENDBRANCH  20  22
ENDBRANCH  17  19
ENDBRANCH  16  17
ENDBRANCH  15  16
ENDBRANCH  14  15
ENDBRANCH  13  14
ENDBRANCH   1  13
TORSDOF 8
ENDMDL
MODEL 3
REMARK VINA RESULT:      -7.5      1.918      1.992
REMARK  Name = 
REMARK  8 active torsions:
REMARK  status: ('A' for Active; 'I' for Inactive)
REMARK    1  A    between atoms: C_2  and  C_3
REMARK    2  A    between atoms: C_3  and  C_4
REMARK    3  A    between atoms: C_4  and  C_5
REMARK    4  A    between atoms: C_5  and  C_6
REMARK    5  A    between atoms: C_6  and  C_7
REMARK    6  A    between atoms: C_7  and  C_8
REMARK    7  A    between atoms: C_9  and  C_10
REMARK    8  A    between atoms: N_20  and  O_21
REMARK                            x       y       z     vdW  Elec       q    Type
REMARK                         _______ _______ _______ _____ _____    ______ ____
ROOT
ATOM      1  C   UNL     1       8.084   8.843  17.783  0.00  0.00    +0.000 C 
ATOM      2  C   UNL     1       8.850   9.147  18.844  0.00  0.00    +0.000 C 
ENDROOT
BRANCH   2   3
ATOM      3  C   UNL     1       9.438  10.476  19.077  0.00  0.00    +0.000 A 
ATOM      4  C   UNL     1       9.641  10.974  20.369  0.00  0.00    +0.000 A 
ATOM      5  C   UNL     1      10.249  12.213  20.572  0.00  0.00    +0.000 A 
ATOM      6  C   UNL     1      10.690  12.978  19.487  0.00  0.00    +0.000 A 
ATOM      7  C   UNL     1      11.323  14.214  19.684  0.00  0.00    +0.000 A 
ATOM      8  C   UNL     1      11.772  14.964  18.599  0.00  0.00    +0.000 A 
ATOM      9  C   UNL     1      11.586  14.490  17.303  0.00  0.00    +0.000 A 
ATOM     10  C   UNL     1      10.955  13.262  17.091  0.00  0.00    +0.000 A 
ATOM     11  C   UNL     1      10.504  12.489  18.174  0.00  0.00    +0.000 A 
ATOM     12  C   UNL     1       9.879  11.239  17.987  0.00  0.00    +0.000 A 
ENDBRANCH   2   3
BRANCH   1  13
ATOM     13  C   UNL     1       7.428   7.510  17.568  0.00  0.00    +0.000 C 
BRANCH  13  14
ATOM     14  C   UNL     1       7.880   6.500  18.623  0.00  0.00    +0.000 C 
BRANCH  14  15
ATOM     15  C   UNL     1       6.952   5.285  18.662  0.00  0.00    +0.000 C 
BRANCH  15  16
ATOM     16  C   UNL     1       5.501   5.693  18.402  0.00  0.00    +0.000 C 
BRANCH  16  17
ATOM     17  C   UNL     1       4.793   4.694  17.490  0.00  0.00    +0.000 C 
BRANCH  17  19
ATOM     18  O   UNL     1       5.350   5.698  15.342  0.00  0.00    +0.000 OA
ATOM     19  C   UNL     1       5.345   4.715  16.081  0.00  0.00    +0.000 C 
ATOM     20  N   UNL     1       5.861   3.507  15.681  0.00  0.00    +0.000 N 
ATOM     21  H   UNL     1       5.861   2.656  16.230  0.00  0.00    +0.000 HD
BRANCH  20  22
ATOM     22  O   UNL     1       6.384   3.439  14.373  0.00  0.00    +0.000 OA
ATOM     23  H   UNL     1       5.690   3.894  13.846  0.00  0.00    +0.000 HD
ENDBRANCH  20  22
ENDBRANCH  17  19
ENDBRANCH  16  17
ENDBRANCH  15  16
ENDBRANCH  14  15
ENDBRANCH  13  14
ENDBRANCH   1  13
TORSDOF 8
ENDMDL
MODEL 4
REMARK VINA RESULT:      -7.5      5.329     10.239
REMARK  Name = 
REMARK  8 active torsions:
REMARK  status: ('A' for Active; 'I' for Inactive)
REMARK    1  A    between atoms: C_2  and  C_3
REMARK    2  A    between atoms: C_3  and  C_4
REMARK    3  A    between atoms: C_4  and  C_5
REMARK    4  A    between atoms: C_5  and  C_6
REMARK    5  A    between atoms: C_6  and  C_7
REMARK    6  A    between atoms: C_7  and  C_8
REMARK    7  A    between atoms: C_9  and  C_10
REMARK    8  A    between atoms: N_20  and  O_21
REMARK                            x       y       z     vdW  Elec       q    Type
REMARK                         _______ _______ _______ _____ _____    ______ ____
ROOT
ATOM      1  C   UNL     1       7.470   7.601  17.598  0.00  0.00    +0.000 C 
ATOM      2  C   UNL     1       6.206   7.527  17.149  0.00  0.00    +0.000 C 
ENDROOT
BRANCH   2   3
ATOM      3  C   UNL     1       5.407   6.290  17.151  0.00  0.00    +0.000 A 
ATOM      4  C   UNL     1       5.893   5.101  16.595  0.00  0.00    +0.000 A 
ATOM      5  C   UNL     1       5.146   3.925  16.654  0.00  0.00    +0.000 A 
ATOM      6  C   UNL     1       3.900   3.902  17.291  0.00  0.00    +0.000 A 
ATOM      7  C   UNL     1       3.152   2.719  17.374  0.00  0.00    +0.000 A 
ATOM      8  C   UNL     1       1.918   2.700  18.020  0.00  0.00    +0.000 A 
ATOM      9  C   UNL     1       1.414   3.869  18.586  0.00  0.00    +0.000 A 
ATOM     10  C   UNL     1       2.146   5.056  18.508  0.00  0.00    +0.000 A 
ATOM     11  C   UNL     1       3.396   5.090  17.867  0.00  0.00    +0.000 A 
ATOM     12  C   UNL     1       4.160   6.271  17.790  0.00  0.00    +0.000 A 
ENDBRANCH   2   3
BRANCH   1  13
ATOM     13  C   UNL     1       8.271   8.869  17.660  0.00  0.00    +0.000 C 
BRANCH  13  14
ATOM     14  C   UNL     1       8.701   9.176  19.094  0.00  0.00    +0.000 C 
BRANCH  14  15
ATOM     15  C   UNL     1       9.695  10.338  19.140  0.00  0.00    +0.000 C 
BRANCH  15  16
ATOM     16  C   UNL     1       9.414  11.347  18.025  0.00  0.00    +0.000 C 
BRANCH  16  17
ATOM     17  C   UNL     1      10.689  12.053  17.573  0.00  0.00    +0.000 C 
BRANCH  17  19
ATOM     18  O   UNL     1       9.708  14.254  17.928  0.00  0.00    +0.000 OA
ATOM     19  C   UNL     1      10.459  13.522  17.286  0.00  0.00    +0.000 C 
ATOM     20  N   UNL     1      11.183  13.987  16.217  0.00  0.00    +0.000 N 
ATOM     21  H   UNL     1      11.795  13.430  15.633  0.00  0.00    +0.000 HD
BRANCH  20  22
ATOM     22  O   UNL     1      11.014  15.345  15.875  0.00  0.00    +0.000 OA
ATOM     23  H   UNL     1      10.833  15.297  14.910  0.00  0.00    +0.000 HD
ENDBRANCH  20  22
ENDBRANCH  17  19
ENDBRANCH  16  17
ENDBRANCH  15  16
ENDBRANCH  14  15
ENDBRANCH  13  14
ENDBRANCH   1  13
TORSDOF 8
ENDMDL
MODEL 5
REMARK VINA RESULT:      -7.4      5.128     10.216
REMARK  Name = 
REMARK  8 active torsions:
REMARK  status: ('A' for Active; 'I' for Inactive)
REMARK    1  A    between atoms: C_2  and  C_3
REMARK    2  A    between atoms: C_3  and  C_4
REMARK    3  A    between atoms: C_4  and  C_5
REMARK    4  A    between atoms: C_5  and  C_6
REMARK    5  A    between atoms: C_6  and  C_7
REMARK    6  A    between atoms: C_7  and  C_8
REMARK    7  A    between atoms: C_9  and  C_10
REMARK    8  A    between atoms: N_20  and  O_21
REMARK                            x       y       z     vdW  Elec       q    Type
REMARK                         _______ _______ _______ _____ _____    ______ ____
ROOT
ATOM      1  C   UNL     1       7.002   7.164  17.856  0.00  0.00    +0.000 C 
ATOM      2  C   UNL     1       5.792   7.174  17.274  0.00  0.00    +0.000 C 
ENDROOT
BRANCH   2   3
ATOM      3  C   UNL     1       4.662   6.341  17.718  0.00  0.00    +0.000 A 
ATOM      4  C   UNL     1       3.390   6.883  17.933  0.00  0.00    +0.000 A 
ATOM      5  C   UNL     1       2.317   6.071  18.301  0.00  0.00    +0.000 A 
ATOM      6  C   UNL     1       2.486   4.689  18.443  0.00  0.00    +0.000 A 
ATOM      7  C   UNL     1       1.407   3.862  18.791  0.00  0.00    +0.000 A 
ATOM      8  C   UNL     1       1.579   2.485  18.917  0.00  0.00    +0.000 A 
ATOM      9  C   UNL     1       2.833   1.920  18.704  0.00  0.00    +0.000 A 
ATOM     10  C   UNL     1       3.918   2.730  18.360  0.00  0.00    +0.000 A 
ATOM     11  C   UNL     1       3.760   4.120  18.220  0.00  0.00    +0.000 A 
ATOM     12  C   UNL     1       4.834   4.957  17.858  0.00  0.00    +0.000 A 
ENDBRANCH   2   3
BRANCH   1  13
ATOM     13  C   UNL     1       8.141   8.054  17.452  0.00  0.00    +0.000 C 
BRANCH  13  14
ATOM     14  C   UNL     1       8.541   8.987  18.595  0.00  0.00    +0.000 C 
BRANCH  14  15
ATOM     15  C   UNL     1       9.350  10.180  18.083  0.00  0.00    +0.000 C 
BRANCH  15  16
ATOM     16  C   UNL     1       9.764  11.098  19.234  0.00  0.00    +0.000 C 
BRANCH  16  17
ATOM     17  C   UNL     1      11.149  11.698  19.001  0.00  0.00    +0.000 C 
BRANCH  17  19
ATOM     18  O   UNL     1      10.330  13.513  17.599  0.00  0.00    +0.000 OA
ATOM     19  C   UNL     1      11.172  12.644  17.819  0.00  0.00    +0.000 C 
ATOM     20  N   UNL     1      12.246  12.449  16.987  0.00  0.00    +0.000 N 
ATOM     21  H   UNL     1      12.955  11.734  17.098  0.00  0.00    +0.000 HD
BRANCH  20  22
ATOM     22  O   UNL     1      12.332  13.283  15.853  0.00  0.00    +0.000 OA
ATOM     23  H   UNL     1      12.555  14.154  16.249  0.00  0.00    +0.000 HD
ENDBRANCH  20  22
ENDBRANCH  17  19
ENDBRANCH  16  17
ENDBRANCH  15  16
ENDBRANCH  14  15
ENDBRANCH  13  14
ENDBRANCH   1  13
TORSDOF 8
ENDMDL
MODEL 6
REMARK VINA RESULT:      -7.4      6.984      8.009
REMARK  Name = 
REMARK  8 active torsions:
REMARK  status: ('A' for Active; 'I' for Inactive)
REMARK    1  A    between atoms: C_2  and  C_3
REMARK    2  A    between atoms: C_3  and  C_4
REMARK    3  A    between atoms: C_4  and  C_5
REMARK    4  A    between atoms: C_5  and  C_6
REMARK    5  A    between atoms: C_6  and  C_7
REMARK    6  A    between atoms: C_7  and  C_8
REMARK    7  A    between atoms: C_9  and  C_10
REMARK    8  A    between atoms: N_20  and  O_21
REMARK                            x       y       z     vdW  Elec       q    Type
REMARK                         _______ _______ _______ _____ _____    ______ ____
ROOT
ATOM      1  C   UNL     1       3.811   6.289  18.399  0.00  0.00    +0.000 C 
ATOM      2  C   UNL     1       2.873   7.067  17.835  0.00  0.00    +0.000 C 
ENDROOT
BRANCH   2   3
ATOM      3  C   UNL     1       2.125   8.106  18.562  0.00  0.00    +0.000 A 
ATOM      4  C   UNL     1       1.585   9.218  17.906  0.00  0.00    +0.000 A 
ATOM      5  C   UNL     1       0.832  10.165  18.600  0.00  0.00    +0.000 A 
ATOM      6  C   UNL     1       0.582  10.013  19.969  0.00  0.00    +0.000 A 
ATOM      7  C   UNL     1      -0.192  10.949  20.670  0.00  0.00    +0.000 A 
ATOM      8  C   UNL     1      -0.448  10.785  22.030  0.00  0.00    +0.000 A 
ATOM      9  C   UNL     1       0.075   9.685  22.706  0.00  0.00    +0.000 A 
ATOM     10  C   UNL     1       0.850   8.746  22.022  0.00  0.00    +0.000 A 
ATOM     11  C   UNL     1       1.111   8.892  20.649  0.00  0.00    +0.000 A 
ATOM     12  C   UNL     1       1.876   7.950  19.933  0.00  0.00    +0.000 A 
ENDBRANCH   2   3
BRANCH   1  13
ATOM     13  C   UNL     1       4.624   5.271  17.654  0.00  0.00    +0.000 C 
BRANCH  13  14
ATOM     14  C   UNL     1       4.352   3.861  18.178  0.00  0.00    +0.000 C 
BRANCH  14  15
ATOM     15  C   UNL     1       3.406   3.096  17.250  0.00  0.00    +0.000 C 
BRANCH  15  16
ATOM     16  C   UNL     1       2.254   2.469  18.036  0.00  0.00    +0.000 C 
BRANCH  16  17
ATOM     17  C   UNL     1       1.265   3.526  18.521  0.00  0.00    +0.000 C 
BRANCH  17  19
ATOM     18  O   UNL     1       0.971   4.664  20.654  0.00  0.00    +0.000 OA
ATOM     19  C   UNL     1       1.244   3.640  20.031  0.00  0.00    +0.000 C 
ATOM     20  N   UNL     1       1.562   2.467  20.670  0.00  0.00    +0.000 N 
ATOM     21  H   UNL     1       1.823   1.601  20.215  0.00  0.00    +0.000 HD
BRANCH  20  22
ATOM     22  O   UNL     1       1.578   2.494  22.080  0.00  0.00    +0.000 OA
ATOM     23  H   UNL     1       2.523   2.683  22.275  0.00  0.00    +0.000 HD
ENDBRANCH  20  22
ENDBRANCH  17  19
ENDBRANCH  16  17
ENDBRANCH  15  16
ENDBRANCH  14  15
ENDBRANCH  13  14
ENDBRANCH   1  13
TORSDOF 8
ENDMDL
MODEL 7
REMARK VINA RESULT:      -7.4      2.576      3.025
REMARK  Name = 
REMARK  8 active torsions:
REMARK  status: ('A' for Active; 'I' for Inactive)
REMARK    1  A    between atoms: C_2  and  C_3
REMARK    2  A    between atoms: C_3  and  C_4
REMARK    3  A    between atoms: C_4  and  C_5
REMARK    4  A    between atoms: C_5  and  C_6
REMARK    5  A    between atoms: C_6  and  C_7
REMARK    6  A    between atoms: C_7  and  C_8
REMARK    7  A    between atoms: C_9  and  C_10
REMARK    8  A    between atoms: N_20  and  O_21
REMARK                            x       y       z     vdW  Elec       q    Type
REMARK                         _______ _______ _______ _____ _____    ______ ____
ROOT
ATOM      1  C   UNL     1       8.307   7.824  18.373  0.00  0.00    +0.000 C 
ATOM      2  C   UNL     1       8.150   9.116  18.040  0.00  0.00    +0.000 C 
ENDROOT
BRANCH   2   3
ATOM      3  C   UNL     1       8.998  10.204  18.553  0.00  0.00    +0.000 A 
ATOM      4  C   UNL     1       9.179  10.410  19.926  0.00  0.00    +0.000 A 
ATOM      5  C   UNL     1      10.030  11.411  20.394  0.00  0.00    +0.000 A 
ATOM      6  C   UNL     1      10.741  12.219  19.500  0.00  0.00    +0.000 A 
ATOM      7  C   UNL     1      11.615  13.213  19.963  0.00  0.00    +0.000 A 
ATOM      8  C   UNL     1      12.330  14.006  19.067  0.00  0.00    +0.000 A 
ATOM      9  C   UNL     1      12.172  13.818  17.697  0.00  0.00    +0.000 A 
ATOM     10  C   UNL     1      11.302  12.834  17.220  0.00  0.00    +0.000 A 
ATOM     11  C   UNL     1      10.581  12.021  18.110  0.00  0.00    +0.000 A 
ATOM     12  C   UNL     1       9.710  11.011  17.654  0.00  0.00    +0.000 A 
ENDBRANCH   2   3
BRANCH   1  13
ATOM     13  C   UNL     1       7.489   6.700  17.806  0.00  0.00    +0.000 C 
BRANCH  13  14
ATOM     14  C   UNL     1       6.179   7.219  17.216  0.00  0.00    +0.000 C 
BRANCH  14  15
ATOM     15  C   UNL     1       5.456   6.128  16.423  0.00  0.00    +0.000 C 
BRANCH  15  16
ATOM     16  C   UNL     1       5.895   4.735  16.877  0.00  0.00    +0.000 C 
BRANCH  16  17
ATOM     17  C   UNL     1       5.928   3.750  15.712  0.00  0.00    +0.000 C 
BRANCH  17  19
ATOM     18  O   UNL     1       7.544   5.182  14.585  0.00  0.00    +0.000 OA
ATOM     19  C   UNL     1       6.697   4.292  14.526  0.00  0.00    +0.000 C 
ATOM     20  N   UNL     1       6.365   3.687  13.339  0.00  0.00    +0.000 N 
ATOM     21  H   UNL     1       5.659   2.970  13.221  0.00  0.00    +0.000 HD
BRANCH  20  22
ATOM     22  O   UNL     1       7.028   4.146  12.182  0.00  0.00    +0.000 OA
ATOM     23  H   UNL     1       6.975   5.122  12.284  0.00  0.00    +0.000 HD
ENDBRANCH  20  22
ENDBRANCH  17  19
ENDBRANCH  16  17
ENDBRANCH  15  16
ENDBRANCH  14  15
ENDBRANCH  13  14
ENDBRANCH   1  13
TORSDOF 8
ENDMDL
MODEL 8
REMARK VINA RESULT:      -7.4      5.153     10.265
REMARK  Name = 
REMARK  8 active torsions:
REMARK  status: ('A' for Active; 'I' for Inactive)
REMARK    1  A    between atoms: C_2  and  C_3
REMARK    2  A    between atoms: C_3  and  C_4
REMARK    3  A    between atoms: C_4  and  C_5
REMARK    4  A    between atoms: C_5  and  C_6
REMARK    5  A    between atoms: C_6  and  C_7
REMARK    6  A    between atoms: C_7  and  C_8
REMARK    7  A    between atoms: C_9  and  C_10
REMARK    8  A    between atoms: N_20  and  O_21
REMARK                            x       y       z     vdW  Elec       q    Type
REMARK                         _______ _______ _______ _____ _____    ______ ____
ROOT
ATOM      1  C   UNL     1       6.595   6.277  18.123  0.00  0.00    +0.000 C 
ATOM      2  C   UNL     1       5.376   6.227  17.561  0.00  0.00    +0.000 C 
ENDROOT
BRANCH   2   3
ATOM      3  C   UNL     1       4.194   5.642  18.216  0.00  0.00    +0.000 A 
ATOM      4  C   UNL     1       2.895   5.947  17.795  0.00  0.00    +0.000 A 
ATOM      5  C   UNL     1       1.788   5.342  18.391  0.00  0.00    +0.000 A 
ATOM      6  C   UNL     1       1.955   4.398  19.411  0.00  0.00    +0.000 A 
ATOM      7  C   UNL     1       0.848   3.768  19.999  0.00  0.00    +0.000 A 
ATOM      8  C   UNL     1       1.021   2.820  21.006  0.00  0.00    +0.000 A 
ATOM      9  C   UNL     1       2.304   2.496  21.439  0.00  0.00    +0.000 A 
ATOM     10  C   UNL     1       3.416   3.116  20.865  0.00  0.00    +0.000 A 
ATOM     11  C   UNL     1       3.259   4.069  19.844  0.00  0.00    +0.000 A 
ATOM     12  C   UNL     1       4.365   4.697  19.237  0.00  0.00    +0.000 A 
ENDBRANCH   2   3
BRANCH   1  13
ATOM     13  C   UNL     1       7.791   6.928  17.492  0.00  0.00    +0.000 C 
BRANCH  13  14
ATOM     14  C   UNL     1       7.646   8.449  17.480  0.00  0.00    +0.000 C 
BRANCH  14  15
ATOM     15  C   UNL     1       8.569   9.104  18.509  0.00  0.00    +0.000 C 
BRANCH  15  16
ATOM     16  C   UNL     1       8.761  10.591  18.209  0.00  0.00    +0.000 C 
BRANCH  16  17
ATOM     17  C   UNL     1      10.056  11.123  18.817  0.00  0.00    +0.000 C 
BRANCH  17  19
ATOM     18  O   UNL     1      10.180  13.417  18.009  0.00  0.00    +0.000 OA
ATOM     19  C   UNL     1      10.632  12.274  18.019  0.00  0.00    +0.000 C 
ATOM     20  N   UNL     1      11.740  11.927  17.287  0.00  0.00    +0.000 N 
ATOM     21  H   UNL     1      12.143  11.000  17.232  0.00  0.00    +0.000 HD
BRANCH  20  22
ATOM     22  O   UNL     1      12.329  12.942  16.504  0.00  0.00    +0.000 OA
ATOM     23  H   UNL     1      12.836  13.454  17.172  0.00  0.00    +0.000 HD
ENDBRANCH  20  22
ENDBRANCH  17  19
ENDBRANCH  16  17
ENDBRANCH  15  16
ENDBRANCH  14  15
ENDBRANCH  13  14
ENDBRANCH   1  13
TORSDOF 8
ENDMDL
MODEL 9
REMARK VINA RESULT:      -7.4      0.761      1.012
REMARK  Name = 
REMARK  8 active torsions:
REMARK  status: ('A' for Active; 'I' for Inactive)
REMARK    1  A    between atoms: C_2  and  C_3
REMARK    2  A    between atoms: C_3  and  C_4
REMARK    3  A    between atoms: C_4  and  C_5
REMARK    4  A    between atoms: C_5  and  C_6
REMARK    5  A    between atoms: C_6  and  C_7
REMARK    6  A    between atoms: C_7  and  C_8
REMARK    7  A    between atoms: C_9  and  C_10
REMARK    8  A    between atoms: N_20  and  O_21
REMARK                            x       y       z     vdW  Elec       q    Type
REMARK                         _______ _______ _______ _____ _____    ______ ____
ROOT
ATOM      1  C   UNL     1       8.029   8.571  17.670  0.00  0.00    +0.000 C 
ATOM      2  C   UNL     1       8.660   8.896  18.810  0.00  0.00    +0.000 C 
ENDROOT
BRANCH   2   3
ATOM      3  C   UNL     1       9.267  10.214  19.063  0.00  0.00    +0.000 A 
ATOM      4  C   UNL     1       9.480  10.687  20.363  0.00  0.00    +0.000 A 
ATOM      5  C   UNL     1      10.107  11.914  20.585  0.00  0.00    +0.000 A 
ATOM      6  C   UNL     1      10.555  12.690  19.511  0.00  0.00    +0.000 A 
ATOM      7  C   UNL     1      11.206  13.914  19.726  0.00  0.00    +0.000 A 
ATOM      8  C   UNL     1      11.662  14.676  18.653  0.00  0.00    +0.000 A 
ATOM      9  C   UNL     1      11.466  14.226  17.350  0.00  0.00    +0.000 A 
ATOM     10  C   UNL     1      10.817  13.011  17.119  0.00  0.00    +0.000 A 
ATOM     11  C   UNL     1      10.358  12.226  18.191  0.00  0.00    +0.000 A 
ATOM     12  C   UNL     1       9.716  10.989  17.985  0.00  0.00    +0.000 A 
ENDBRANCH   2   3
BRANCH   1  13
ATOM     13  C   UNL     1       7.351   7.254  17.427  0.00  0.00    +0.000 C 
BRANCH  13  14
ATOM     14  C   UNL     1       5.856   7.444  17.175  0.00  0.00    +0.000 C 
BRANCH  14  15
ATOM     15  C   UNL     1       5.296   6.333  16.284  0.00  0.00    +0.000 C 
BRANCH  15  16
ATOM     16  C   UNL     1       5.662   4.953  16.831  0.00  0.00    +0.000 C 
BRANCH  16  17
ATOM     17  C   UNL     1       4.541   3.943  16.602  0.00  0.00    +0.000 C 
BRANCH  17  19
ATOM     18  O   UNL     1       3.217   2.472  18.022  0.00  0.00    +0.000 OA
ATOM     19  C   UNL     1       4.243   3.126  17.841  0.00  0.00    +0.000 C 
ATOM     20  N   UNL     1       5.245   3.174  18.778  0.00  0.00    +0.000 N 
ATOM     21  H   UNL     1       6.097   3.715  18.702  0.00  0.00    +0.000 HD
BRANCH  20  22
ATOM     22  O   UNL     1       5.037   2.449  19.970  0.00  0.00    +0.000 OA
ATOM     23  H   UNL     1       4.588   1.637  19.646  0.00  0.00    +0.000 HD
ENDBRANCH  20  22
ENDBRANCH  17  19
ENDBRANCH  16  17
ENDBRANCH  15  16
ENDBRANCH  14  15
ENDBRANCH  13  14
ENDBRANCH   1  13
TORSDOF 8
ENDMDL
