MODEL 1
REMARK VINA RESULT:      -8.5      0.000      0.000
REMARK  Name = 
REMARK  4 active torsions:
REMARK  status: ('A' for Active; 'I' for Inactive)
REMARK    1  A    between atoms: C_1  and  C_2
REMARK    2  A    between atoms: C_6  and  C_7
REMARK    3  A    between atoms: C_7  and  N_8
REMARK    4  A    between atoms: C_17  and  C_19
REMARK                            x       y       z     vdW  Elec       q    Type
REMARK                         _______ _______ _______ _____ _____    ______ ____
ROOT
ATOM      1  N   UNL     1       1.397   5.041  19.305  0.00  0.00    +0.000 NA
ATOM      2  C   UNL     1       1.928   4.678  17.954  0.00  0.00    +0.000 C 
ATOM      3  C   UNL     1       3.120   3.650  17.838  0.00  0.00    +0.000 C 
ATOM      4  C   UNL     1       2.723   2.166  17.875  0.00  0.00    +0.000 C 
ATOM      5  C   UNL     1       2.268   1.698  19.254  0.00  0.00    +0.000 C 
ATOM      6  C   UNL     1       2.305   2.835  20.288  0.00  0.00    +0.000 C 
ATOM      7  C   UNL     1       1.150   3.837  20.075  0.00  0.00    +0.000 C 
ATOM      8  C   UNL     1       3.714   3.462  20.250  0.00  0.00    +0.000 C 
ATOM      9  N   UNL     1       4.122   3.878  18.890  0.00  0.00    +0.000 N 
ATOM     10  C   UNL     1       5.181   4.787  18.725  0.00  0.00    +0.000 C 
ATOM     11  O   UNL     1       5.664   5.414  19.664  0.00  0.00    +0.000 OA
ENDROOT
BRANCH  10  12
ATOM     12  C   UNL     1       5.741   4.988  17.356  0.00  0.00    +0.000 A 
ATOM     13  N   UNL     1       6.710   4.118  16.946  0.00  0.00    +0.000 NA
ATOM     14  C   UNL     1       7.067   4.205  15.643  0.00  0.00    +0.000 A 
ATOM     15  C   UNL     1       6.521   5.119  14.751  0.00  0.00    +0.000 A 
ATOM     16  F   UNL     1       6.893   5.127  13.461  0.00  0.00    +0.000 F 
ATOM     17  C   UNL     1       5.545   5.997  15.197  0.00  0.00    +0.000 A 
ATOM     18  C   UNL     1       5.148   5.930  16.519  0.00  0.00    +0.000 A 
ATOM     19  F   UNL     1       4.199   6.756  16.965  0.00  0.00    +0.000 F 
ENDBRANCH  10  12
BRANCH   1  20
ATOM     20  C   UNL     1       2.172   6.153  19.896  0.00  0.00    +0.000 C 
BRANCH  20  26
ATOM     21  C   UNL     1       1.519   9.262  18.107  0.00  0.00    +0.000 C 
ATOM     22  C   UNL     1       1.480   8.795  19.513  0.00  0.00    +0.000 A 
ATOM     23  N   UNL     1       1.198   9.785  20.445  0.00  0.00    +0.000 NA
ATOM     24  C   UNL     1       1.234   9.211  21.615  0.00  0.00    +0.000 A 
ATOM     25  N   UNL     1       1.483   7.884  21.488  0.00  0.00    +0.000 N 
ATOM     26  C   UNL     1       1.703   7.569  20.135  0.00  0.00    +0.000 A 
ATOM     27  H   UNL     1       1.531   7.225  22.255  0.00  0.00    +0.000 HD
ENDBRANCH  20  26
ENDBRANCH   1  20
TORSDOF 3
ENDMDL
MODEL 2
REMARK VINA RESULT:      -8.4      0.599      1.172
REMARK  Name = 
REMARK  4 active torsions:
REMARK  status: ('A' for Active; 'I' for Inactive)
REMARK    1  A    between atoms: C_1  and  C_2
REMARK    2  A    between atoms: C_6  and  C_7
REMARK    3  A    between atoms: C_7  and  N_8
REMARK    4  A    between atoms: C_17  and  C_19
REMARK                            x       y       z     vdW  Elec       q    Type
REMARK                         _______ _______ _______ _____ _____    ______ ____
ROOT
ATOM      1  N   UNL     1       1.395   5.095  19.271  0.00  0.00    +0.000 NA
ATOM      2  C   UNL     1       1.928   4.711  17.926  0.00  0.00    +0.000 C 
ATOM      3  C   UNL     1       3.111   3.671  17.827  0.00  0.00    +0.000 C 
ATOM      4  C   UNL     1       2.701   2.192  17.882  0.00  0.00    +0.000 C 
ATOM      5  C   UNL     1       2.239   1.745  19.265  0.00  0.00    +0.000 C 
ATOM      6  C   UNL     1       2.283   2.894  20.285  0.00  0.00    +0.000 C 
ATOM      7  C   UNL     1       1.136   3.903  20.055  0.00  0.00    +0.000 C 
ATOM      8  C   UNL     1       3.696   3.509  20.243  0.00  0.00    +0.000 C 
ATOM      9  N   UNL     1       4.112   3.904  18.879  0.00  0.00    +0.000 N 
ATOM     10  C   UNL     1       5.179   4.803  18.705  0.00  0.00    +0.000 C 
ATOM     11  O   UNL     1       5.664   5.438  19.638  0.00  0.00    +0.000 OA
ENDROOT
BRANCH  10  12
ATOM     12  C   UNL     1       5.745   4.982  17.336  0.00  0.00    +0.000 A 
ATOM     13  N   UNL     1       6.715   4.105  16.944  0.00  0.00    +0.000 NA
ATOM     14  C   UNL     1       7.077   4.170  15.641  0.00  0.00    +0.000 A 
ATOM     15  C   UNL     1       6.535   5.070  14.733  0.00  0.00    +0.000 A 
ATOM     16  F   UNL     1       6.913   5.058  13.444  0.00  0.00    +0.000 F 
ATOM     17  C   UNL     1       5.559   5.956  15.161  0.00  0.00    +0.000 A 
ATOM     18  C   UNL     1       5.156   5.911  16.482  0.00  0.00    +0.000 A 
ATOM     19  F   UNL     1       4.206   6.744  16.911  0.00  0.00    +0.000 F 
ENDBRANCH  10  12
BRANCH   1  20
ATOM     20  C   UNL     1       2.178   6.208  19.850  0.00  0.00    +0.000 C 
BRANCH  20  26
ATOM     21  C   UNL     1       0.883   8.854  21.999  0.00  0.00    +0.000 C 
ATOM     22  C   UNL     1       1.303   8.718  20.585  0.00  0.00    +0.000 A 
ATOM     23  N   UNL     1       1.098   9.852  19.809  0.00  0.00    +0.000 NA
ATOM     24  C   UNL     1       1.490   9.548  18.603  0.00  0.00    +0.000 A 
ATOM     25  N   UNL     1       1.980   8.285  18.564  0.00  0.00    +0.000 N 
ATOM     26  C   UNL     1       1.834   7.678  19.825  0.00  0.00    +0.000 A 
ATOM     27  H   UNL     1       2.368   7.836  17.744  0.00  0.00    +0.000 HD
ENDBRANCH  20  26
ENDBRANCH   1  20
TORSDOF 3
ENDMDL
MODEL 3
REMARK VINA RESULT:      -7.9      1.259      1.765
REMARK  Name = 
REMARK  4 active torsions:
REMARK  status: ('A' for Active; 'I' for Inactive)
REMARK    1  A    between atoms: C_1  and  C_2
REMARK    2  A    between atoms: C_6  and  C_7
REMARK    3  A    between atoms: C_7  and  N_8
REMARK    4  A    between atoms: C_17  and  C_19
REMARK                            x       y       z     vdW  Elec       q    Type
REMARK                         _______ _______ _______ _____ _____    ______ ____
ROOT
ATOM      1  N   UNL     1       1.464   5.080  19.147  0.00  0.00    +0.000 NA
ATOM      2  C   UNL     1       1.952   4.552  17.835  0.00  0.00    +0.000 C 
ATOM      3  C   UNL     1       3.104   3.473  17.812  0.00  0.00    +0.000 C 
ATOM      4  C   UNL     1       2.654   2.018  18.019  0.00  0.00    +0.000 C 
ATOM      5  C   UNL     1       2.213   1.722  19.450  0.00  0.00    +0.000 C 
ATOM      6  C   UNL     1       2.315   2.962  20.351  0.00  0.00    +0.000 C 
ATOM      7  C   UNL     1       1.191   3.978  20.050  0.00  0.00    +0.000 C 
ATOM      8  C   UNL     1       3.743   3.528  20.219  0.00  0.00    +0.000 C 
ATOM      9  N   UNL     1       4.136   3.776  18.814  0.00  0.00    +0.000 N 
ATOM     10  C   UNL     1       5.224   4.621  18.531  0.00  0.00    +0.000 C 
ATOM     11  O   UNL     1       5.749   5.328  19.386  0.00  0.00    +0.000 OA
ENDROOT
BRANCH  10  12
ATOM     12  C   UNL     1       5.760   4.649  17.138  0.00  0.00    +0.000 A 
ATOM     13  N   UNL     1       4.885   4.970  16.140  0.00  0.00    +0.000 NA
ATOM     14  C   UNL     1       5.432   5.169  14.919  0.00  0.00    +0.000 A 
ATOM     15  C   UNL     1       6.789   5.047  14.650  0.00  0.00    +0.000 A 
ATOM     16  F   UNL     1       7.272   5.296  13.422  0.00  0.00    +0.000 F 
ATOM     17  C   UNL     1       7.654   4.712  15.680  0.00  0.00    +0.000 A 
ATOM     18  C   UNL     1       7.132   4.511  16.944  0.00  0.00    +0.000 A 
ATOM     19  F   UNL     1       7.949   4.202  17.954  0.00  0.00    +0.000 F 
ENDBRANCH  10  12
BRANCH   1  20
ATOM     20  C   UNL     1       2.292   6.220  19.598  0.00  0.00    +0.000 C 
BRANCH  20  26
ATOM     21  C   UNL     1       0.874   8.854  21.684  0.00  0.00    +0.000 C 
ATOM     22  C   UNL     1       1.355   8.721  20.288  0.00  0.00    +0.000 A 
ATOM     23  N   UNL     1       1.169   9.850  19.501  0.00  0.00    +0.000 NA
ATOM     24  C   UNL     1       1.615   9.549  18.314  0.00  0.00    +0.000 A 
ATOM     25  N   UNL     1       2.123   8.291  18.300  0.00  0.00    +0.000 N 
ATOM     26  C   UNL     1       1.931   7.686  19.555  0.00  0.00    +0.000 A 
ATOM     27  H   UNL     1       2.550   7.846  17.498  0.00  0.00    +0.000 HD
ENDBRANCH  20  26
ENDBRANCH   1  20
TORSDOF 3
ENDMDL
MODEL 4
REMARK VINA RESULT:      -7.8      1.092      1.300
REMARK  Name = 
REMARK  4 active torsions:
REMARK  status: ('A' for Active; 'I' for Inactive)
REMARK    1  A    between atoms: C_1  and  C_2
REMARK    2  A    between atoms: C_6  and  C_7
REMARK    3  A    between atoms: C_7  and  N_8
REMARK    4  A    between atoms: C_17  and  C_19
REMARK                            x       y       z     vdW  Elec       q    Type
REMARK                         _______ _______ _______ _____ _____    ______ ____
ROOT
ATOM      1  N   UNL     1       1.450   5.093  19.124  0.00  0.00    +0.000 NA
ATOM      2  C   UNL     1       1.953   4.552  17.822  0.00  0.00    +0.000 C 
ATOM      3  C   UNL     1       3.119   3.487  17.823  0.00  0.00    +0.000 C 
ATOM      4  C   UNL     1       2.687   2.030  18.050  0.00  0.00    +0.000 C 
ATOM      5  C   UNL     1       2.241   1.750  19.482  0.00  0.00    +0.000 C 
ATOM      6  C   UNL     1       2.320   3.004  20.365  0.00  0.00    +0.000 C 
ATOM      7  C   UNL     1       1.185   4.001  20.041  0.00  0.00    +0.000 C 
ATOM      8  C   UNL     1       3.742   3.587  20.233  0.00  0.00    +0.000 C 
ATOM      9  N   UNL     1       4.140   3.819  18.827  0.00  0.00    +0.000 N 
ATOM     10  C   UNL     1       5.219   4.674  18.537  0.00  0.00    +0.000 C 
ATOM     11  O   UNL     1       5.729   5.401  19.385  0.00  0.00    +0.000 OA
ENDROOT
BRANCH  10  12
ATOM     12  C   UNL     1       5.764   4.689  17.148  0.00  0.00    +0.000 A 
ATOM     13  N   UNL     1       4.898   5.014  16.143  0.00  0.00    +0.000 NA
ATOM     14  C   UNL     1       5.455   5.200  14.924  0.00  0.00    +0.000 A 
ATOM     15  C   UNL     1       6.812   5.061  14.664  0.00  0.00    +0.000 A 
ATOM     16  F   UNL     1       7.305   5.297  13.437  0.00  0.00    +0.000 F 
ATOM     17  C   UNL     1       7.666   4.720  15.701  0.00  0.00    +0.000 A 
ATOM     18  C   UNL     1       7.135   4.532  16.963  0.00  0.00    +0.000 A 
ATOM     19  F   UNL     1       7.942   4.220  17.979  0.00  0.00    +0.000 F 
ENDBRANCH  10  12
BRANCH   1  20
ATOM     20  C   UNL     1       2.259   6.250  19.562  0.00  0.00    +0.000 C 
BRANCH  20  26
ATOM     21  C   UNL     1       1.461   9.508  18.133  0.00  0.00    +0.000 C 
ATOM     22  C   UNL     1       1.480   8.894  19.482  0.00  0.00    +0.000 A 
ATOM     23  N   UNL     1       1.199   9.771  20.521  0.00  0.00    +0.000 NA
ATOM     24  C   UNL     1       1.288   9.078  21.622  0.00  0.00    +0.000 A 
ATOM     25  N   UNL     1       1.571   7.781  21.348  0.00  0.00    +0.000 N 
ATOM     26  C   UNL     1       1.758   7.617  19.963  0.00  0.00    +0.000 A 
ATOM     27  H   UNL     1       1.662   7.047  22.038  0.00  0.00    +0.000 HD
ENDBRANCH  20  26
ENDBRANCH   1  20
TORSDOF 3
ENDMDL
MODEL 5
REMARK VINA RESULT:      -7.6      2.316      6.038
REMARK  Name = 
REMARK  4 active torsions:
REMARK  status: ('A' for Active; 'I' for Inactive)
REMARK    1  A    between atoms: C_1  and  C_2
REMARK    2  A    between atoms: C_6  and  C_7
REMARK    3  A    between atoms: C_7  and  N_8
REMARK    4  A    between atoms: C_17  and  C_19
REMARK                            x       y       z     vdW  Elec       q    Type
REMARK                         _______ _______ _______ _____ _____    ______ ____
ROOT
ATOM      1  N   UNL     1       4.602   4.050  19.637  0.00  0.00    +0.000 NA
ATOM      2  C   UNL     1       3.356   4.527  20.315  0.00  0.00    +0.000 C 
ATOM      3  C   UNL     1       2.126   4.993  19.442  0.00  0.00    +0.000 C 
ATOM      4  C   UNL     1       1.203   3.870  18.943  0.00  0.00    +0.000 C 
ATOM      5  C   UNL     1       1.834   3.013  17.849  0.00  0.00    +0.000 C 
ATOM      6  C   UNL     1       3.260   3.473  17.510  0.00  0.00    +0.000 C 
ATOM      7  C   UNL     1       4.264   3.078  18.615  0.00  0.00    +0.000 C 
ATOM      8  C   UNL     1       3.209   4.982  17.199  0.00  0.00    +0.000 C 
ATOM      9  N   UNL     1       2.568   5.770  18.275  0.00  0.00    +0.000 N 
ATOM     10  C   UNL     1       2.768   7.161  18.339  0.00  0.00    +0.000 C 
ATOM     11  O   UNL     1       3.613   7.736  17.659  0.00  0.00    +0.000 OA
ENDROOT
BRANCH  10  12
ATOM     12  C   UNL     1       1.912   7.962  19.262  0.00  0.00    +0.000 A 
ATOM     13  N   UNL     1       1.914   7.604  20.580  0.00  0.00    +0.000 NA
ATOM     14  C   UNL     1       1.281   8.454  21.422  0.00  0.00    +0.000 A 
ATOM     15  C   UNL     1       0.642   9.617  21.010  0.00  0.00    +0.000 A 
ATOM     16  F   UNL     1       0.064  10.437  21.904  0.00  0.00    +0.000 F 
ATOM     17  C   UNL     1       0.648   9.951  19.665  0.00  0.00    +0.000 A 
ATOM     18  C   UNL     1       1.294   9.112  18.777  0.00  0.00    +0.000 A 
ATOM     19  F   UNL     1       1.326   9.423  17.480  0.00  0.00    +0.000 F 
ENDBRANCH  10  12
BRANCH   1  20
ATOM     20  C   UNL     1       5.494   5.184  19.315  0.00  0.00    +0.000 C 
BRANCH  20  26
ATOM     21  C   UNL     1       7.342   7.715  17.450  0.00  0.00    +0.000 C 
ATOM     22  C   UNL     1       7.067   6.264  17.324  0.00  0.00    +0.000 A 
ATOM     23  N   UNL     1       7.559   5.681  16.163  0.00  0.00    +0.000 NA
ATOM     24  C   UNL     1       7.204   4.427  16.203  0.00  0.00    +0.000 A 
ATOM     25  N   UNL     1       6.542   4.154  17.353  0.00  0.00    +0.000 N 
ATOM     26  C   UNL     1       6.380   5.335  18.101  0.00  0.00    +0.000 A 
ATOM     27  H   UNL     1       6.192   3.243  17.622  0.00  0.00    +0.000 HD
ENDBRANCH  20  26
ENDBRANCH   1  20
TORSDOF 3
ENDMDL
MODEL 6
REMARK VINA RESULT:      -7.0      1.443      1.806
REMARK  Name = 
REMARK  4 active torsions:
REMARK  status: ('A' for Active; 'I' for Inactive)
REMARK    1  A    between atoms: C_1  and  C_2
REMARK    2  A    between atoms: C_6  and  C_7
REMARK    3  A    between atoms: C_7  and  N_8
REMARK    4  A    between atoms: C_17  and  C_19
REMARK                            x       y       z     vdW  Elec       q    Type
REMARK                         _______ _______ _______ _____ _____    ______ ____
ROOT
ATOM      1  N   UNL     1       1.413   4.878  19.174  0.00  0.00    +0.000 NA
ATOM      2  C   UNL     1       1.918   4.277  17.900  0.00  0.00    +0.000 C 
ATOM      3  C   UNL     1       3.110   3.242  17.949  0.00  0.00    +0.000 C 
ATOM      4  C   UNL     1       2.717   1.790  18.262  0.00  0.00    +0.000 C 
ATOM      5  C   UNL     1       2.291   1.581  19.712  0.00  0.00    +0.000 C 
ATOM      6  C   UNL     1       2.346   2.885  20.522  0.00  0.00    +0.000 C 
ATOM      7  C   UNL     1       1.184   3.834  20.154  0.00  0.00    +0.000 C 
ATOM      8  C   UNL     1       3.752   3.493  20.343  0.00  0.00    +0.000 C 
ATOM      9  N   UNL     1       4.132   3.656  18.922  0.00  0.00    +0.000 N 
ATOM     10  C   UNL     1       5.186   4.519  18.574  0.00  0.00    +0.000 C 
ATOM     11  O   UNL     1       5.685   5.305  19.374  0.00  0.00    +0.000 OA
ENDROOT
BRANCH  10  12
ATOM     12  C   UNL     1       5.718   4.468  17.180  0.00  0.00    +0.000 A 
ATOM     13  N   UNL     1       4.806   4.486  16.164  0.00  0.00    +0.000 NA
ATOM     14  C   UNL     1       5.315   4.625  14.918  0.00  0.00    +0.000 A 
ATOM     15  C   UNL     1       6.673   4.728  14.644  0.00  0.00    +0.000 A 
ATOM     16  F   UNL     1       7.109   4.903  13.386  0.00  0.00    +0.000 F 
ATOM     17  C   UNL     1       7.577   4.698  15.694  0.00  0.00    +0.000 A 
ATOM     18  C   UNL     1       7.093   4.566  16.982  0.00  0.00    +0.000 A 
ATOM     19  F   UNL     1       7.946   4.551  18.009  0.00  0.00    +0.000 F 
ENDBRANCH  10  12
BRANCH   1  20
ATOM     20  C   UNL     1       2.197   6.078  19.539  0.00  0.00    +0.000 C 
BRANCH  20  26
ATOM     21  C   UNL     1       4.110   7.697  16.890  0.00  0.00    +0.000 C 
ATOM     22  C   UNL     1       3.005   8.066  17.806  0.00  0.00    +0.000 A 
ATOM     23  N   UNL     1       2.606   9.394  17.727  0.00  0.00    +0.000 NA
ATOM     24  C   UNL     1       1.660   9.547  18.611  0.00  0.00    +0.000 A 
ATOM     25  N   UNL     1       1.393   8.373  19.233  0.00  0.00    +0.000 N 
ATOM     26  C   UNL     1       2.282   7.381  18.779  0.00  0.00    +0.000 A 
ATOM     27  H   UNL     1       0.680   8.237  19.939  0.00  0.00    +0.000 HD
ENDBRANCH  20  26
ENDBRANCH   1  20
TORSDOF 3
ENDMDL
MODEL 7
REMARK VINA RESULT:      -6.8      2.445      6.040
REMARK  Name = 
REMARK  4 active torsions:
REMARK  status: ('A' for Active; 'I' for Inactive)
REMARK    1  A    between atoms: C_1  and  C_2
REMARK    2  A    between atoms: C_6  and  C_7
REMARK    3  A    between atoms: C_7  and  N_8
REMARK    4  A    between atoms: C_17  and  C_19
REMARK                            x       y       z     vdW  Elec       q    Type
REMARK                         _______ _______ _______ _____ _____    ______ ____
ROOT
ATOM      1  N   UNL     1       4.734   4.219  19.431  0.00  0.00    +0.000 NA
ATOM      2  C   UNL     1       3.419   4.571  20.053  0.00  0.00    +0.000 C 
ATOM      3  C   UNL     1       2.238   5.080  19.136  0.00  0.00    +0.000 C 
ATOM      4  C   UNL     1       1.410   3.983  18.450  0.00  0.00    +0.000 C 
ATOM      5  C   UNL     1       2.162   3.274  17.328  0.00  0.00    +0.000 C 
ATOM      6  C   UNL     1       3.586   3.822  17.154  0.00  0.00    +0.000 C 
ATOM      7  C   UNL     1       4.521   3.350  18.290  0.00  0.00    +0.000 C 
ATOM      8  C   UNL     1       3.488   5.353  16.999  0.00  0.00    +0.000 C 
ATOM      9  N   UNL     1       2.730   5.995  18.096  0.00  0.00    +0.000 N 
ATOM     10  C   UNL     1       2.859   7.378  18.320  0.00  0.00    +0.000 C 
ATOM     11  O   UNL     1       3.725   8.055  17.775  0.00  0.00    +0.000 OA
ENDROOT
BRANCH  10  12
ATOM     12  C   UNL     1       1.899   8.041  19.251  0.00  0.00    +0.000 A 
ATOM     13  N   UNL     1       1.933   7.656  20.560  0.00  0.00    +0.000 NA
ATOM     14  C   UNL     1       1.189   8.397  21.412  0.00  0.00    +0.000 A 
ATOM     15  C   UNL     1       0.410   9.478  21.018  0.00  0.00    +0.000 A 
ATOM     16  F   UNL     1      -0.277  10.196  21.922  0.00  0.00    +0.000 F 
ATOM     17  C   UNL     1       0.386   9.842  19.681  0.00  0.00    +0.000 A 
ATOM     18  C   UNL     1       1.143   9.113  18.783  0.00  0.00    +0.000 A 
ATOM     19  F   UNL     1       1.147   9.456  17.493  0.00  0.00    +0.000 F 
ENDBRANCH  10  12
BRANCH   1  20
ATOM     20  C   UNL     1       5.594   5.415  19.302  0.00  0.00    +0.000 C 
BRANCH  20  26
ATOM     21  C   UNL     1       7.115   4.101  16.260  0.00  0.00    +0.000 C 
ATOM     22  C   UNL     1       6.988   5.420  16.922  0.00  0.00    +0.000 A 
ATOM     23  N   UNL     1       7.677   6.451  16.297  0.00  0.00    +0.000 NA
ATOM     24  C   UNL     1       7.482   7.518  17.021  0.00  0.00    +0.000 A 
ATOM     25  N   UNL     1       6.663   7.241  18.065  0.00  0.00    +0.000 N 
ATOM     26  C   UNL     1       6.351   5.870  18.076  0.00  0.00    +0.000 A 
ATOM     27  H   UNL     1       6.345   7.916  18.750  0.00  0.00    +0.000 HD
ENDBRANCH  20  26
ENDBRANCH   1  20
TORSDOF 3
ENDMDL
MODEL 8
REMARK VINA RESULT:      -6.7      2.447      3.974
REMARK  Name = 
REMARK  4 active torsions:
REMARK  status: ('A' for Active; 'I' for Inactive)
REMARK    1  A    between atoms: C_1  and  C_2
REMARK    2  A    between atoms: C_6  and  C_7
REMARK    3  A    between atoms: C_7  and  N_8
REMARK    4  A    between atoms: C_17  and  C_19
REMARK                            x       y       z     vdW  Elec       q    Type
REMARK                         _______ _______ _______ _____ _____    ______ ____
ROOT
ATOM      1  N   UNL     1       4.681   4.470  18.561  0.00  0.00    +0.000 NA
ATOM      2  C   UNL     1       5.515   3.694  17.591  0.00  0.00    +0.000 C 
ATOM      3  C   UNL     1       6.770   4.380  16.923  0.00  0.00    +0.000 C 
ATOM      4  C   UNL     1       8.059   4.362  17.759  0.00  0.00    +0.000 C 
ATOM      5  C   UNL     1       8.010   5.301  18.961  0.00  0.00    +0.000 C 
ATOM      6  C   UNL     1       6.668   6.041  19.058  0.00  0.00    +0.000 C 
ATOM      7  C   UNL     1       5.536   5.108  19.544  0.00  0.00    +0.000 C 
ATOM      8  C   UNL     1       6.401   6.718  17.699  0.00  0.00    +0.000 C 
ATOM      9  N   UNL     1       6.483   5.775  16.561  0.00  0.00    +0.000 N 
ATOM     10  C   UNL     1       5.912   6.121  15.323  0.00  0.00    +0.000 C 
ATOM     11  O   UNL     1       5.169   7.089  15.188  0.00  0.00    +0.000 OA
ENDROOT
BRANCH  10  12
ATOM     12  C   UNL     1       6.230   5.281  14.132  0.00  0.00    +0.000 A 
ATOM     13  N   UNL     1       7.393   5.554  13.470  0.00  0.00    +0.000 NA
ATOM     14  C   UNL     1       7.748   4.666  12.513  0.00  0.00    +0.000 A 
ATOM     15  C   UNL     1       6.998   3.545  12.181  0.00  0.00    +0.000 A 
ATOM     16  F   UNL     1       7.428   2.682  11.245  0.00  0.00    +0.000 F 
ATOM     17  C   UNL     1       5.817   3.297  12.863  0.00  0.00    +0.000 A 
ATOM     18  C   UNL     1       5.427   4.177  13.854  0.00  0.00    +0.000 A 
ATOM     19  F   UNL     1       4.302   3.949  14.534  0.00  0.00    +0.000 F 
ENDBRANCH  10  12
BRANCH   1  20
ATOM     20  C   UNL     1       3.647   5.258  17.857  0.00  0.00    +0.000 C 
BRANCH  20  26
ATOM     21  C   UNL     1       1.712   6.646  20.619  0.00  0.00    +0.000 C 
ATOM     22  C   UNL     1       2.235   7.124  19.317  0.00  0.00    +0.000 A 
ATOM     23  N   UNL     1       1.851   8.415  18.978  0.00  0.00    +0.000 NA
ATOM     24  C   UNL     1       2.369   8.657  17.806  0.00  0.00    +0.000 A 
ATOM     25  N   UNL     1       3.108   7.602  17.384  0.00  0.00    +0.000 N 
ATOM     26  C   UNL     1       3.012   6.550  18.314  0.00  0.00    +0.000 A 
ATOM     27  H   UNL     1       3.628   7.566  16.516  0.00  0.00    +0.000 HD
ENDBRANCH  20  26
ENDBRANCH   1  20
TORSDOF 3
ENDMDL
MODEL 9
REMARK VINA RESULT:      -6.7      2.524      4.098
REMARK  Name = 
REMARK  4 active torsions:
REMARK  status: ('A' for Active; 'I' for Inactive)
REMARK    1  A    between atoms: C_1  and  C_2
REMARK    2  A    between atoms: C_6  and  C_7
REMARK    3  A    between atoms: C_7  and  N_8
REMARK    4  A    between atoms: C_17  and  C_19
REMARK                            x       y       z     vdW  Elec       q    Type
REMARK                         _______ _______ _______ _____ _____    ______ ____
ROOT
ATOM      1  N   UNL     1       4.642   4.807  18.721  0.00  0.00    +0.000 NA
ATOM      2  C   UNL     1       5.359   3.832  17.842  0.00  0.00    +0.000 C 
ATOM      3  C   UNL     1       6.613   4.312  17.011  0.00  0.00    +0.000 C 
ATOM      4  C   UNL     1       7.948   4.324  17.772  0.00  0.00    +0.000 C 
ATOM      5  C   UNL     1       8.037   5.435  18.814  0.00  0.00    +0.000 C 
ATOM      6  C   UNL     1       6.755   6.280  18.864  0.00  0.00    +0.000 C 
ATOM      7  C   UNL     1       5.597   5.520  19.547  0.00  0.00    +0.000 C 
ATOM      8  C   UNL     1       6.449   6.761  17.431  0.00  0.00    +0.000 C 
ATOM      9  N   UNL     1       6.397   5.654  16.452  0.00  0.00    +0.000 N 
ATOM     10  C   UNL     1       5.773   5.850  15.206  0.00  0.00    +0.000 C 
ATOM     11  O   UNL     1       5.090   6.839  14.961  0.00  0.00    +0.000 OA
ENDROOT
BRANCH  10  12
ATOM     12  C   UNL     1       5.960   4.817  14.145  0.00  0.00    +0.000 A 
ATOM     13  N   UNL     1       4.890   4.018  13.859  0.00  0.00    +0.000 NA
ATOM     14  C   UNL     1       5.024   3.220  12.775  0.00  0.00    +0.000 A 
ATOM     15  C   UNL     1       6.167   3.172  11.987  0.00  0.00    +0.000 A 
ATOM     16  F   UNL     1       6.221   2.384  10.900  0.00  0.00    +0.000 F 
ATOM     17  C   UNL     1       7.242   3.987  12.306  0.00  0.00    +0.000 A 
ATOM     18  C   UNL     1       7.137   4.823  13.401  0.00  0.00    +0.000 A 
ATOM     19  F   UNL     1       8.154   5.628  13.717  0.00  0.00    +0.000 F 
ENDBRANCH  10  12
BRANCH   1  20
ATOM     20  C   UNL     1       3.620   5.554  17.957  0.00  0.00    +0.000 C 
BRANCH  20  26
ATOM     21  C   UNL     1       1.678   7.041  20.662  0.00  0.00    +0.000 C 
ATOM     22  C   UNL     1       2.171   7.459  19.328  0.00  0.00    +0.000 A 
ATOM     23  N   UNL     1       1.745   8.716  18.921  0.00  0.00    +0.000 NA
ATOM     24  C   UNL     1       2.241   8.906  17.730  0.00  0.00    +0.000 A 
ATOM     25  N   UNL     1       3.005   7.850  17.358  0.00  0.00    +0.000 N 
ATOM     26  C   UNL     1       2.953   6.851  18.348  0.00  0.00    +0.000 A 
ATOM     27  H   UNL     1       3.516   7.779  16.487  0.00  0.00    +0.000 HD
ENDBRANCH  20  26
ENDBRANCH   1  20
TORSDOF 3
ENDMDL
