MODEL 1
REMARK VINA RESULT:      -7.8      0.000      0.000
REMARK  Name = 
REMARK  5 active torsions:
REMARK  status: ('A' for Active; 'I' for Inactive)
REMARK    1  A    between atoms: C_1  and  C_2
REMARK    2  A    between atoms: N_4  and  C_5
REMARK    3  A    between atoms: C_5  and  C_6
REMARK    4  A    between atoms: C_12  and  C_13
REMARK    5  A    between atoms: C_16  and  C_17
REMARK                            x       y       z     vdW  Elec       q    Type
REMARK                         _______ _______ _______ _____ _____    ______ ____
ROOT
ATOM      1  C   UNL     1       2.244   5.077  19.478  0.00  0.00    +0.000 C 
ATOM      2  C   UNL     1       1.211   4.817  20.598  0.00  0.00    +0.000 C 
ATOM      3  N   UNL     1       0.680   3.454  20.587  0.00  0.00    +0.000 NA
ATOM      4  C   UNL     1       1.469   2.510  21.382  0.00  0.00    +0.000 C 
ATOM      5  C   UNL     1       2.992   2.622  21.263  0.00  0.00    +0.000 C 
ATOM      6  O   UNL     1       3.395   2.913  19.920  0.00  0.00    +0.000 OA
ATOM      7  C   UNL     1       3.581   4.318  19.695  0.00  0.00    +0.000 C 
ATOM      8  H   UNL     1       0.654   3.113  19.626  0.00  0.00    +0.000 HD
ENDROOT
BRANCH   7   9
ATOM      9  C   UNL     1       4.509   4.461  18.494  0.00  0.00    +0.000 A 
ATOM     10  C   UNL     1       4.297   3.743  17.307  0.00  0.00    +0.000 A 
ATOM     11  C   UNL     1       5.095   3.970  16.181  0.00  0.00    +0.000 A 
ATOM     12  C   UNL     1       6.138   4.908  16.214  0.00  0.00    +0.000 A 
ATOM     13  C   UNL     1       6.973   5.139  14.986  0.00  0.00    +0.000 C 
ATOM     14  C   UNL     1       6.368   5.607  17.408  0.00  0.00    +0.000 A 
ATOM     15 CL   UNL     1       7.624   6.787  17.536  0.00  0.00    +0.000 Cl
ATOM     16  C   UNL     1       5.567   5.384  18.532  0.00  0.00    +0.000 A 
ENDBRANCH   7   9
BRANCH   1  17
ATOM     17  C   UNL     1       2.516   6.592  19.351  0.00  0.00    +0.000 C 
BRANCH  17  21
ATOM     18  C   UNL     1       1.138   9.145  21.780  0.00  0.00    +0.000 C 
ATOM     19  C   UNL     1       1.452   8.537  20.442  0.00  0.00    +0.000 C 
ATOM     20  O   UNL     1       1.168   9.088  19.383  0.00  0.00    +0.000 OA
ATOM     21  N   UNL     1       2.107   7.331  20.530  0.00  0.00    +0.000 N 
ATOM     22  H   UNL     1       2.256   6.916  21.443  0.00  0.00    +0.000 HD
ENDBRANCH  17  21
ENDBRANCH   1  17
TORSDOF 3
ENDMDL
MODEL 2
REMARK VINA RESULT:      -7.7      2.901      5.553
REMARK  Name = 
REMARK  5 active torsions:
REMARK  status: ('A' for Active; 'I' for Inactive)
REMARK    1  A    between atoms: C_1  and  C_2
REMARK    2  A    between atoms: N_4  and  C_5
REMARK    3  A    between atoms: C_5  and  C_6
REMARK    4  A    between atoms: C_12  and  C_13
REMARK    5  A    between atoms: C_16  and  C_17
REMARK                            x       y       z     vdW  Elec       q    Type
REMARK                         _______ _______ _______ _____ _____    ______ ____
ROOT
ATOM      1  C   UNL     1       4.143   4.728  19.408  0.00  0.00    +0.000 C 
ATOM      2  C   UNL     1       4.489   3.222  19.349  0.00  0.00    +0.000 C 
ATOM      3  N   UNL     1       3.497   2.376  20.012  0.00  0.00    +0.000 NA
ATOM      4  C   UNL     1       2.408   1.947  19.131  0.00  0.00    +0.000 C 
ATOM      5  C   UNL     1       1.838   3.007  18.184  0.00  0.00    +0.000 C 
ATOM      6  O   UNL     1       1.764   4.292  18.812  0.00  0.00    +0.000 OA
ATOM      7  C   UNL     1       2.915   5.104  18.537  0.00  0.00    +0.000 C 
ATOM      8  H   UNL     1       3.088   2.889  20.793  0.00  0.00    +0.000 HD
ENDROOT
BRANCH   7   9
ATOM      9  C   UNL     1       2.499   6.556  18.751  0.00  0.00    +0.000 A 
ATOM     10  C   UNL     1       2.465   7.477  17.694  0.00  0.00    +0.000 A 
ATOM     11  C   UNL     1       1.977   8.773  17.890  0.00  0.00    +0.000 A 
ATOM     12  C   UNL     1       1.525   9.190  19.151  0.00  0.00    +0.000 A 
ATOM     13  C   UNL     1       0.996  10.586  19.331  0.00  0.00    +0.000 C 
ATOM     14  C   UNL     1       1.584   8.278  20.215  0.00  0.00    +0.000 A 
ATOM     15 CL   UNL     1       1.040   8.703  21.799  0.00  0.00    +0.000 Cl
ATOM     16  C   UNL     1       2.067   6.981  20.018  0.00  0.00    +0.000 A 
ENDBRANCH   7   9
BRANCH   1  17
ATOM     17  C   UNL     1       5.366   5.568  18.982  0.00  0.00    +0.000 C 
BRANCH  17  21
ATOM     18  C   UNL     1       7.132   4.665  15.759  0.00  0.00    +0.000 C 
ATOM     19  C   UNL     1       6.939   4.783  17.245  0.00  0.00    +0.000 C 
ATOM     20  O   UNL     1       7.791   4.427  18.052  0.00  0.00    +0.000 OA
ATOM     21  N   UNL     1       5.736   5.349  17.596  0.00  0.00    +0.000 N 
ATOM     22  H   UNL     1       5.061   5.565  16.871  0.00  0.00    +0.000 HD
ENDBRANCH  17  21
ENDBRANCH   1  17
TORSDOF 3
ENDMDL
MODEL 3
REMARK VINA RESULT:      -7.6      2.889      5.613
REMARK  Name = 
REMARK  5 active torsions:
REMARK  status: ('A' for Active; 'I' for Inactive)
REMARK    1  A    between atoms: C_1  and  C_2
REMARK    2  A    between atoms: N_4  and  C_5
REMARK    3  A    between atoms: C_5  and  C_6
REMARK    4  A    between atoms: C_12  and  C_13
REMARK    5  A    between atoms: C_16  and  C_17
REMARK                            x       y       z     vdW  Elec       q    Type
REMARK                         _______ _______ _______ _____ _____    ______ ____
ROOT
ATOM      1  C   UNL     1       3.157   4.839  17.680  0.00  0.00    +0.000 C 
ATOM      2  C   UNL     1       4.074   3.614  17.458  0.00  0.00    +0.000 C 
ATOM      3  N   UNL     1       5.343   3.954  16.816  0.00  0.00    +0.000 NA
ATOM      4  C   UNL     1       6.403   4.312  17.763  0.00  0.00    +0.000 C 
ATOM      5  C   UNL     1       5.997   5.214  18.932  0.00  0.00    +0.000 C 
ATOM      6  O   UNL     1       5.055   6.213  18.526  0.00  0.00    +0.000 OA
ATOM      7  C   UNL     1       3.696   5.814  18.761  0.00  0.00    +0.000 C 
ATOM      8  H   UNL     1       5.201   4.745  16.188  0.00  0.00    +0.000 HD
ENDROOT
BRANCH   7   9
ATOM      9  C   UNL     1       2.862   7.088  18.834  0.00  0.00    +0.000 A 
ATOM     10  C   UNL     1       2.708   7.935  17.726  0.00  0.00    +0.000 A 
ATOM     11  C   UNL     1       1.852   9.039  17.782  0.00  0.00    +0.000 A 
ATOM     12  C   UNL     1       1.137   9.338  18.953  0.00  0.00    +0.000 A 
ATOM     13  C   UNL     1       0.216  10.525  18.982  0.00  0.00    +0.000 C 
ATOM     14  C   UNL     1       1.310   8.508  20.069  0.00  0.00    +0.000 A 
ATOM     15 CL   UNL     1       0.464   8.796  21.548  0.00  0.00    +0.000 Cl
ATOM     16  C   UNL     1       2.163   7.401  20.011  0.00  0.00    +0.000 A 
ENDBRANCH   7   9
BRANCH   1  17
ATOM     17  C   UNL     1       1.734   4.373  18.057  0.00  0.00    +0.000 C 
BRANCH  17  21
ATOM     18  C   UNL     1       1.389   2.695  21.431  0.00  0.00    +0.000 C 
ATOM     19  C   UNL     1       1.546   2.782  19.939  0.00  0.00    +0.000 C 
ATOM     20  O   UNL     1       1.592   1.789  19.220  0.00  0.00    +0.000 OA
ATOM     21  N   UNL     1       1.604   4.074  19.471  0.00  0.00    +0.000 N 
ATOM     22  H   UNL     1       1.615   4.840  20.135  0.00  0.00    +0.000 HD
ENDBRANCH  17  21
ENDBRANCH   1  17
TORSDOF 3
ENDMDL
MODEL 4
REMARK VINA RESULT:      -7.6      3.165      5.835
REMARK  Name = 
REMARK  5 active torsions:
REMARK  status: ('A' for Active; 'I' for Inactive)
REMARK    1  A    between atoms: C_1  and  C_2
REMARK    2  A    between atoms: N_4  and  C_5
REMARK    3  A    between atoms: C_5  and  C_6
REMARK    4  A    between atoms: C_12  and  C_13
REMARK    5  A    between atoms: C_16  and  C_17
REMARK                            x       y       z     vdW  Elec       q    Type
REMARK                         _______ _______ _______ _____ _____    ______ ____
ROOT
ATOM      1  C   UNL     1       4.658   5.363  18.375  0.00  0.00    +0.000 C 
ATOM      2  C   UNL     1       5.267   3.945  18.289  0.00  0.00    +0.000 C 
ATOM      3  N   UNL     1       5.134   3.185  19.531  0.00  0.00    +0.000 NA
ATOM      4  C   UNL     1       3.889   2.418  19.621  0.00  0.00    +0.000 C 
ATOM      5  C   UNL     1       2.617   3.124  19.146  0.00  0.00    +0.000 C 
ATOM      6  O   UNL     1       2.613   4.509  19.512  0.00  0.00    +0.000 OA
ATOM      7  C   UNL     1       3.108   5.355  18.464  0.00  0.00    +0.000 C 
ATOM      8  H   UNL     1       5.167   3.828  20.323  0.00  0.00    +0.000 HD
ENDROOT
BRANCH   7   9
ATOM      9  C   UNL     1       2.553   6.752  18.718  0.00  0.00    +0.000 A 
ATOM     10  C   UNL     1       2.341   7.664  17.673  0.00  0.00    +0.000 A 
ATOM     11  C   UNL     1       1.730   8.899  17.913  0.00  0.00    +0.000 A 
ATOM     12  C   UNL     1       1.329   9.265  19.208  0.00  0.00    +0.000 A 
ATOM     13  C   UNL     1       0.666  10.594  19.435  0.00  0.00    +0.000 C 
ATOM     14  C   UNL     1       1.566   8.366  20.258  0.00  0.00    +0.000 A 
ATOM     15 CL   UNL     1       1.097   8.730  21.881  0.00  0.00    +0.000 Cl
ATOM     16  C   UNL     1       2.172   7.129  20.016  0.00  0.00    +0.000 A 
ENDBRANCH   7   9
BRANCH   1  17
ATOM     17  C   UNL     1       5.108   6.206  17.163  0.00  0.00    +0.000 C 
BRANCH  17  21
ATOM     18  C   UNL     1       6.360   4.409  14.077  0.00  0.00    +0.000 C 
ATOM     19  C   UNL     1       6.449   5.245  15.323  0.00  0.00    +0.000 C 
ATOM     20  O   UNL     1       7.502   5.738  15.714  0.00  0.00    +0.000 OA
ATOM     21  N   UNL     1       5.239   5.416  15.953  0.00  0.00    +0.000 N 
ATOM     22  H   UNL     1       4.424   4.929  15.597  0.00  0.00    +0.000 HD
ENDBRANCH  17  21
ENDBRANCH   1  17
TORSDOF 3
ENDMDL
MODEL 5
REMARK VINA RESULT:      -7.5      3.181      5.537
REMARK  Name = 
REMARK  5 active torsions:
REMARK  status: ('A' for Active; 'I' for Inactive)
REMARK    1  A    between atoms: C_1  and  C_2
REMARK    2  A    between atoms: N_4  and  C_5
REMARK    3  A    between atoms: C_5  and  C_6
REMARK    4  A    between atoms: C_12  and  C_13
REMARK    5  A    between atoms: C_16  and  C_17
REMARK                            x       y       z     vdW  Elec       q    Type
REMARK                         _______ _______ _______ _____ _____    ______ ____
ROOT
ATOM      1  C   UNL     1       4.353   5.320  18.075  0.00  0.00    +0.000 C 
ATOM      2  C   UNL     1       4.846   3.874  17.840  0.00  0.00    +0.000 C 
ATOM      3  N   UNL     1       4.625   2.995  18.988  0.00  0.00    +0.000 NA
ATOM      4  C   UNL     1       3.320   2.330  18.976  0.00  0.00    +0.000 C 
ATOM      5  C   UNL     1       2.120   3.188  18.566  0.00  0.00    +0.000 C 
ATOM      6  O   UNL     1       2.221   4.519  19.085  0.00  0.00    +0.000 OA
ATOM      7  C   UNL     1       2.807   5.431  18.144  0.00  0.00    +0.000 C 
ATOM      8  H   UNL     1       4.693   3.542  19.847  0.00  0.00    +0.000 HD
ENDROOT
BRANCH   7   9
ATOM      9  C   UNL     1       2.362   6.834  18.545  0.00  0.00    +0.000 A 
ATOM     10  C   UNL     1       2.154   7.843  17.593  0.00  0.00    +0.000 A 
ATOM     11  C   UNL     1       1.642   9.089  17.970  0.00  0.00    +0.000 A 
ATOM     12  C   UNL     1       1.340   9.367  19.312  0.00  0.00    +0.000 A 
ATOM     13  C   UNL     1       0.782  10.711  19.688  0.00  0.00    +0.000 C 
ATOM     14  C   UNL     1       1.574   8.369  20.269  0.00  0.00    +0.000 A 
ATOM     15 CL   UNL     1       1.223   8.621  21.942  0.00  0.00    +0.000 Cl
ATOM     16  C   UNL     1       2.081   7.121  19.890  0.00  0.00    +0.000 A 
ENDBRANCH   7   9
BRANCH   1  17
ATOM     17  C   UNL     1       4.898   6.251  16.971  0.00  0.00    +0.000 C 
BRANCH  17  21
ATOM     18  C   UNL     1       8.002   8.267  17.756  0.00  0.00    +0.000 C 
ATOM     19  C   UNL     1       7.177   7.196  17.098  0.00  0.00    +0.000 C 
ATOM     20  O   UNL     1       7.656   6.379  16.318  0.00  0.00    +0.000 OA
ATOM     21  N   UNL     1       5.856   7.214  17.478  0.00  0.00    +0.000 N 
ATOM     22  H   UNL     1       5.527   7.957  18.085  0.00  0.00    +0.000 HD
ENDBRANCH  17  21
ENDBRANCH   1  17
TORSDOF 3
ENDMDL
MODEL 6
REMARK VINA RESULT:      -7.4      4.091      6.793
REMARK  Name = 
REMARK  5 active torsions:
REMARK  status: ('A' for Active; 'I' for Inactive)
REMARK    1  A    between atoms: C_1  and  C_2
REMARK    2  A    between atoms: N_4  and  C_5
REMARK    3  A    between atoms: C_5  and  C_6
REMARK    4  A    between atoms: C_12  and  C_13
REMARK    5  A    between atoms: C_16  and  C_17
REMARK                            x       y       z     vdW  Elec       q    Type
REMARK                         _______ _______ _______ _____ _____    ______ ____
ROOT
ATOM      1  C   UNL     1       5.954   4.951  16.523  0.00  0.00    +0.000 C 
ATOM      2  C   UNL     1       7.324   5.611  16.243  0.00  0.00    +0.000 C 
ATOM      3  N   UNL     1       7.454   6.941  16.837  0.00  0.00    +0.000 NA
ATOM      4  C   UNL     1       7.977   6.925  18.206  0.00  0.00    +0.000 C 
ATOM      5  C   UNL     1       7.420   5.844  19.136  0.00  0.00    +0.000 C 
ATOM      6  O   UNL     1       6.021   5.630  18.919  0.00  0.00    +0.000 OA
ATOM      7  C   UNL     1       5.766   4.548  18.011  0.00  0.00    +0.000 C 
ATOM      8  H   UNL     1       6.539   7.392  16.853  0.00  0.00    +0.000 HD
ENDROOT
BRANCH   7   9
ATOM      9  C   UNL     1       4.348   4.059  18.285  0.00  0.00    +0.000 A 
ATOM     10  C   UNL     1       3.396   3.940  17.261  0.00  0.00    +0.000 A 
ATOM     11  C   UNL     1       2.137   3.387  17.514  0.00  0.00    +0.000 A 
ATOM     12  C   UNL     1       1.786   2.953  18.801  0.00  0.00    +0.000 A 
ATOM     13  C   UNL     1       0.430   2.353  19.043  0.00  0.00    +0.000 C 
ATOM     14  C   UNL     1       2.727   3.096  19.832  0.00  0.00    +0.000 A 
ATOM     15 CL   UNL     1       2.384   2.579  21.445  0.00  0.00    +0.000 Cl
ATOM     16  C   UNL     1       3.988   3.644  19.577  0.00  0.00    +0.000 A 
ENDBRANCH   7   9
BRANCH   1  17
ATOM     17  C   UNL     1       5.768   3.714  15.618  0.00  0.00    +0.000 C 
BRANCH  17  21
ATOM     18  C   UNL     1       7.049   3.817  12.059  0.00  0.00    +0.000 C 
ATOM     19  C   UNL     1       6.028   3.770  13.161  0.00  0.00    +0.000 C 
ATOM     20  O   UNL     1       4.823   3.709  12.943  0.00  0.00    +0.000 OA
ATOM     21  N   UNL     1       6.583   3.775  14.419  0.00  0.00    +0.000 N 
ATOM     22  H   UNL     1       7.586   3.883  14.516  0.00  0.00    +0.000 HD
ENDBRANCH  17  21
ENDBRANCH   1  17
TORSDOF 3
ENDMDL
MODEL 7
REMARK VINA RESULT:      -7.4      3.042      5.497
REMARK  Name = 
REMARK  5 active torsions:
REMARK  status: ('A' for Active; 'I' for Inactive)
REMARK    1  A    between atoms: C_1  and  C_2
REMARK    2  A    between atoms: N_4  and  C_5
REMARK    3  A    between atoms: C_5  and  C_6
REMARK    4  A    between atoms: C_12  and  C_13
REMARK    5  A    between atoms: C_16  and  C_17
REMARK                            x       y       z     vdW  Elec       q    Type
REMARK                         _______ _______ _______ _____ _____    ______ ____
ROOT
ATOM      1  C   UNL     1       4.200   4.941  18.903  0.00  0.00    +0.000 C 
ATOM      2  C   UNL     1       4.570   3.446  18.773  0.00  0.00    +0.000 C 
ATOM      3  N   UNL     1       3.796   2.581  19.663  0.00  0.00    +0.000 NA
ATOM      4  C   UNL     1       2.540   2.107  19.075  0.00  0.00    +0.000 C 
ATOM      5  C   UNL     1       1.724   3.135  18.286  0.00  0.00    +0.000 C 
ATOM      6  O   UNL     1       1.763   4.426  18.905  0.00  0.00    +0.000 OA
ATOM      7  C   UNL     1       2.786   5.268  18.353  0.00  0.00    +0.000 C 
ATOM      8  H   UNL     1       3.571   3.093  20.516  0.00  0.00    +0.000 HD
ENDROOT
BRANCH   7   9
ATOM      9  C   UNL     1       2.387   6.709  18.650  0.00  0.00    +0.000 A 
ATOM     10  C   UNL     1       2.303   7.677  17.638  0.00  0.00    +0.000 A 
ATOM     11  C   UNL     1       1.831   8.964  17.914  0.00  0.00    +0.000 A 
ATOM     12  C   UNL     1       1.444   9.326  19.214  0.00  0.00    +0.000 A 
ATOM     13  C   UNL     1       0.931  10.713  19.481  0.00  0.00    +0.000 C 
ATOM     14  C   UNL     1       1.553   8.368  20.233  0.00  0.00    +0.000 A 
ATOM     15 CL   UNL     1       1.092   8.724  21.860  0.00  0.00    +0.000 Cl
ATOM     16  C   UNL     1       2.021   7.080  19.955  0.00  0.00    +0.000 A 
ENDBRANCH   7   9
BRANCH   1  17
ATOM     17  C   UNL     1       5.255   5.812  18.187  0.00  0.00    +0.000 C 
BRANCH  17  21
ATOM     18  C   UNL     1       6.263   4.907  14.654  0.00  0.00    +0.000 C 
ATOM     19  C   UNL     1       5.661   5.740  15.751  0.00  0.00    +0.000 C 
ATOM     20  O   UNL     1       5.094   6.806  15.535  0.00  0.00    +0.000 OA
ATOM     21  N   UNL     1       5.787   5.174  16.998  0.00  0.00    +0.000 N 
ATOM     22  H   UNL     1       6.319   4.317  17.100  0.00  0.00    +0.000 HD
ENDBRANCH  17  21
ENDBRANCH   1  17
TORSDOF 3
ENDMDL
MODEL 8
REMARK VINA RESULT:      -7.4      1.212      1.212
REMARK  Name = 
REMARK  5 active torsions:
REMARK  status: ('A' for Active; 'I' for Inactive)
REMARK    1  A    between atoms: C_1  and  C_2
REMARK    2  A    between atoms: N_4  and  C_5
REMARK    3  A    between atoms: C_5  and  C_6
REMARK    4  A    between atoms: C_12  and  C_13
REMARK    5  A    between atoms: C_16  and  C_17
REMARK                            x       y       z     vdW  Elec       q    Type
REMARK                         _______ _______ _______ _____ _____    ______ ____
ROOT
ATOM      1  C   UNL     1       2.443   5.403  19.414  0.00  0.00    +0.000 C 
ATOM      2  C   UNL     1       1.400   5.226  20.541  0.00  0.00    +0.000 C 
ATOM      3  N   UNL     1       0.656   3.971  20.445  0.00  0.00    +0.000 NA
ATOM      4  C   UNL     1       1.294   2.854  21.146  0.00  0.00    +0.000 C 
ATOM      5  C   UNL     1       2.813   2.730  20.991  0.00  0.00    +0.000 C 
ATOM      6  O   UNL     1       3.236   3.055  19.662  0.00  0.00    +0.000 OA
ATOM      7  C   UNL     1       3.643   4.425  19.536  0.00  0.00    +0.000 C 
ATOM      8  H   UNL     1       0.558   3.713  19.463  0.00  0.00    +0.000 HD
ENDROOT
BRANCH   7   9
ATOM      9  C   UNL     1       4.561   4.509  18.322  0.00  0.00    +0.000 A 
ATOM     10  C   UNL     1       4.353   3.719  17.182  0.00  0.00    +0.000 A 
ATOM     11  C   UNL     1       5.141   3.889  16.039  0.00  0.00    +0.000 A 
ATOM     12  C   UNL     1       6.170   4.843  16.008  0.00  0.00    +0.000 A 
ATOM     13  C   UNL     1       6.994   5.012  14.763  0.00  0.00    +0.000 C 
ATOM     14  C   UNL     1       6.397   5.616  17.156  0.00  0.00    +0.000 A 
ATOM     15 CL   UNL     1       7.636   6.820  17.205  0.00  0.00    +0.000 Cl
ATOM     16  C   UNL     1       5.606   5.449  18.298  0.00  0.00    +0.000 A 
ENDBRANCH   7   9
BRANCH   1  17
ATOM     17  C   UNL     1       2.954   6.860  19.390  0.00  0.00    +0.000 C 
BRANCH  17  21
ATOM     18  C   UNL     1       0.634   9.600  18.195  0.00  0.00    +0.000 C 
ATOM     19  C   UNL     1       1.813   8.668  18.151  0.00  0.00    +0.000 C 
ATOM     20  O   UNL     1       2.637   8.687  17.243  0.00  0.00    +0.000 OA
ATOM     21  N   UNL     1       1.881   7.823  19.234  0.00  0.00    +0.000 N 
ATOM     22  H   UNL     1       1.130   7.831  19.915  0.00  0.00    +0.000 HD
ENDBRANCH  17  21
ENDBRANCH   1  17
TORSDOF 3
ENDMDL
MODEL 9
REMARK VINA RESULT:      -7.2      2.290      2.793
REMARK  Name = 
REMARK  5 active torsions:
REMARK  status: ('A' for Active; 'I' for Inactive)
REMARK    1  A    between atoms: C_1  and  C_2
REMARK    2  A    between atoms: N_4  and  C_5
REMARK    3  A    between atoms: C_5  and  C_6
REMARK    4  A    between atoms: C_12  and  C_13
REMARK    5  A    between atoms: C_16  and  C_17
REMARK                            x       y       z     vdW  Elec       q    Type
REMARK                         _______ _______ _______ _____ _____    ______ ____
ROOT
ATOM      1  C   UNL     1       3.169   4.914  18.022  0.00  0.00    +0.000 C 
ATOM      2  C   UNL     1       2.146   4.460  19.089  0.00  0.00    +0.000 C 
ATOM      3  N   UNL     1       1.321   3.334  18.654  0.00  0.00    +0.000 NA
ATOM      4  C   UNL     1       1.905   2.025  18.959  0.00  0.00    +0.000 C 
ATOM      5  C   UNL     1       3.408   1.873  18.707  0.00  0.00    +0.000 C 
ATOM      6  O   UNL     1       3.816   2.561  17.519  0.00  0.00    +0.000 OA
ATOM      7  C   UNL     1       4.306   3.882  17.792  0.00  0.00    +0.000 C 
ATOM      8  H   UNL     1       1.181   3.390  17.645  0.00  0.00    +0.000 HD
ENDROOT
BRANCH   7   9
ATOM      9  C   UNL     1       5.196   4.280  16.620  0.00  0.00    +0.000 A 
ATOM     10  C   UNL     1       6.426   4.926  16.812  0.00  0.00    +0.000 A 
ATOM     11  C   UNL     1       7.276   5.184  15.732  0.00  0.00    +0.000 A 
ATOM     12  C   UNL     1       6.914   4.819  14.427  0.00  0.00    +0.000 A 
ATOM     13  C   UNL     1       7.851   5.099  13.286  0.00  0.00    +0.000 C 
ATOM     14  C   UNL     1       5.673   4.197  14.229  0.00  0.00    +0.000 A 
ATOM     15 CL   UNL     1       5.149   3.705  12.657  0.00  0.00    +0.000 Cl
ATOM     16  C   UNL     1       4.825   3.935  15.310  0.00  0.00    +0.000 A 
ENDBRANCH   7   9
BRANCH   1  17
ATOM     17  C   UNL     1       3.771   6.280  18.414  0.00  0.00    +0.000 C 
BRANCH  17  21
ATOM     18  C   UNL     1       1.494   9.243  17.821  0.00  0.00    +0.000 C 
ATOM     19  C   UNL     1       2.170   8.152  18.604  0.00  0.00    +0.000 C 
ATOM     20  O   UNL     1       1.943   7.954  19.793  0.00  0.00    +0.000 OA
ATOM     21  N   UNL     1       3.034   7.395  17.849  0.00  0.00    +0.000 N 
ATOM     22  H   UNL     1       3.209   7.657  16.885  0.00  0.00    +0.000 HD
ENDBRANCH  17  21
ENDBRANCH   1  17
TORSDOF 3
ENDMDL
