MODEL 1
REMARK VINA RESULT:      -7.8      0.000      0.000
REMARK  Name = 
REMARK  4 active torsions:
REMARK  status: ('A' for Active; 'I' for Inactive)
REMARK    1  A    between atoms: C_1  and  O_2
REMARK    2  A    between atoms: O_2  and  C_3
REMARK    3  A    between atoms: C_11  and  O_12
REMARK    4  A    between atoms: N_19  and  C_20
REMARK                            x       y       z     vdW  Elec       q    Type
REMARK                         _______ _______ _______ _____ _____    ______ ____
ROOT
ATOM      1  C   UNL     1       1.639   7.740  20.168  0.00  0.00    +0.000 A 
ATOM      2  C   UNL     1       1.910   8.741  19.221  0.00  0.00    +0.000 A 
ATOM      3  C   UNL     1       2.689   8.469  18.053  0.00  0.00    +0.000 A 
ATOM      4  C   UNL     1       3.273   7.216  17.831  0.00  0.00    +0.000 A 
ATOM      5  C   UNL     1       3.115   6.323  18.849  0.00  0.00    +0.000 A 
ATOM      6  C   UNL     1       2.279   6.539  19.956  0.00  0.00    +0.000 A 
ATOM      7  O   UNL     1       2.032   5.333  20.610  0.00  0.00    +0.000 OA
ATOM      8  C   UNL     1       2.328   4.468  19.488  0.00  0.00    +0.000 C 
ATOM      9  C   UNL     1       1.950   2.991  19.537  0.00  0.00    +0.000 C 
ATOM     10  C   UNL     1       2.173   2.398  18.165  0.00  0.00    +0.000 C 
ATOM     11  O   UNL     1       3.470   1.899  17.889  0.00  0.00    +0.000 OA
ATOM     12  C   UNL     1       3.093   3.126  17.177  0.00  0.00    +0.000 C 
ATOM     13  C   UNL     1       4.004   4.239  17.610  0.00  0.00    +0.000 C 
ATOM     14  C   UNL     1       4.622   5.269  16.648  0.00  0.00    +0.000 C 
ATOM     15  C   UNL     1       3.947   6.713  16.580  0.00  0.00    +0.000 C 
ATOM     16  N   UNL     1       6.032   5.442  17.113  0.00  0.00    +0.000 NA
ATOM     17  C   UNL     1       6.896   4.318  16.728  0.00  0.00    +0.000 C 
ATOM     18  C   UNL     1       6.114   5.775  18.565  0.00  0.00    +0.000 C 
ATOM     19  C   UNL     1       5.049   5.166  19.584  0.00  0.00    +0.000 C 
ATOM     20  C   UNL     1       3.668   4.938  18.900  0.00  0.00    +0.000 C 
ENDROOT
BRANCH   1  22
ATOM     21  C   UNL     1       0.003   8.972  21.379  0.00  0.00    +0.000 C 
ATOM     22  O   UNL     1       0.829   7.821  21.249  0.00  0.00    +0.000 OA
ENDBRANCH   1  22
BRANCH   9  23
ATOM     23  O   UNL     1       0.527   2.896  19.791  0.00  0.00    +0.000 OA
ATOM     24  H   UNL     1       0.142   2.199  19.239  0.00  0.00    +0.000 HD
ENDBRANCH   9  23
TORSDOF 2
ENDMDL
MODEL 2
REMARK VINA RESULT:      -7.7      2.413      3.980
REMARK  Name = 
REMARK  4 active torsions:
REMARK  status: ('A' for Active; 'I' for Inactive)
REMARK    1  A    between atoms: C_1  and  O_2
REMARK    2  A    between atoms: O_2  and  C_3
REMARK    3  A    between atoms: C_11  and  O_12
REMARK    4  A    between atoms: N_19  and  C_20
REMARK                            x       y       z     vdW  Elec       q    Type
REMARK                         _______ _______ _______ _____ _____    ______ ____
ROOT
ATOM      1  C   UNL     1       1.832   8.817  18.926  0.00  0.00    +0.000 A 
ATOM      2  C   UNL     1       1.245   8.611  20.186  0.00  0.00    +0.000 A 
ATOM      3  C   UNL     1       1.385   7.366  20.877  0.00  0.00    +0.000 A 
ATOM      4  C   UNL     1       2.053   6.277  20.306  0.00  0.00    +0.000 A 
ATOM      5  C   UNL     1       2.471   6.470  19.023  0.00  0.00    +0.000 A 
ATOM      6  C   UNL     1       2.426   7.709  18.364  0.00  0.00    +0.000 A 
ATOM      7  O   UNL     1       3.249   7.682  17.240  0.00  0.00    +0.000 OA
ATOM      8  C   UNL     1       4.095   6.592  17.675  0.00  0.00    +0.000 C 
ATOM      9  C   UNL     1       5.397   6.290  16.941  0.00  0.00    +0.000 C 
ATOM     10  C   UNL     1       6.167   5.262  17.739  0.00  0.00    +0.000 C 
ATOM     11  O   UNL     1       5.879   3.901  17.472  0.00  0.00    +0.000 OA
ATOM     12  C   UNL     1       5.420   4.407  18.771  0.00  0.00    +0.000 C 
ATOM     13  C   UNL     1       3.920   4.343  18.816  0.00  0.00    +0.000 C 
ATOM     14  C   UNL     1       3.116   3.867  20.038  0.00  0.00    +0.000 C 
ATOM     15  C   UNL     1       2.453   4.982  20.966  0.00  0.00    +0.000 C 
ATOM     16  N   UNL     1       2.016   3.023  19.478  0.00  0.00    +0.000 NA
ATOM     17  C   UNL     1       2.481   1.694  19.058  0.00  0.00    +0.000 C 
ATOM     18  C   UNL     1       1.238   3.732  18.421  0.00  0.00    +0.000 C 
ATOM     19  C   UNL     1       1.969   4.767  17.452  0.00  0.00    +0.000 C 
ATOM     20  C   UNL     1       3.165   5.468  18.161  0.00  0.00    +0.000 C 
ENDROOT
BRANCH   1  22
ATOM     21  C   UNL     1       1.246  11.117  18.761  0.00  0.00    +0.000 C 
ATOM     22  O   UNL     1       1.881   9.967  18.215  0.00  0.00    +0.000 OA
ENDBRANCH   1  22
BRANCH   9  23
ATOM     23  O   UNL     1       6.207   7.491  16.943  0.00  0.00    +0.000 OA
ATOM     24  H   UNL     1       5.652   8.260  16.743  0.00  0.00    +0.000 HD
ENDBRANCH   9  23
TORSDOF 2
ENDMDL
MODEL 3
REMARK VINA RESULT:      -6.7      7.202      9.137
REMARK  Name = 
REMARK  4 active torsions:
REMARK  status: ('A' for Active; 'I' for Inactive)
REMARK    1  A    between atoms: C_1  and  O_2
REMARK    2  A    between atoms: O_2  and  C_3
REMARK    3  A    between atoms: C_11  and  O_12
REMARK    4  A    between atoms: N_19  and  C_20
REMARK                            x       y       z     vdW  Elec       q    Type
REMARK                         _______ _______ _______ _____ _____    ______ ____
ROOT
ATOM      1  C   UNL     1      -4.137  11.216  17.809  0.00  0.00    +0.000 A 
ATOM      2  C   UNL     1      -3.381  10.274  17.093  0.00  0.00    +0.000 A 
ATOM      3  C   UNL     1      -2.034   9.964  17.463  0.00  0.00    +0.000 A 
ATOM      4  C   UNL     1      -1.386  10.629  18.510  0.00  0.00    +0.000 A 
ATOM      5  C   UNL     1      -2.102  11.643  19.075  0.00  0.00    +0.000 A 
ATOM      6  C   UNL     1      -3.453  11.899  18.789  0.00  0.00    +0.000 A 
ATOM      7  O   UNL     1      -4.000  12.723  19.771  0.00  0.00    +0.000 OA
ATOM      8  C   UNL     1      -3.036  12.417  20.806  0.00  0.00    +0.000 C 
ATOM      9  C   UNL     1      -3.299  12.836  22.249  0.00  0.00    +0.000 C 
ATOM     10  C   UNL     1      -2.248  12.198  23.129  0.00  0.00    +0.000 C 
ATOM     11  O   UNL     1      -1.040  12.917  23.301  0.00  0.00    +0.000 OA
ATOM     12  C   UNL     1      -0.946  11.696  22.492  0.00  0.00    +0.000 C 
ATOM     13  C   UNL     1      -0.549  12.070  21.092  0.00  0.00    +0.000 C 
ATOM     14  C   UNL     1       0.488  11.298  20.257  0.00  0.00    +0.000 C 
ATOM     15  C   UNL     1      -0.060  10.294  19.145  0.00  0.00    +0.000 C 
ATOM     16  N   UNL     1       1.297  12.349  19.569  0.00  0.00    +0.000 NA
ATOM     17  C   UNL     1       2.261  12.999  20.467  0.00  0.00    +0.000 C 
ATOM     18  C   UNL     1       0.447  13.319  18.819  0.00  0.00    +0.000 C 
ATOM     19  C   UNL     1      -0.993  13.716  19.377  0.00  0.00    +0.000 C 
ATOM     20  C   UNL     1      -1.641  12.543  20.172  0.00  0.00    +0.000 C 
ENDROOT
BRANCH   1  22
ATOM     21  C   UNL     1      -6.400  10.793  18.407  0.00  0.00    +0.000 C 
ATOM     22  O   UNL     1      -5.445  11.522  17.647  0.00  0.00    +0.000 OA
ENDBRANCH   1  22
BRANCH   9  23
ATOM     23  O   UNL     1      -4.567  12.270  22.660  0.00  0.00    +0.000 OA
ATOM     24  H   UNL     1      -4.453  11.779  23.488  0.00  0.00    +0.000 HD
ENDBRANCH   9  23
TORSDOF 2
ENDMDL
MODEL 4
REMARK VINA RESULT:      -6.7      8.869     11.150
REMARK  Name = 
REMARK  4 active torsions:
REMARK  status: ('A' for Active; 'I' for Inactive)
REMARK    1  A    between atoms: C_1  and  O_2
REMARK    2  A    between atoms: O_2  and  C_3
REMARK    3  A    between atoms: C_11  and  O_12
REMARK    4  A    between atoms: N_19  and  C_20
REMARK                            x       y       z     vdW  Elec       q    Type
REMARK                         _______ _______ _______ _____ _____    ______ ____
ROOT
ATOM      1  C   UNL     1       8.706  10.562  18.312  0.00  0.00    +0.000 A 
ATOM      2  C   UNL     1       9.538  10.187  19.380  0.00  0.00    +0.000 A 
ATOM      3  C   UNL     1      10.236  11.163  20.157  0.00  0.00    +0.000 A 
ATOM      4  C   UNL     1      10.178  12.528  19.853  0.00  0.00    +0.000 A 
ATOM      5  C   UNL     1       9.486  12.832  18.718  0.00  0.00    +0.000 A 
ATOM      6  C   UNL     1       8.720  11.902  17.996  0.00  0.00    +0.000 A 
ATOM      7  O   UNL     1       7.848  12.568  17.136  0.00  0.00    +0.000 OA
ATOM      8  C   UNL     1       7.838  13.828  17.847  0.00  0.00    +0.000 C 
ATOM      9  C   UNL     1       6.801  14.893  17.505  0.00  0.00    +0.000 C 
ATOM     10  C   UNL     1       6.887  15.991  18.540  0.00  0.00    +0.000 C 
ATOM     11  O   UNL     1       7.815  17.032  18.290  0.00  0.00    +0.000 OA
ATOM     12  C   UNL     1       8.160  16.120  19.387  0.00  0.00    +0.000 C 
ATOM     13  C   UNL     1       9.427  15.393  19.034  0.00  0.00    +0.000 C 
ATOM     14  C   UNL     1      10.577  15.140  20.025  0.00  0.00    +0.000 C 
ATOM     15  C   UNL     1      10.685  13.687  20.674  0.00  0.00    +0.000 C 
ATOM     16  N   UNL     1      11.828  15.389  19.245  0.00  0.00    +0.000 NA
ATOM     17  C   UNL     1      12.094  16.820  19.046  0.00  0.00    +0.000 C 
ATOM     18  C   UNL     1      11.873  14.602  17.978  0.00  0.00    +0.000 C 
ATOM     19  C   UNL     1      10.526  14.303  17.177  0.00  0.00    +0.000 C 
ATOM     20  C   UNL     1       9.303  14.194  18.135  0.00  0.00    +0.000 C 
ENDROOT
BRANCH   1  22
ATOM     21  C   UNL     1       7.979   8.360  17.780  0.00  0.00    +0.000 C 
ATOM     22  O   UNL     1       7.902   9.765  17.570  0.00  0.00    +0.000 OA
ENDBRANCH   1  22
BRANCH   9  23
ATOM     23  O   UNL     1       5.484  14.306  17.649  0.00  0.00    +0.000 OA
ATOM     24  H   UNL     1       5.560  13.431  18.060  0.00  0.00    +0.000 HD
ENDBRANCH   9  23
TORSDOF 2
ENDMDL
MODEL 5
REMARK VINA RESULT:      -6.4      7.317      9.398
REMARK  Name = 
REMARK  4 active torsions:
REMARK  status: ('A' for Active; 'I' for Inactive)
REMARK    1  A    between atoms: C_1  and  O_2
REMARK    2  A    between atoms: O_2  and  C_3
REMARK    3  A    between atoms: C_11  and  O_12
REMARK    4  A    between atoms: N_19  and  C_20
REMARK                            x       y       z     vdW  Elec       q    Type
REMARK                         _______ _______ _______ _____ _____    ______ ____
ROOT
ATOM      1  C   UNL     1      -5.454  12.801  19.387  0.00  0.00    +0.000 A 
ATOM      2  C   UNL     1      -5.400  12.117  18.162  0.00  0.00    +0.000 A 
ATOM      3  C   UNL     1      -4.210  11.448  17.735  0.00  0.00    +0.000 A 
ATOM      4  C   UNL     1      -3.027  11.499  18.481  0.00  0.00    +0.000 A 
ATOM      5  C   UNL     1      -3.079  12.302  19.582  0.00  0.00    +0.000 A 
ATOM      6  C   UNL     1      -4.259  12.889  20.067  0.00  0.00    +0.000 A 
ATOM      7  O   UNL     1      -4.073  13.320  21.379  0.00  0.00    +0.000 OA
ATOM      8  C   UNL     1      -2.958  12.451  21.687  0.00  0.00    +0.000 C 
ATOM      9  C   UNL     1      -2.493  12.282  23.130  0.00  0.00    +0.000 C 
ATOM     10  C   UNL     1      -1.477  11.164  23.174  0.00  0.00    +0.000 C 
ATOM     11  O   UNL     1      -0.126  11.520  22.941  0.00  0.00    +0.000 OA
ATOM     12  C   UNL     1      -0.773  10.743  21.878  0.00  0.00    +0.000 C 
ATOM     13  C   UNL     1      -0.833  11.581  20.632  0.00  0.00    +0.000 C 
ATOM     14  C   UNL     1      -0.525  11.047  19.222  0.00  0.00    +0.000 C 
ATOM     15  C   UNL     1      -1.763  10.702  18.277  0.00  0.00    +0.000 C 
ATOM     16  N   UNL     1       0.271  12.126  18.561  0.00  0.00    +0.000 NA
ATOM     17  C   UNL     1       1.663  12.167  19.029  0.00  0.00    +0.000 C 
ATOM     18  C   UNL     1      -0.408  13.452  18.622  0.00  0.00    +0.000 C 
ATOM     19  C   UNL     1      -1.298  13.835  19.891  0.00  0.00    +0.000 C 
ATOM     20  C   UNL     1      -1.957  12.575  20.527  0.00  0.00    +0.000 C 
ENDROOT
BRANCH   1  22
ATOM     21  C   UNL     1      -7.459  12.527  20.637  0.00  0.00    +0.000 C 
ATOM     22  O   UNL     1      -6.533  13.374  19.968  0.00  0.00    +0.000 OA
ENDBRANCH   1  22
BRANCH   9  23
ATOM     23  O   UNL     1      -3.621  11.833  23.920  0.00  0.00    +0.000 OA
ATOM     24  H   UNL     1      -3.373  11.801  24.856  0.00  0.00    +0.000 HD
ENDBRANCH   9  23
TORSDOF 2
ENDMDL
MODEL 6
REMARK VINA RESULT:      -6.1      2.618      5.270
REMARK  Name = 
REMARK  4 active torsions:
REMARK  status: ('A' for Active; 'I' for Inactive)
REMARK    1  A    between atoms: C_1  and  O_2
REMARK    2  A    between atoms: O_2  and  C_3
REMARK    3  A    between atoms: C_11  and  O_12
REMARK    4  A    between atoms: N_19  and  C_20
REMARK                            x       y       z     vdW  Elec       q    Type
REMARK                         _______ _______ _______ _____ _____    ______ ____
ROOT
ATOM      1  C   UNL     1       4.243   1.861  19.666  0.00  0.00    +0.000 A 
ATOM      2  C   UNL     1       2.902   1.569  19.370  0.00  0.00    +0.000 A 
ATOM      3  C   UNL     1       2.071   2.504  18.677  0.00  0.00    +0.000 A 
ATOM      4  C   UNL     1       2.532   3.776  18.320  0.00  0.00    +0.000 A 
ATOM      5  C   UNL     1       3.786   4.076  18.764  0.00  0.00    +0.000 A 
ATOM      6  C   UNL     1       4.648   3.142  19.362  0.00  0.00    +0.000 A 
ATOM      7  O   UNL     1       5.955   3.627  19.356  0.00  0.00    +0.000 OA
ATOM      8  C   UNL     1       5.782   4.567  18.270  0.00  0.00    +0.000 C 
ATOM      9  C   UNL     1       6.998   5.215  17.616  0.00  0.00    +0.000 C 
ATOM     10  C   UNL     1       6.534   5.965  16.388  0.00  0.00    +0.000 C 
ATOM     11  O   UNL     1       6.114   7.305  16.579  0.00  0.00    +0.000 OA
ATOM     12  C   UNL     1       5.053   6.343  16.259  0.00  0.00    +0.000 C 
ATOM     13  C   UNL     1       4.106   6.259  17.423  0.00  0.00    +0.000 C 
ATOM     14  C   UNL     1       2.575   6.212  17.284  0.00  0.00    +0.000 C 
ATOM     15  C   UNL     1       1.863   4.793  17.430  0.00  0.00    +0.000 C 
ATOM     16  N   UNL     1       2.056   7.100  18.369  0.00  0.00    +0.000 NA
ATOM     17  C   UNL     1       2.207   8.527  18.052  0.00  0.00    +0.000 C 
ATOM     18  C   UNL     1       2.600   6.736  19.709  0.00  0.00    +0.000 C 
ATOM     19  C   UNL     1       4.085   6.167  19.839  0.00  0.00    +0.000 C 
ATOM     20  C   UNL     1       4.505   5.370  18.569  0.00  0.00    +0.000 C 
ENDROOT
BRANCH   1  22
ATOM     21  C   UNL     1       5.290   1.008  21.624  0.00  0.00    +0.000 C 
ATOM     22  O   UNL     1       5.170   1.037  20.207  0.00  0.00    +0.000 OA
ENDBRANCH   1  22
BRANCH   9  23
ATOM     23  O   UNL     1       7.871   4.162  17.139  0.00  0.00    +0.000 OA
ATOM     24  H   UNL     1       7.465   3.720  16.378  0.00  0.00    +0.000 HD
ENDBRANCH   9  23
TORSDOF 2
ENDMDL
MODEL 7
REMARK VINA RESULT:      -6.1      8.892     10.216
REMARK  Name = 
REMARK  4 active torsions:
REMARK  status: ('A' for Active; 'I' for Inactive)
REMARK    1  A    between atoms: C_1  and  O_2
REMARK    2  A    between atoms: O_2  and  C_3
REMARK    3  A    between atoms: C_11  and  O_12
REMARK    4  A    between atoms: N_19  and  C_20
REMARK                            x       y       z     vdW  Elec       q    Type
REMARK                         _______ _______ _______ _____ _____    ______ ____
ROOT
ATOM      1  C   UNL     1       7.269  12.366  23.081  0.00  0.00    +0.000 A 
ATOM      2  C   UNL     1       6.333  13.413  23.084  0.00  0.00    +0.000 A 
ATOM      3  C   UNL     1       6.340  14.420  22.068  0.00  0.00    +0.000 A 
ATOM      4  C   UNL     1       7.315  14.450  21.065  0.00  0.00    +0.000 A 
ATOM      5  C   UNL     1       8.294  13.508  21.191  0.00  0.00    +0.000 A 
ATOM      6  C   UNL     1       8.254  12.458  22.122  0.00  0.00    +0.000 A 
ATOM      7  O   UNL     1       9.169  11.469  21.766  0.00  0.00    +0.000 OA
ATOM      8  C   UNL     1       9.260  11.819  20.364  0.00  0.00    +0.000 C 
ATOM      9  C   UNL     1       9.934  10.870  19.379  0.00  0.00    +0.000 C 
ATOM     10  C   UNL     1       9.687  11.385  17.979  0.00  0.00    +0.000 C 
ATOM     11  O   UNL     1      10.616  12.326  17.472  0.00  0.00    +0.000 OA
ATOM     12  C   UNL     1       9.281  12.851  17.783  0.00  0.00    +0.000 C 
ATOM     13  C   UNL     1       9.403  13.864  18.886  0.00  0.00    +0.000 C 
ATOM     14  C   UNL     1       8.650  15.206  18.907  0.00  0.00    +0.000 C 
ATOM     15  C   UNL     1       7.352  15.311  19.828  0.00  0.00    +0.000 C 
ATOM     16  N   UNL     1       9.646  16.205  19.403  0.00  0.00    +0.000 NA
ATOM     17  C   UNL     1      10.627  16.582  18.376  0.00  0.00    +0.000 C 
ATOM     18  C   UNL     1      10.275  15.789  20.690  0.00  0.00    +0.000 C 
ATOM     19  C   UNL     1      10.538  14.244  20.987  0.00  0.00    +0.000 C 
ATOM     20  C   UNL     1       9.476  13.340  20.294  0.00  0.00    +0.000 C 
ENDROOT
BRANCH   1  22
ATOM     21  C   UNL     1       6.632  11.378  25.148  0.00  0.00    +0.000 C 
ATOM     22  O   UNL     1       7.311  11.291  23.902  0.00  0.00    +0.000 OA
ENDBRANCH   1  22
BRANCH   9  23
ATOM     23  O   UNL     1       9.269   9.586  19.460  0.00  0.00    +0.000 OA
ATOM     24  H   UNL     1       8.399   9.694  19.874  0.00  0.00    +0.000 HD
ENDBRANCH   9  23
TORSDOF 2
ENDMDL
MODEL 8
REMARK VINA RESULT:      -6.0      9.887     12.139
REMARK  Name = 
REMARK  4 active torsions:
REMARK  status: ('A' for Active; 'I' for Inactive)
REMARK    1  A    between atoms: C_1  and  O_2
REMARK    2  A    between atoms: O_2  and  C_3
REMARK    3  A    between atoms: C_11  and  O_12
REMARK    4  A    between atoms: N_19  and  C_20
REMARK                            x       y       z     vdW  Elec       q    Type
REMARK                         _______ _______ _______ _____ _____    ______ ____
ROOT
ATOM      1  C   UNL     1       9.738  11.433  18.174  0.00  0.00    +0.000 A 
ATOM      2  C   UNL     1      10.864  11.183  18.976  0.00  0.00    +0.000 A 
ATOM      3  C   UNL     1      11.604  12.251  19.573  0.00  0.00    +0.000 A 
ATOM      4  C   UNL     1      11.286  13.593  19.333  0.00  0.00    +0.000 A 
ATOM      5  C   UNL     1      10.287  13.792  18.426  0.00  0.00    +0.000 A 
ATOM      6  C   UNL     1       9.490  12.760  17.903  0.00  0.00    +0.000 A 
ATOM      7  O   UNL     1       8.343  13.294  17.319  0.00  0.00    +0.000 OA
ATOM      8  C   UNL     1       8.350  14.547  18.044  0.00  0.00    +0.000 C 
ATOM      9  C   UNL     1       7.127  15.458  18.014  0.00  0.00    +0.000 C 
ATOM     10  C   UNL     1       7.335  16.565  19.022  0.00  0.00    +0.000 C 
ATOM     11  O   UNL     1       8.017  17.721  18.568  0.00  0.00    +0.000 OA
ATOM     12  C   UNL     1       8.756  16.873  19.511  0.00  0.00    +0.000 C 
ATOM     13  C   UNL     1       9.972  16.323  18.819  0.00  0.00    +0.000 C 
ATOM     14  C   UNL     1      11.364  16.236  19.469  0.00  0.00    +0.000 C 
ATOM     15  C   UNL     1      11.831  14.817  20.026  0.00  0.00    +0.000 C 
ATOM     16  N   UNL     1      12.322  16.648  18.397  0.00  0.00    +0.000 NA
ATOM     17  C   UNL     1      12.333  18.100  18.177  0.00  0.00    +0.000 C 
ATOM     18  C   UNL     1      12.138  15.865  17.141  0.00  0.00    +0.000 C 
ATOM     19  C   UNL     1      10.681  15.378  16.710  0.00  0.00    +0.000 C 
ATOM     20  C   UNL     1       9.777  15.111  17.950  0.00  0.00    +0.000 C 
ENDROOT
BRANCH   1  22
ATOM     21  C   UNL     1       8.596   9.359  18.402  0.00  0.00    +0.000 C 
ATOM     22  O   UNL     1       8.882  10.528  17.645  0.00  0.00    +0.000 OA
ENDBRANCH   1  22
BRANCH   9  23
ATOM     23  O   UNL     1       5.985  14.698  18.479  0.00  0.00    +0.000 OA
ATOM     24  H   UNL     1       6.218  14.221  19.290  0.00  0.00    +0.000 HD
ENDBRANCH   9  23
TORSDOF 2
ENDMDL
MODEL 9
REMARK VINA RESULT:      -5.9      2.129      5.086
REMARK  Name = 
REMARK  4 active torsions:
REMARK  status: ('A' for Active; 'I' for Inactive)
REMARK    1  A    between atoms: C_1  and  O_2
REMARK    2  A    between atoms: O_2  and  C_3
REMARK    3  A    between atoms: C_11  and  O_12
REMARK    4  A    between atoms: N_19  and  C_20
REMARK                            x       y       z     vdW  Elec       q    Type
REMARK                         _______ _______ _______ _____ _____    ______ ____
ROOT
ATOM      1  C   UNL     1       5.973   4.240  15.539  0.00  0.00    +0.000 A 
ATOM      2  C   UNL     1       6.713   5.387  15.868  0.00  0.00    +0.000 A 
ATOM      3  C   UNL     1       6.434   6.138  17.053  0.00  0.00    +0.000 A 
ATOM      4  C   UNL     1       5.372   5.808  17.903  0.00  0.00    +0.000 A 
ATOM      5  C   UNL     1       4.584   4.784  17.464  0.00  0.00    +0.000 A 
ATOM      6  C   UNL     1       4.895   3.978  16.356  0.00  0.00    +0.000 A 
ATOM      7  O   UNL     1       4.131   2.814  16.385  0.00  0.00    +0.000 OA
ATOM      8  C   UNL     1       3.841   2.834  17.802  0.00  0.00    +0.000 C 
ATOM      9  C   UNL     1       3.243   1.607  18.482  0.00  0.00    +0.000 C 
ATOM     10  C   UNL     1       3.257   1.836  19.976  0.00  0.00    +0.000 C 
ATOM     11  O   UNL     1       2.135   2.501  20.530  0.00  0.00    +0.000 OA
ATOM     12  C   UNL     1       3.386   3.268  20.510  0.00  0.00    +0.000 C 
ATOM     13  C   UNL     1       3.206   4.468  19.623  0.00  0.00    +0.000 C 
ATOM     14  C   UNL     1       3.718   5.877  19.969  0.00  0.00    +0.000 C 
ATOM     15  C   UNL     1       5.066   6.365  19.270  0.00  0.00    +0.000 C 
ATOM     16  N   UNL     1       2.622   6.805  19.553  0.00  0.00    +0.000 NA
ATOM     17  C   UNL     1       1.493   6.804  20.493  0.00  0.00    +0.000 C 
ATOM     18  C   UNL     1       2.206   6.591  18.136  0.00  0.00    +0.000 C 
ATOM     19  C   UNL     1       2.239   5.125  17.507  0.00  0.00    +0.000 C 
ATOM     20  C   UNL     1       3.365   4.256  18.143  0.00  0.00    +0.000 C 
ENDROOT
BRANCH   1  22
ATOM     21  C   UNL     1       6.286   3.901  13.206  0.00  0.00    +0.000 C 
ATOM     22  O   UNL     1       6.197   3.374  14.523  0.00  0.00    +0.000 OA
ENDBRANCH   1  22
BRANCH   9  23
ATOM     23  O   UNL     1       4.121   0.482  18.238  0.00  0.00    +0.000 OA
ATOM     24  H   UNL     1       4.997   0.801  17.972  0.00  0.00    +0.000 HD
ENDBRANCH   9  23
TORSDOF 2
ENDMDL
