MODEL 1
REMARK VINA RESULT:      -8.2      0.000      0.000
REMARK  Name = 
REMARK  5 active torsions:
REMARK  status: ('A' for Active; 'I' for Inactive)
REMARK    1  A    between atoms: C_1  and  C_2
REMARK    2  A    between atoms: N_4  and  C_5
REMARK    3  A    between atoms: C_14  and  O_16
REMARK    4  A    between atoms: O_16  and  C_17
REMARK    5  A    between atoms: C_21  and  N_22
REMARK                            x       y       z     vdW  Elec       q    Type
REMARK                         _______ _______ _______ _____ _____    ______ ____
ROOT
ATOM      1  C   UNL     1       1.582   9.555  23.187  0.00  0.00    +0.000 C 
ATOM      2  C   UNL     1       0.515   8.943  22.270  0.00  0.00    +0.000 C 
ATOM      3  C   UNL     1      -0.840   9.669  22.407  0.00  0.00    +0.000 C 
ATOM      4  N   UNL     1      -0.753  11.012  21.806  0.00  0.00    +0.000 N 
ATOM      5  C   UNL     1      -0.369  11.020  20.383  0.00  0.00    +0.000 C 
ATOM      6  C   UNL     1       0.960  10.262  20.196  0.00  0.00    +0.000 C 
ATOM      7  N   UNL     1       0.944   8.952  20.855  0.00  0.00    +0.000 N 
ATOM      8  C   UNL     1       1.418   7.839  20.190  0.00  0.00    +0.000 C 
ATOM      9  O   UNL     1       1.850   7.858  19.042  0.00  0.00    +0.000 OA
ENDROOT
BRANCH   4  10
ATOM     10  C   UNL     1      -1.204  12.132  22.473  0.00  0.00    +0.000 A 
ATOM     11  C   UNL     1      -0.473  13.334  22.457  0.00  0.00    +0.000 A 
ATOM     12  C   UNL     1      -0.923  14.489  23.104  0.00  0.00    +0.000 A 
ATOM     13  C   UNL     1      -2.130  14.474  23.788  0.00  0.00    +0.000 A 
ATOM     14  C   UNL     1      -2.881  13.305  23.820  0.00  0.00    +0.000 A 
ATOM     15  C   UNL     1      -2.420  12.153  23.171  0.00  0.00    +0.000 A 
ENDBRANCH   4  10
BRANCH   8  16
ATOM     16  O   UNL     1       1.370   6.695  20.975  0.00  0.00    +0.000 OA
BRANCH  16  17
ATOM     17  C   UNL     1       1.861   5.537  20.361  0.00  0.00    +0.000 A 
ATOM     18  C   UNL     1       1.166   4.351  20.558  0.00  0.00    +0.000 A 
ATOM     19  C   UNL     1       1.704   3.169  20.054  0.00  0.00    +0.000 A 
ATOM     20  C   UNL     1       2.926   3.184  19.366  0.00  0.00    +0.000 A 
ATOM     21  C   UNL     1       3.641   4.374  19.171  0.00  0.00    +0.000 A 
ATOM     22  C   UNL     1       3.089   5.545  19.695  0.00  0.00    +0.000 A 
BRANCH  21  23
ATOM     23  N   UNL     1       4.833   4.446  18.467  0.00  0.00    +0.000 N 
ATOM     24  C   UNL     1       5.055   3.622  17.277  0.00  0.00    +0.000 C 
ATOM     25  C   UNL     1       5.670   4.492  16.199  0.00  0.00    +0.000 C 
ATOM     26  S   UNL     1       7.199   5.176  16.776  0.00  0.00    +0.000 S 
ATOM     27  O   UNL     1       7.588   6.238  15.866  0.00  0.00    +0.000 OA
ATOM     28  O   UNL     1       8.113   4.080  17.045  0.00  0.00    +0.000 OA
ATOM     29  C   UNL     1       6.763   5.920  18.326  0.00  0.00    +0.000 C 
ATOM     30  C   UNL     1       6.032   4.908  19.180  0.00  0.00    +0.000 C 
ENDBRANCH  21  23
ENDBRANCH  16  17
ENDBRANCH   8  16
TORSDOF 4
ENDMDL
MODEL 2
REMARK VINA RESULT:      -8.1      3.368      4.765
REMARK  Name = 
REMARK  5 active torsions:
REMARK  status: ('A' for Active; 'I' for Inactive)
REMARK    1  A    between atoms: C_1  and  C_2
REMARK    2  A    between atoms: N_4  and  C_5
REMARK    3  A    between atoms: C_14  and  O_16
REMARK    4  A    between atoms: O_16  and  C_17
REMARK    5  A    between atoms: C_21  and  N_22
REMARK                            x       y       z     vdW  Elec       q    Type
REMARK                         _______ _______ _______ _____ _____    ______ ____
ROOT
ATOM      1  C   UNL     1      -2.273  12.321  20.124  0.00  0.00    +0.000 C 
ATOM      2  C   UNL     1      -0.850  12.089  19.599  0.00  0.00    +0.000 C 
ATOM      3  C   UNL     1      -0.368  13.260  18.717  0.00  0.00    +0.000 C 
ATOM      4  N   UNL     1      -0.121  14.449  19.550  0.00  0.00    +0.000 N 
ATOM      5  C   UNL     1       0.868  14.246  20.625  0.00  0.00    +0.000 C 
ATOM      6  C   UNL     1       0.447  13.052  21.505  0.00  0.00    +0.000 C 
ATOM      7  N   UNL     1       0.109  11.871  20.705  0.00  0.00    +0.000 N 
ATOM      8  C   UNL     1       0.592  10.630  21.068  0.00  0.00    +0.000 C 
ATOM      9  O   UNL     1       1.323  10.434  22.034  0.00  0.00    +0.000 OA
ENDROOT
BRANCH   4  10
ATOM     10  C   UNL     1      -0.618  15.689  19.206  0.00  0.00    +0.000 A 
ATOM     11  C   UNL     1      -1.622  16.310  19.972  0.00  0.00    +0.000 A 
ATOM     12  C   UNL     1      -2.123  17.577  19.656  0.00  0.00    +0.000 A 
ATOM     13  C   UNL     1      -1.626  18.265  18.558  0.00  0.00    +0.000 A 
ATOM     14  C   UNL     1      -0.630  17.683  17.782  0.00  0.00    +0.000 A 
ATOM     15  C   UNL     1      -0.138  16.412  18.106  0.00  0.00    +0.000 A 
ENDBRANCH   4  10
BRANCH   8  16
ATOM     16  O   UNL     1       0.139   9.621  20.229  0.00  0.00    +0.000 OA
BRANCH  16  17
ATOM     17  C   UNL     1       1.143   8.942  19.528  0.00  0.00    +0.000 A 
ATOM     18  C   UNL     1       1.694   9.563  18.416  0.00  0.00    +0.000 A 
ATOM     19  C   UNL     1       2.608   8.856  17.639  0.00  0.00    +0.000 A 
ATOM     20  C   UNL     1       2.956   7.540  17.977  0.00  0.00    +0.000 A 
ATOM     21  C   UNL     1       2.398   6.899  19.092  0.00  0.00    +0.000 A 
ATOM     22  C   UNL     1       1.475   7.624  19.850  0.00  0.00    +0.000 A 
BRANCH  21  23
ATOM     23  N   UNL     1       2.738   5.615  19.489  0.00  0.00    +0.000 N 
ATOM     24  C   UNL     1       1.818   4.807  20.291  0.00  0.00    +0.000 C 
ATOM     25  C   UNL     1       1.779   3.407  19.712  0.00  0.00    +0.000 C 
ATOM     26  S   UNL     1       3.404   2.702  19.730  0.00  0.00    +0.000 S 
ATOM     27  O   UNL     1       3.390   1.519  18.889  0.00  0.00    +0.000 OA
ATOM     28  O   UNL     1       3.841   2.605  21.111  0.00  0.00    +0.000 OA
ATOM     29  C   UNL     1       4.400   3.930  18.924  0.00  0.00    +0.000 C 
ATOM     30  C   UNL     1       4.164   5.273  19.579  0.00  0.00    +0.000 C 
ENDBRANCH  21  23
ENDBRANCH  16  17
ENDBRANCH   8  16
TORSDOF 4
ENDMDL
MODEL 3
REMARK VINA RESULT:      -8.0      2.468      3.225
REMARK  Name = 
REMARK  5 active torsions:
REMARK  status: ('A' for Active; 'I' for Inactive)
REMARK    1  A    between atoms: C_1  and  C_2
REMARK    2  A    between atoms: N_4  and  C_5
REMARK    3  A    between atoms: C_14  and  O_16
REMARK    4  A    between atoms: O_16  and  C_17
REMARK    5  A    between atoms: C_21  and  N_22
REMARK                            x       y       z     vdW  Elec       q    Type
REMARK                         _______ _______ _______ _____ _____    ______ ____
ROOT
ATOM      1  C   UNL     1      -0.792  11.023  18.472  0.00  0.00    +0.000 C 
ATOM      2  C   UNL     1       0.703  10.812  18.740  0.00  0.00    +0.000 C 
ATOM      3  C   UNL     1       1.516  12.099  18.488  0.00  0.00    +0.000 C 
ATOM      4  N   UNL     1       1.225  13.092  19.537  0.00  0.00    +0.000 N 
ATOM      5  C   UNL     1       1.509  12.630  20.908  0.00  0.00    +0.000 C 
ATOM      6  C   UNL     1       0.751  11.318  21.186  0.00  0.00    +0.000 C 
ATOM      7  N   UNL     1       0.946  10.332  20.118  0.00  0.00    +0.000 N 
ATOM      8  C   UNL     1       1.229   9.018  20.435  0.00  0.00    +0.000 C 
ATOM      9  O   UNL     1       1.352   8.601  21.581  0.00  0.00    +0.000 OA
ENDROOT
BRANCH   4  10
ATOM     10  C   UNL     1       0.920  14.401  19.228  0.00  0.00    +0.000 A 
ATOM     11  C   UNL     1       1.881  15.261  18.664  0.00  0.00    +0.000 A 
ATOM     12  C   UNL     1       1.587  16.584  18.320  0.00  0.00    +0.000 A 
ATOM     13  C   UNL     1       0.310  17.087  18.530  0.00  0.00    +0.000 A 
ATOM     14  C   UNL     1      -0.665  16.264  19.081  0.00  0.00    +0.000 A 
ATOM     15  C   UNL     1      -0.359  14.941  19.424  0.00  0.00    +0.000 A 
ENDBRANCH   4  10
BRANCH   8  16
ATOM     16  O   UNL     1       1.339   8.216  19.307  0.00  0.00    +0.000 OA
BRANCH  16  17
ATOM     17  C   UNL     1       1.977   6.988  19.517  0.00  0.00    +0.000 A 
ATOM     18  C   UNL     1       1.486   6.163  20.519  0.00  0.00    +0.000 A 
ATOM     19  C   UNL     1       2.178   4.992  20.821  0.00  0.00    +0.000 A 
ATOM     20  C   UNL     1       3.349   4.663  20.124  0.00  0.00    +0.000 A 
ATOM     21  C   UNL     1       3.860   5.494  19.116  0.00  0.00    +0.000 A 
ATOM     22  C   UNL     1       3.156   6.668  18.839  0.00  0.00    +0.000 A 
BRANCH  21  23
ATOM     23  N   UNL     1       4.992   5.193  18.375  0.00  0.00    +0.000 N 
ATOM     24  C   UNL     1       5.106   3.923  17.657  0.00  0.00    +0.000 C 
ATOM     25  C   UNL     1       5.643   4.203  16.268  0.00  0.00    +0.000 C 
ATOM     26  S   UNL     1       7.223   4.997  16.382  0.00  0.00    +0.000 S 
ATOM     27  O   UNL     1       7.550   5.534  15.073  0.00  0.00    +0.000 OA
ATOM     28  O   UNL     1       8.141   4.088  17.043  0.00  0.00    +0.000 OA
ATOM     29  C   UNL     1       6.923   6.365  17.470  0.00  0.00    +0.000 C 
ATOM     30  C   UNL     1       6.250   5.865  18.729  0.00  0.00    +0.000 C 
ENDBRANCH  21  23
ENDBRANCH  16  17
ENDBRANCH   8  16
TORSDOF 4
ENDMDL
MODEL 4
REMARK VINA RESULT:      -8.0      1.775      2.278
REMARK  Name = 
REMARK  5 active torsions:
REMARK  status: ('A' for Active; 'I' for Inactive)
REMARK    1  A    between atoms: C_1  and  C_2
REMARK    2  A    between atoms: N_4  and  C_5
REMARK    3  A    between atoms: C_14  and  O_16
REMARK    4  A    between atoms: O_16  and  C_17
REMARK    5  A    between atoms: C_21  and  N_22
REMARK                            x       y       z     vdW  Elec       q    Type
REMARK                         _______ _______ _______ _____ _____    ______ ____
ROOT
ATOM      1  C   UNL     1       1.282  12.269  20.422  0.00  0.00    +0.000 C 
ATOM      2  C   UNL     1       0.468  10.973  20.527  0.00  0.00    +0.000 C 
ATOM      3  C   UNL     1      -0.926  11.221  21.141  0.00  0.00    +0.000 C 
ATOM      4  N   UNL     1      -1.772  11.955  20.184  0.00  0.00    +0.000 N 
ATOM      5  C   UNL     1      -1.955  11.278  18.888  0.00  0.00    +0.000 C 
ATOM      6  C   UNL     1      -0.581  10.969  18.260  0.00  0.00    +0.000 C 
ATOM      7  N   UNL     1       0.322  10.314  19.211  0.00  0.00    +0.000 N 
ATOM      8  C   UNL     1       1.059   9.214  18.817  0.00  0.00    +0.000 C 
ATOM      9  O   UNL     1       0.999   8.713  17.699  0.00  0.00    +0.000 OA
ENDROOT
BRANCH   4  10
ATOM     10  C   UNL     1      -2.494  13.068  20.564  0.00  0.00    +0.000 A 
ATOM     11  C   UNL     1      -3.892  13.116  20.417  0.00  0.00    +0.000 A 
ATOM     12  C   UNL     1      -4.647  14.223  20.818  0.00  0.00    +0.000 A 
ATOM     13  C   UNL     1      -4.017  15.321  21.386  0.00  0.00    +0.000 A 
ATOM     14  C   UNL     1      -2.637  15.306  21.550  0.00  0.00    +0.000 A 
ATOM     15  C   UNL     1      -1.890  14.193  21.143  0.00  0.00    +0.000 A 
ENDBRANCH   4  10
BRANCH   8  16
ATOM     16  O   UNL     1       1.892   8.748  19.826  0.00  0.00    +0.000 OA
BRANCH  16  17
ATOM     17  C   UNL     1       2.244   7.398  19.723  0.00  0.00    +0.000 A 
ATOM     18  C   UNL     1       1.511   6.476  20.457  0.00  0.00    +0.000 A 
ATOM     19  C   UNL     1       1.920   5.145  20.461  0.00  0.00    +0.000 A 
ATOM     20  C   UNL     1       3.055   4.752  19.737  0.00  0.00    +0.000 A 
ATOM     21  C   UNL     1       3.809   5.675  19.000  0.00  0.00    +0.000 A 
ATOM     22  C   UNL     1       3.387   7.007  19.021  0.00  0.00    +0.000 A 
BRANCH  21  23
ATOM     23  N   UNL     1       4.915   5.330  18.239  0.00  0.00    +0.000 N 
ATOM     24  C   UNL     1       5.003   4.021  17.590  0.00  0.00    +0.000 C 
ATOM     25  C   UNL     1       5.495   4.221  16.171  0.00  0.00    +0.000 C 
ATOM     26  S   UNL     1       7.079   5.014  16.188  0.00  0.00    +0.000 S 
ATOM     27  O   UNL     1       7.365   5.476  14.842  0.00  0.00    +0.000 OA
ATOM     28  O   UNL     1       8.016   4.139  16.869  0.00  0.00    +0.000 OA
ATOM     29  C   UNL     1       6.818   6.441  17.209  0.00  0.00    +0.000 C 
ATOM     30  C   UNL     1       6.186   6.014  18.514  0.00  0.00    +0.000 C 
ENDBRANCH  21  23
ENDBRANCH  16  17
ENDBRANCH   8  16
TORSDOF 4
ENDMDL
MODEL 5
REMARK VINA RESULT:      -7.9      2.121      2.954
REMARK  Name = 
REMARK  5 active torsions:
REMARK  status: ('A' for Active; 'I' for Inactive)
REMARK    1  A    between atoms: C_1  and  C_2
REMARK    2  A    between atoms: N_4  and  C_5
REMARK    3  A    between atoms: C_14  and  O_16
REMARK    4  A    between atoms: O_16  and  C_17
REMARK    5  A    between atoms: C_21  and  N_22
REMARK                            x       y       z     vdW  Elec       q    Type
REMARK                         _______ _______ _______ _____ _____    ______ ____
ROOT
ATOM      1  C   UNL     1       1.082  13.486  19.120  0.00  0.00    +0.000 C 
ATOM      2  C   UNL     1       0.893  12.106  19.762  0.00  0.00    +0.000 C 
ATOM      3  C   UNL     1       0.573  12.215  21.268  0.00  0.00    +0.000 C 
ATOM      4  N   UNL     1      -0.786  12.751  21.455  0.00  0.00    +0.000 N 
ATOM      5  C   UNL     1      -1.850  11.955  20.816  0.00  0.00    +0.000 C 
ATOM      6  C   UNL     1      -1.544  11.782  19.314  0.00  0.00    +0.000 C 
ATOM      7  N   UNL     1      -0.168  11.331  19.082  0.00  0.00    +0.000 N 
ATOM      8  C   UNL     1       0.081  10.311  18.185  0.00  0.00    +0.000 C 
ATOM      9  O   UNL     1      -0.793   9.720  17.559  0.00  0.00    +0.000 OA
ENDROOT
BRANCH   4  10
ATOM     10  C   UNL     1      -1.041  13.784  22.333  0.00  0.00    +0.000 A 
ATOM     11  C   UNL     1      -0.098  14.806  22.550  0.00  0.00    +0.000 A 
ATOM     12  C   UNL     1      -0.345  15.876  23.415  0.00  0.00    +0.000 A 
ATOM     13  C   UNL     1      -1.554  15.956  24.091  0.00  0.00    +0.000 A 
ATOM     14  C   UNL     1      -2.511  14.967  23.896  0.00  0.00    +0.000 A 
ATOM     15  C   UNL     1      -2.252  13.898  23.029  0.00  0.00    +0.000 A 
ENDBRANCH   4  10
BRANCH   8  16
ATOM     16  O   UNL     1       1.437  10.042  18.055  0.00  0.00    +0.000 OA
BRANCH  16  17
ATOM     17  C   UNL     1       1.838   8.789  18.532  0.00  0.00    +0.000 A 
ATOM     18  C   UNL     1       1.357   8.378  19.768  0.00  0.00    +0.000 A 
ATOM     19  C   UNL     1       1.837   7.189  20.311  0.00  0.00    +0.000 A 
ATOM     20  C   UNL     1       2.790   6.429  19.618  0.00  0.00    +0.000 A 
ATOM     21  C   UNL     1       3.291   6.839  18.374  0.00  0.00    +0.000 A 
ATOM     22  C   UNL     1       2.804   8.041  17.855  0.00  0.00    +0.000 A 
BRANCH  21  23
ATOM     23  N   UNL     1       4.204   6.104  17.635  0.00  0.00    +0.000 N 
ATOM     24  C   UNL     1       4.887   6.693  16.482  0.00  0.00    +0.000 C 
ATOM     25  C   UNL     1       6.357   6.329  16.557  0.00  0.00    +0.000 C 
ATOM     26  S   UNL     1       6.541   4.567  16.555  0.00  0.00    +0.000 S 
ATOM     27  O   UNL     1       7.904   4.258  16.950  0.00  0.00    +0.000 OA
ATOM     28  O   UNL     1       6.015   4.058  15.302  0.00  0.00    +0.000 OA
ATOM     29  C   UNL     1       5.464   4.035  17.860  0.00  0.00    +0.000 C 
ATOM     30  C   UNL     1       4.093   4.639  17.655  0.00  0.00    +0.000 C 
ENDBRANCH  21  23
ENDBRANCH  16  17
ENDBRANCH   8  16
TORSDOF 4
ENDMDL
MODEL 6
REMARK VINA RESULT:      -7.9      2.021      2.881
REMARK  Name = 
REMARK  5 active torsions:
REMARK  status: ('A' for Active; 'I' for Inactive)
REMARK    1  A    between atoms: C_1  and  C_2
REMARK    2  A    between atoms: N_4  and  C_5
REMARK    3  A    between atoms: C_14  and  O_16
REMARK    4  A    between atoms: O_16  and  C_17
REMARK    5  A    between atoms: C_21  and  N_22
REMARK                            x       y       z     vdW  Elec       q    Type
REMARK                         _______ _______ _______ _____ _____    ______ ____
ROOT
ATOM      1  C   UNL     1      -1.147  10.824  18.632  0.00  0.00    +0.000 C 
ATOM      2  C   UNL     1       0.320  10.933  19.068  0.00  0.00    +0.000 C 
ATOM      3  C   UNL     1       0.810  12.397  19.062  0.00  0.00    +0.000 C 
ATOM      4  N   UNL     1       0.179  13.143  20.165  0.00  0.00    +0.000 N 
ATOM      5  C   UNL     1       0.430  12.579  21.504  0.00  0.00    +0.000 C 
ATOM      6  C   UNL     1      -0.005  11.100  21.539  0.00  0.00    +0.000 C 
ATOM      7  N   UNL     1       0.535  10.341  20.406  0.00  0.00    +0.000 N 
ATOM      8  C   UNL     1       1.101   9.099  20.615  0.00  0.00    +0.000 C 
ATOM      9  O   UNL     1       1.208   8.571  21.716  0.00  0.00    +0.000 OA
ENDROOT
BRANCH   4  10
ATOM     10  C   UNL     1      -0.408  14.374  19.961  0.00  0.00    +0.000 A 
ATOM     11  C   UNL     1      -1.357  14.888  20.864  0.00  0.00    +0.000 A 
ATOM     12  C   UNL     1      -1.946  16.144  20.692  0.00  0.00    +0.000 A 
ATOM     13  C   UNL     1      -1.595  16.930  19.603  0.00  0.00    +0.000 A 
ATOM     14  C   UNL     1      -0.657  16.456  18.693  0.00  0.00    +0.000 A 
ATOM     15  C   UNL     1      -0.075  15.195  18.874  0.00  0.00    +0.000 A 
ENDBRANCH   4  10
BRANCH   8  16
ATOM     16  O   UNL     1       1.518   8.505  19.431  0.00  0.00    +0.000 OA
BRANCH  16  17
ATOM     17  C   UNL     1       2.065   7.225  19.575  0.00  0.00    +0.000 A 
ATOM     18  C   UNL     1       1.502   6.379  20.521  0.00  0.00    +0.000 A 
ATOM     19  C   UNL     1       2.105   5.147  20.761  0.00  0.00    +0.000 A 
ATOM     20  C   UNL     1       3.260   4.776  20.059  0.00  0.00    +0.000 A 
ATOM     21  C   UNL     1       3.843   5.626  19.108  0.00  0.00    +0.000 A 
ATOM     22  C   UNL     1       3.229   6.861  18.893  0.00  0.00    +0.000 A 
BRANCH  21  23
ATOM     23  N   UNL     1       4.962   5.289  18.362  0.00  0.00    +0.000 N 
ATOM     24  C   UNL     1       5.037   4.011  17.652  0.00  0.00    +0.000 C 
ATOM     25  C   UNL     1       5.574   4.267  16.258  0.00  0.00    +0.000 C 
ATOM     26  S   UNL     1       7.176   5.018  16.359  0.00  0.00    +0.000 S 
ATOM     27  O   UNL     1       7.511   5.537  15.045  0.00  0.00    +0.000 OA
ATOM     28  O   UNL     1       8.072   4.087  17.021  0.00  0.00    +0.000 OA
ATOM     29  C   UNL     1       6.921   6.400  17.441  0.00  0.00    +0.000 C 
ATOM     30  C   UNL     1       6.241   5.927  18.706  0.00  0.00    +0.000 C 
ENDBRANCH  21  23
ENDBRANCH  16  17
ENDBRANCH   8  16
TORSDOF 4
ENDMDL
MODEL 7
REMARK VINA RESULT:      -7.8      2.784      4.386
REMARK  Name = 
REMARK  5 active torsions:
REMARK  status: ('A' for Active; 'I' for Inactive)
REMARK    1  A    between atoms: C_1  and  C_2
REMARK    2  A    between atoms: N_4  and  C_5
REMARK    3  A    between atoms: C_14  and  O_16
REMARK    4  A    between atoms: O_16  and  C_17
REMARK    5  A    between atoms: C_21  and  N_22
REMARK                            x       y       z     vdW  Elec       q    Type
REMARK                         _______ _______ _______ _____ _____    ______ ____
ROOT
ATOM      1  C   UNL     1       0.027  13.581  21.927  0.00  0.00    +0.000 C 
ATOM      2  C   UNL     1      -0.766  12.287  22.153  0.00  0.00    +0.000 C 
ATOM      3  C   UNL     1      -1.853  12.464  23.234  0.00  0.00    +0.000 C 
ATOM      4  N   UNL     1      -2.938  13.319  22.721  0.00  0.00    +0.000 N 
ATOM      5  C   UNL     1      -3.584  12.814  21.496  0.00  0.00    +0.000 C 
ATOM      6  C   UNL     1      -2.524  12.578  20.402  0.00  0.00    +0.000 C 
ATOM      7  N   UNL     1      -1.384  11.802  20.900  0.00  0.00    +0.000 N 
ATOM      8  C   UNL     1      -0.882  10.756  20.151  0.00  0.00    +0.000 C 
ATOM      9  O   UNL     1      -1.343  10.402  19.071  0.00  0.00    +0.000 OA
ENDROOT
BRANCH   4  10
ATOM     10  C   UNL     1      -3.430  14.379  23.453  0.00  0.00    +0.000 A 
ATOM     11  C   UNL     1      -2.607  15.102  24.335  0.00  0.00    +0.000 A 
ATOM     12  C   UNL     1      -3.078  16.196  25.068  0.00  0.00    +0.000 A 
ATOM     13  C   UNL     1      -4.398  16.602  24.934  0.00  0.00    +0.000 A 
ATOM     14  C   UNL     1      -5.239  15.914  24.067  0.00  0.00    +0.000 A 
ATOM     15  C   UNL     1      -4.757  14.818  23.340  0.00  0.00    +0.000 A 
ENDBRANCH   4  10
BRANCH   8  16
ATOM     16  O   UNL     1       0.221  10.161  20.749  0.00  0.00    +0.000 OA
BRANCH  16  17
ATOM     17  C   UNL     1       1.063   9.466  19.874  0.00  0.00    +0.000 A 
ATOM     18  C   UNL     1       1.506  10.125  18.736  0.00  0.00    +0.000 A 
ATOM     19  C   UNL     1       2.248   9.413  17.796  0.00  0.00    +0.000 A 
ATOM     20  C   UNL     1       2.534   8.056  18.001  0.00  0.00    +0.000 A 
ATOM     21  C   UNL     1       2.083   7.377  19.142  0.00  0.00    +0.000 A 
ATOM     22  C   UNL     1       1.331   8.108  20.065  0.00  0.00    +0.000 A 
BRANCH  21  23
ATOM     23  N   UNL     1       2.371   6.048  19.407  0.00  0.00    +0.000 N 
ATOM     24  C   UNL     1       1.941   5.419  20.656  0.00  0.00    +0.000 C 
ATOM     25  C   UNL     1       1.356   4.058  20.333  0.00  0.00    +0.000 C 
ATOM     26  S   UNL     1       2.572   3.059  19.520  0.00  0.00    +0.000 S 
ATOM     27  O   UNL     1       1.897   1.910  18.945  0.00  0.00    +0.000 OA
ATOM     28  O   UNL     1       3.684   2.864  20.434  0.00  0.00    +0.000 OA
ATOM     29  C   UNL     1       3.131   4.085  18.186  0.00  0.00    +0.000 C 
ATOM     30  C   UNL     1       3.525   5.441  18.728  0.00  0.00    +0.000 C 
ENDBRANCH  21  23
ENDBRANCH  16  17
ENDBRANCH   8  16
TORSDOF 4
ENDMDL
MODEL 8
REMARK VINA RESULT:      -7.7      2.270      3.144
REMARK  Name = 
REMARK  5 active torsions:
REMARK  status: ('A' for Active; 'I' for Inactive)
REMARK    1  A    between atoms: C_1  and  C_2
REMARK    2  A    between atoms: N_4  and  C_5
REMARK    3  A    between atoms: C_14  and  O_16
REMARK    4  A    between atoms: O_16  and  C_17
REMARK    5  A    between atoms: C_21  and  N_22
REMARK                            x       y       z     vdW  Elec       q    Type
REMARK                         _______ _______ _______ _____ _____    ______ ____
ROOT
ATOM      1  C   UNL     1       0.909  13.587  18.783  0.00  0.00    +0.000 C 
ATOM      2  C   UNL     1       0.745  12.271  19.554  0.00  0.00    +0.000 C 
ATOM      3  C   UNL     1       0.428  12.517  21.044  0.00  0.00    +0.000 C 
ATOM      4  N   UNL     1      -0.939  13.047  21.187  0.00  0.00    +0.000 N 
ATOM      5  C   UNL     1      -1.991  12.176  20.631  0.00  0.00    +0.000 C 
ATOM      6  C   UNL     1      -1.687  11.867  19.151  0.00  0.00    +0.000 C 
ATOM      7  N   UNL     1      -0.305  11.418  18.956  0.00  0.00    +0.000 N 
ATOM      8  C   UNL     1      -0.042  10.322  18.159  0.00  0.00    +0.000 C 
ATOM      9  O   UNL     1      -0.907   9.660  17.596  0.00  0.00    +0.000 OA
ENDROOT
BRANCH   4  10
ATOM     10  C   UNL     1      -1.208  14.155  21.964  0.00  0.00    +0.000 A 
ATOM     11  C   UNL     1      -1.669  15.353  21.390  0.00  0.00    +0.000 A 
ATOM     12  C   UNL     1      -1.972  16.480  22.160  0.00  0.00    +0.000 A 
ATOM     13  C   UNL     1      -1.824  16.437  23.539  0.00  0.00    +0.000 A 
ATOM     14  C   UNL     1      -1.375  15.267  24.140  0.00  0.00    +0.000 A 
ATOM     15  C   UNL     1      -1.072  14.145  23.359  0.00  0.00    +0.000 A 
ENDBRANCH   4  10
BRANCH   8  16
ATOM     16  O   UNL     1       1.318  10.064  18.049  0.00  0.00    +0.000 OA
BRANCH  16  17
ATOM     17  C   UNL     1       1.729   8.830  18.566  0.00  0.00    +0.000 A 
ATOM     18  C   UNL     1       1.272   8.469  19.826  0.00  0.00    +0.000 A 
ATOM     19  C   UNL     1       1.762   7.301  20.407  0.00  0.00    +0.000 A 
ATOM     20  C   UNL     1       2.702   6.514  19.726  0.00  0.00    +0.000 A 
ATOM     21  C   UNL     1       3.178   6.874  18.458  0.00  0.00    +0.000 A 
ATOM     22  C   UNL     1       2.682   8.055  17.901  0.00  0.00    +0.000 A 
BRANCH  21  23
ATOM     23  N   UNL     1       4.077   6.111  17.731  0.00  0.00    +0.000 N 
ATOM     24  C   UNL     1       4.261   4.687  18.018  0.00  0.00    +0.000 C 
ATOM     25  C   UNL     1       4.286   3.931  16.704  0.00  0.00    +0.000 C 
ATOM     26  S   UNL     1       5.604   4.536  15.687  0.00  0.00    +0.000 S 
ATOM     27  O   UNL     1       5.399   4.031  14.341  0.00  0.00    +0.000 OA
ATOM     28  O   UNL     1       6.858   4.284  16.373  0.00  0.00    +0.000 OA
ATOM     29  C   UNL     1       5.336   6.289  15.656  0.00  0.00    +0.000 C 
ATOM     30  C   UNL     1       5.197   6.799  17.073  0.00  0.00    +0.000 C 
ENDBRANCH  21  23
ENDBRANCH  16  17
ENDBRANCH   8  16
TORSDOF 4
ENDMDL
MODEL 9
REMARK VINA RESULT:      -7.7      2.782      3.623
REMARK  Name = 
REMARK  5 active torsions:
REMARK  status: ('A' for Active; 'I' for Inactive)
REMARK    1  A    between atoms: C_1  and  C_2
REMARK    2  A    between atoms: N_4  and  C_5
REMARK    3  A    between atoms: C_14  and  O_16
REMARK    4  A    between atoms: O_16  and  C_17
REMARK    5  A    between atoms: C_21  and  N_22
REMARK                            x       y       z     vdW  Elec       q    Type
REMARK                         _______ _______ _______ _____ _____    ______ ____
ROOT
ATOM      1  C   UNL     1      -1.060  11.397  18.962  0.00  0.00    +0.000 C 
ATOM      2  C   UNL     1       0.429  11.026  18.938  0.00  0.00    +0.000 C 
ATOM      3  C   UNL     1       1.296  12.180  18.393  0.00  0.00    +0.000 C 
ATOM      4  N   UNL     1       1.342  13.280  19.372  0.00  0.00    +0.000 N 
ATOM      5  C   UNL     1       1.866  12.896  20.696  0.00  0.00    +0.000 C 
ATOM      6  C   UNL     1       1.054  11.712  21.257  0.00  0.00    +0.000 C 
ATOM      7  N   UNL     1       0.912  10.630  20.279  0.00  0.00    +0.000 N 
ATOM      8  C   UNL     1       1.119   9.320  20.664  0.00  0.00    +0.000 C 
ATOM      9  O   UNL     1       1.443   8.982  21.798  0.00  0.00    +0.000 OA
ENDROOT
BRANCH   4  10
ATOM     10  C   UNL     1       1.114  14.589  19.000  0.00  0.00    +0.000 A 
ATOM     11  C   UNL     1       2.175  15.437  18.632  0.00  0.00    +0.000 A 
ATOM     12  C   UNL     1       1.965  16.759  18.228  0.00  0.00    +0.000 A 
ATOM     13  C   UNL     1       0.676  17.272  18.175  0.00  0.00    +0.000 A 
ATOM     14  C   UNL     1      -0.395  16.459  18.527  0.00  0.00    +0.000 A 
ATOM     15  C   UNL     1      -0.174  15.138  18.934  0.00  0.00    +0.000 A 
ENDBRANCH   4  10
BRANCH   8  16
ATOM     16  O   UNL     1       0.901   8.424  19.626  0.00  0.00    +0.000 OA
BRANCH  16  17
ATOM     17  C   UNL     1       1.695   7.272  19.663  0.00  0.00    +0.000 A 
ATOM     18  C   UNL     1       1.411   6.318  20.631  0.00  0.00    +0.000 A 
ATOM     19  C   UNL     1       2.262   5.223  20.760  0.00  0.00    +0.000 A 
ATOM     20  C   UNL     1       3.383   5.095  19.927  0.00  0.00    +0.000 A 
ATOM     21  C   UNL     1       3.685   6.058  18.953  0.00  0.00    +0.000 A 
ATOM     22  C   UNL     1       2.825   7.154  18.851  0.00  0.00    +0.000 A 
BRANCH  21  23
ATOM     23  N   UNL     1       4.758   5.958  18.083  0.00  0.00    +0.000 N 
ATOM     24  C   UNL     1       6.049   5.437  18.536  0.00  0.00    +0.000 C 
ATOM     25  C   UNL     1       6.564   4.460  17.497  0.00  0.00    +0.000 C 
ATOM     26  S   UNL     1       6.737   5.279  15.935  0.00  0.00    +0.000 S 
ATOM     27  O   UNL     1       6.913   4.263  14.913  0.00  0.00    +0.000 OA
ATOM     28  O   UNL     1       7.721   6.336  16.084  0.00  0.00    +0.000 OA
ATOM     29  C   UNL     1       5.152   6.034  15.683  0.00  0.00    +0.000 C 
ATOM     30  C   UNL     1       4.781   6.840  16.908  0.00  0.00    +0.000 C 
ENDBRANCH  21  23
ENDBRANCH  16  17
ENDBRANCH   8  16
TORSDOF 4
ENDMDL
