MODEL 1
REMARK VINA RESULT:      -7.0      0.000      0.000
REMARK  Name = 
REMARK  6 active torsions:
REMARK  status: ('A' for Active; 'I' for Inactive)
REMARK    1  A    between atoms: C_1  and  C_2
REMARK    2  A    between atoms: C_2  and  S_3
REMARK    3  A    between atoms: S_3  and  N_6
REMARK    4  A    between atoms: N_9  and  C_10
REMARK    5  A    between atoms: C_13  and  C_14
REMARK    6  A    between atoms: C_14  and  C_15
REMARK                            x       y       z     vdW  Elec       q    Type
REMARK                         _______ _______ _______ _____ _____    ______ ____
ROOT
ATOM      1  N   UNL     1       5.680   4.492  17.495  0.00  0.00    +0.000 NA
ATOM      2  C   UNL     1       4.841   4.388  18.737  0.00  0.00    +0.000 C 
ATOM      3  C   UNL     1       4.543   5.783  19.317  0.00  0.00    +0.000 C 
ATOM      4  N   UNL     1       3.813   6.554  18.296  0.00  0.00    +0.000 N 
ATOM      5  C   UNL     1       4.518   6.703  17.005  0.00  0.00    +0.000 C 
ATOM      6  C   UNL     1       4.960   5.318  16.462  0.00  0.00    +0.000 C 
ENDROOT
BRANCH   4   7
ATOM      7  C   UNL     1       2.785   7.407  18.644  0.00  0.00    +0.000 A 
ATOM      8  C   UNL     1       2.310   8.412  17.791  0.00  0.00    +0.000 A 
ATOM      9  C   UNL     1       1.340   9.341  18.203  0.00  0.00    +0.000 A 
ATOM     10  C   UNL     1       0.819   9.286  19.497  0.00  0.00    +0.000 A 
ATOM     11  C   UNL     1       1.263   8.273  20.350  0.00  0.00    +0.000 A 
ATOM     12  C   UNL     1       2.224   7.349  19.926  0.00  0.00    +0.000 A 
BRANCH  10  13
ATOM     13  C   UNL     1      -0.176  10.261  20.040  0.00  0.00    +0.000 C 
ATOM     14  C   UNL     1      -1.246  10.857  19.162  0.00  0.00    +0.000 C 
ATOM     15  O   UNL     1      -0.118  10.580  21.229  0.00  0.00    +0.000 OA
ENDBRANCH  10  13
ENDBRANCH   4   7
BRANCH   1  16
ATOM     16  S   UNL     1       7.313   4.883  17.776  0.00  0.00    +0.000 S 
ATOM     17  O   UNL     1       8.116   4.105  16.858  0.00  0.00    +0.000 OA
ATOM     18  O   UNL     1       7.556   4.850  19.202  0.00  0.00    +0.000 OA
BRANCH  16  20
ATOM     19  C   UNL     1       8.055   7.448  18.268  0.00  0.00    +0.000 C 
ATOM     20  C   UNL     1       7.359   6.584  17.232  0.00  0.00    +0.000 C 
ENDBRANCH  16  20
ENDBRANCH   1  16
TORSDOF 4
ENDMDL
MODEL 2
REMARK VINA RESULT:      -7.0      3.928      7.351
REMARK  Name = 
REMARK  6 active torsions:
REMARK  status: ('A' for Active; 'I' for Inactive)
REMARK    1  A    between atoms: C_1  and  C_2
REMARK    2  A    between atoms: C_2  and  S_3
REMARK    3  A    between atoms: S_3  and  N_6
REMARK    4  A    between atoms: N_9  and  C_10
REMARK    5  A    between atoms: C_13  and  C_14
REMARK    6  A    between atoms: C_14  and  C_15
REMARK                            x       y       z     vdW  Elec       q    Type
REMARK                         _______ _______ _______ _____ _____    ______ ____
ROOT
ATOM      1  N   UNL     1       3.132   2.299  19.967  0.00  0.00    +0.000 NA
ATOM      2  C   UNL     1       3.030   1.789  18.558  0.00  0.00    +0.000 C 
ATOM      3  C   UNL     1       3.121   2.946  17.547  0.00  0.00    +0.000 C 
ATOM      4  N   UNL     1       4.421   3.613  17.734  0.00  0.00    +0.000 N 
ATOM      5  C   UNL     1       4.665   4.134  19.096  0.00  0.00    +0.000 C 
ATOM      6  C   UNL     1       4.440   3.022  20.154  0.00  0.00    +0.000 C 
ENDROOT
BRANCH   4   7
ATOM      7  C   UNL     1       5.145   4.083  16.657  0.00  0.00    +0.000 A 
ATOM      8  C   UNL     1       4.709   3.952  15.332  0.00  0.00    +0.000 A 
ATOM      9  C   UNL     1       5.508   4.336  14.243  0.00  0.00    +0.000 A 
ATOM     10  C   UNL     1       6.784   4.862  14.458  0.00  0.00    +0.000 A 
ATOM     11  C   UNL     1       7.222   5.024  15.774  0.00  0.00    +0.000 A 
ATOM     12  C   UNL     1       6.413   4.646  16.851  0.00  0.00    +0.000 A 
BRANCH  10  13
ATOM     13  C   UNL     1       7.724   5.249  13.362  0.00  0.00    +0.000 C 
ATOM     14  C   UNL     1       7.499   4.799  11.942  0.00  0.00    +0.000 C 
ATOM     15  O   UNL     1       8.701   5.951  13.630  0.00  0.00    +0.000 OA
ENDBRANCH  10  13
ENDBRANCH   4   7
BRANCH   1  16
ATOM     16  S   UNL     1       1.737   3.094  20.534  0.00  0.00    +0.000 S 
ATOM     17  O   UNL     1       1.270   2.382  21.704  0.00  0.00    +0.000 OA
ATOM     18  O   UNL     1       0.863   3.348  19.409  0.00  0.00    +0.000 OA
BRANCH  16  20
ATOM     19  C   UNL     1       1.646   5.806  20.484  0.00  0.00    +0.000 C 
ATOM     20  C   UNL     1       2.425   4.649  21.081  0.00  0.00    +0.000 C 
ENDBRANCH  16  20
ENDBRANCH   1  16
TORSDOF 4
ENDMDL
MODEL 3
REMARK VINA RESULT:      -6.9      3.811      7.437
REMARK  Name = 
REMARK  6 active torsions:
REMARK  status: ('A' for Active; 'I' for Inactive)
REMARK    1  A    between atoms: C_1  and  C_2
REMARK    2  A    between atoms: C_2  and  S_3
REMARK    3  A    between atoms: S_3  and  N_6
REMARK    4  A    between atoms: N_9  and  C_10
REMARK    5  A    between atoms: C_13  and  C_14
REMARK    6  A    between atoms: C_14  and  C_15
REMARK                            x       y       z     vdW  Elec       q    Type
REMARK                         _______ _______ _______ _____ _____    ______ ____
ROOT
ATOM      1  N   UNL     1       3.183   2.686  19.898  0.00  0.00    +0.000 NA
ATOM      2  C   UNL     1       3.263   1.942  18.595  0.00  0.00    +0.000 C 
ATOM      3  C   UNL     1       3.437   2.917  17.417  0.00  0.00    +0.000 C 
ATOM      4  N   UNL     1       4.684   3.671  17.629  0.00  0.00    +0.000 N 
ATOM      5  C   UNL     1       4.750   4.424  18.900  0.00  0.00    +0.000 C 
ATOM      6  C   UNL     1       4.436   3.495  20.101  0.00  0.00    +0.000 C 
ENDROOT
BRANCH   4   7
ATOM      7  C   UNL     1       5.516   3.989  16.574  0.00  0.00    +0.000 A 
ATOM      8  C   UNL     1       6.765   4.601  16.748  0.00  0.00    +0.000 A 
ATOM      9  C   UNL     1       7.548   5.017  15.659  0.00  0.00    +0.000 A 
ATOM     10  C   UNL     1       7.090   4.833  14.352  0.00  0.00    +0.000 A 
ATOM     11  C   UNL     1       5.860   4.200  14.162  0.00  0.00    +0.000 A 
ATOM     12  C   UNL     1       5.093   3.782  15.255  0.00  0.00    +0.000 A 
BRANCH  10  13
ATOM     13  C   UNL     1       7.830   5.289  13.135  0.00  0.00    +0.000 C 
ATOM     14  C   UNL     1       7.421   4.839  11.757  0.00  0.00    +0.000 C 
ATOM     15  O   UNL     1       8.791   6.049  13.267  0.00  0.00    +0.000 OA
ENDBRANCH  10  13
ENDBRANCH   4   7
BRANCH   1  16
ATOM     16  S   UNL     1       1.707   3.492  20.161  0.00  0.00    +0.000 S 
ATOM     17  O   UNL     1       0.895   2.657  21.021  0.00  0.00    +0.000 OA
ATOM     18  O   UNL     1       1.209   3.969  18.889  0.00  0.00    +0.000 OA
BRANCH  16  20
ATOM     19  C   UNL     1       1.819   6.189  20.450  0.00  0.00    +0.000 C 
ATOM     20  C   UNL     1       2.248   4.897  21.121  0.00  0.00    +0.000 C 
ENDBRANCH  16  20
ENDBRANCH   1  16
TORSDOF 4
ENDMDL
MODEL 4
REMARK VINA RESULT:      -6.8      0.352      1.126
REMARK  Name = 
REMARK  6 active torsions:
REMARK  status: ('A' for Active; 'I' for Inactive)
REMARK    1  A    between atoms: C_1  and  C_2
REMARK    2  A    between atoms: C_2  and  S_3
REMARK    3  A    between atoms: S_3  and  N_6
REMARK    4  A    between atoms: N_9  and  C_10
REMARK    5  A    between atoms: C_13  and  C_14
REMARK    6  A    between atoms: C_14  and  C_15
REMARK                            x       y       z     vdW  Elec       q    Type
REMARK                         _______ _______ _______ _____ _____    ______ ____
ROOT
ATOM      1  N   UNL     1       5.595   4.551  17.330  0.00  0.00    +0.000 NA
ATOM      2  C   UNL     1       4.779   4.457  18.588  0.00  0.00    +0.000 C 
ATOM      3  C   UNL     1       4.552   5.850  19.201  0.00  0.00    +0.000 C 
ATOM      4  N   UNL     1       3.834   6.672  18.212  0.00  0.00    +0.000 N 
ATOM      5  C   UNL     1       4.517   6.817  16.908  0.00  0.00    +0.000 C 
ATOM      6  C   UNL     1       4.889   5.427  16.330  0.00  0.00    +0.000 C 
ENDROOT
BRANCH   4   7
ATOM      7  C   UNL     1       2.851   7.560  18.598  0.00  0.00    +0.000 A 
ATOM      8  C   UNL     1       2.230   7.509  19.853  0.00  0.00    +0.000 A 
ATOM      9  C   UNL     1       1.156   8.350  20.188  0.00  0.00    +0.000 A 
ATOM     10  C   UNL     1       0.669   9.271  19.259  0.00  0.00    +0.000 A 
ATOM     11  C   UNL     1       1.295   9.353  18.013  0.00  0.00    +0.000 A 
ATOM     12  C   UNL     1       2.369   8.516  17.695  0.00  0.00    +0.000 A 
BRANCH  10  13
ATOM     13  C   UNL     1      -0.501  10.170  19.507  0.00  0.00    +0.000 C 
ATOM     14  C   UNL     1      -1.543  10.409  18.445  0.00  0.00    +0.000 C 
ATOM     15  O   UNL     1      -0.610  10.723  20.603  0.00  0.00    +0.000 OA
ENDBRANCH  10  13
ENDBRANCH   4   7
BRANCH   1  16
ATOM     16  S   UNL     1       7.249   4.867  17.583  0.00  0.00    +0.000 S 
ATOM     17  O   UNL     1       7.995   4.140  16.579  0.00  0.00    +0.000 OA
ATOM     18  O   UNL     1       7.537   4.712  18.993  0.00  0.00    +0.000 OA
BRANCH  16  20
ATOM     19  C   UNL     1       8.000   7.376  18.298  0.00  0.00    +0.000 C 
ATOM     20  C   UNL     1       7.334   6.603  17.174  0.00  0.00    +0.000 C 
ENDBRANCH  16  20
ENDBRANCH   1  16
TORSDOF 4
ENDMDL
MODEL 5
REMARK VINA RESULT:      -6.7      4.072      7.445
REMARK  Name = 
REMARK  6 active torsions:
REMARK  status: ('A' for Active; 'I' for Inactive)
REMARK    1  A    between atoms: C_1  and  C_2
REMARK    2  A    between atoms: C_2  and  S_3
REMARK    3  A    between atoms: S_3  and  N_6
REMARK    4  A    between atoms: N_9  and  C_10
REMARK    5  A    between atoms: C_13  and  C_14
REMARK    6  A    between atoms: C_14  and  C_15
REMARK                            x       y       z     vdW  Elec       q    Type
REMARK                         _______ _______ _______ _____ _____    ______ ____
ROOT
ATOM      1  N   UNL     1       2.653   4.803  19.875  0.00  0.00    +0.000 NA
ATOM      2  C   UNL     1       4.089   5.240  19.933  0.00  0.00    +0.000 C 
ATOM      3  C   UNL     1       4.964   4.375  19.009  0.00  0.00    +0.000 C 
ATOM      4  N   UNL     1       4.461   4.525  17.633  0.00  0.00    +0.000 N 
ATOM      5  C   UNL     1       3.040   4.159  17.444  0.00  0.00    +0.000 C 
ATOM      6  C   UNL     1       2.144   4.911  18.462  0.00  0.00    +0.000 C 
ENDROOT
BRANCH   4   7
ATOM      7  C   UNL     1       5.325   4.585  16.558  0.00  0.00    +0.000 A 
ATOM      8  C   UNL     1       6.676   4.933  16.686  0.00  0.00    +0.000 A 
ATOM      9  C   UNL     1       7.513   5.096  15.570  0.00  0.00    +0.000 A 
ATOM     10  C   UNL     1       7.007   4.917  14.281  0.00  0.00    +0.000 A 
ATOM     11  C   UNL     1       5.669   4.543  14.137  0.00  0.00    +0.000 A 
ATOM     12  C   UNL     1       4.848   4.376  15.257  0.00  0.00    +0.000 A 
BRANCH  10  13
ATOM     13  C   UNL     1       7.807   5.119  13.034  0.00  0.00    +0.000 C 
ATOM     14  C   UNL     1       7.448   4.415  11.751  0.00  0.00    +0.000 C 
ATOM     15  O   UNL     1       8.778   5.877  13.060  0.00  0.00    +0.000 OA
ENDBRANCH  10  13
ENDBRANCH   4   7
BRANCH   1  16
ATOM     16  S   UNL     1       2.325   3.346  20.692  0.00  0.00    +0.000 S 
ATOM     17  O   UNL     1       2.277   3.635  22.109  0.00  0.00    +0.000 OA
ATOM     18  O   UNL     1       3.194   2.316  20.164  0.00  0.00    +0.000 OA
BRANCH  16  20
ATOM     19  C   UNL     1       0.663   1.983  19.033  0.00  0.00    +0.000 C 
ATOM     20  C   UNL     1       0.657   3.013  20.148  0.00  0.00    +0.000 C 
ENDBRANCH  16  20
ENDBRANCH   1  16
TORSDOF 4
ENDMDL
MODEL 6
REMARK VINA RESULT:      -6.7      2.847      3.817
REMARK  Name = 
REMARK  6 active torsions:
REMARK  status: ('A' for Active; 'I' for Inactive)
REMARK    1  A    between atoms: C_1  and  C_2
REMARK    2  A    between atoms: C_2  and  S_3
REMARK    3  A    between atoms: S_3  and  N_6
REMARK    4  A    between atoms: N_9  and  C_10
REMARK    5  A    between atoms: C_13  and  C_14
REMARK    6  A    between atoms: C_14  and  C_15
REMARK                            x       y       z     vdW  Elec       q    Type
REMARK                         _______ _______ _______ _____ _____    ______ ____
ROOT
ATOM      1  N   UNL     1       3.961   3.578  18.311  0.00  0.00    +0.000 NA
ATOM      2  C   UNL     1       3.206   4.334  17.254  0.00  0.00    +0.000 C 
ATOM      3  C   UNL     1       2.100   5.200  17.883  0.00  0.00    +0.000 C 
ATOM      4  N   UNL     1       2.738   6.154  18.806  0.00  0.00    +0.000 N 
ATOM      5  C   UNL     1       3.546   5.538  19.881  0.00  0.00    +0.000 C 
ATOM      6  C   UNL     1       4.579   4.546  19.285  0.00  0.00    +0.000 C 
ENDROOT
BRANCH   4   7
ATOM      7  C   UNL     1       2.285   7.453  18.919  0.00  0.00    +0.000 A 
ATOM      8  C   UNL     1       1.710   7.959  20.093  0.00  0.00    +0.000 A 
ATOM      9  C   UNL     1       1.154   9.247  20.154  0.00  0.00    +0.000 A 
ATOM     10  C   UNL     1       1.156  10.069  19.025  0.00  0.00    +0.000 A 
ATOM     11  C   UNL     1       1.750   9.589  17.856  0.00  0.00    +0.000 A 
ATOM     12  C   UNL     1       2.308   8.307  17.809  0.00  0.00    +0.000 A 
BRANCH  10  13
ATOM     13  C   UNL     1       0.543  11.432  18.982  0.00  0.00    +0.000 C 
ATOM     14  C   UNL     1       1.370  12.652  18.670  0.00  0.00    +0.000 C 
ATOM     15  O   UNL     1      -0.663  11.554  19.205  0.00  0.00    +0.000 OA
ENDBRANCH  10  13
ENDBRANCH   4   7
BRANCH   1  16
ATOM     16  S   UNL     1       3.113   2.263  18.981  0.00  0.00    +0.000 S 
ATOM     17  O   UNL     1       3.741   1.048  18.510  0.00  0.00    +0.000 OA
ATOM     18  O   UNL     1       1.695   2.492  18.808  0.00  0.00    +0.000 OA
BRANCH  16  20
ATOM     19  C   UNL     1       2.239   2.574  21.532  0.00  0.00    +0.000 C 
ATOM     20  C   UNL     1       3.510   2.444  20.713  0.00  0.00    +0.000 C 
ENDBRANCH  16  20
ENDBRANCH   1  16
TORSDOF 4
ENDMDL
MODEL 7
REMARK VINA RESULT:      -6.6      3.410      7.363
REMARK  Name = 
REMARK  6 active torsions:
REMARK  status: ('A' for Active; 'I' for Inactive)
REMARK    1  A    between atoms: C_1  and  C_2
REMARK    2  A    between atoms: C_2  and  S_3
REMARK    3  A    between atoms: S_3  and  N_6
REMARK    4  A    between atoms: N_9  and  C_10
REMARK    5  A    between atoms: C_13  and  C_14
REMARK    6  A    between atoms: C_14  and  C_15
REMARK                            x       y       z     vdW  Elec       q    Type
REMARK                         _______ _______ _______ _____ _____    ______ ____
ROOT
ATOM      1  N   UNL     1       0.258  10.394  19.316  0.00  0.00    +0.000 NA
ATOM      2  C   UNL     1       0.691   9.631  18.096  0.00  0.00    +0.000 C 
ATOM      3  C   UNL     1       2.031   8.915  18.343  0.00  0.00    +0.000 C 
ATOM      4  N   UNL     1       1.849   7.981  19.467  0.00  0.00    +0.000 N 
ATOM      5  C   UNL     1       1.389   8.604  20.727  0.00  0.00    +0.000 C 
ATOM      6  C   UNL     1       0.114   9.453  20.481  0.00  0.00    +0.000 C 
ENDROOT
BRANCH   4   7
ATOM      7  C   UNL     1       2.453   6.740  19.470  0.00  0.00    +0.000 A 
ATOM      8  C   UNL     1       3.420   6.362  18.529  0.00  0.00    +0.000 A 
ATOM      9  C   UNL     1       3.942   5.059  18.480  0.00  0.00    +0.000 A 
ATOM     10  C   UNL     1       3.498   4.089  19.381  0.00  0.00    +0.000 A 
ATOM     11  C   UNL     1       2.555   4.458  20.343  0.00  0.00    +0.000 A 
ATOM     12  C   UNL     1       2.048   5.761  20.387  0.00  0.00    +0.000 A 
BRANCH  10  13
ATOM     13  C   UNL     1       3.958   2.666  19.372  0.00  0.00    +0.000 C 
ATOM     14  C   UNL     1       3.358   1.657  18.428  0.00  0.00    +0.000 C 
ATOM     15  O   UNL     1       4.845   2.318  20.153  0.00  0.00    +0.000 OA
ENDBRANCH  10  13
ENDBRANCH   4   7
BRANCH   1  16
ATOM     16  S   UNL     1       1.134  11.826  19.599  0.00  0.00    +0.000 S 
ATOM     17  O   UNL     1       2.168  11.918  18.590  0.00  0.00    +0.000 OA
ATOM     18  O   UNL     1       1.452  11.902  21.009  0.00  0.00    +0.000 OA
BRANCH  16  20
ATOM     19  C   UNL     1      -1.163  13.085  20.310  0.00  0.00    +0.000 C 
ATOM     20  C   UNL     1      -0.099  13.064  19.228  0.00  0.00    +0.000 C 
ENDBRANCH  16  20
ENDBRANCH   1  16
TORSDOF 4
ENDMDL
MODEL 8
REMARK VINA RESULT:      -6.6      2.414      3.519
REMARK  Name = 
REMARK  6 active torsions:
REMARK  status: ('A' for Active; 'I' for Inactive)
REMARK    1  A    between atoms: C_1  and  C_2
REMARK    2  A    between atoms: C_2  and  S_3
REMARK    3  A    between atoms: S_3  and  N_6
REMARK    4  A    between atoms: N_9  and  C_10
REMARK    5  A    between atoms: C_13  and  C_14
REMARK    6  A    between atoms: C_14  and  C_15
REMARK                            x       y       z     vdW  Elec       q    Type
REMARK                         _______ _______ _______ _____ _____    ______ ____
ROOT
ATOM      1  N   UNL     1       4.161   3.511  18.134  0.00  0.00    +0.000 NA
ATOM      2  C   UNL     1       2.913   4.041  17.488  0.00  0.00    +0.000 C 
ATOM      3  C   UNL     1       2.063   4.830  18.500  0.00  0.00    +0.000 C 
ATOM      4  N   UNL     1       2.872   5.955  18.997  0.00  0.00    +0.000 N 
ATOM      5  C   UNL     1       4.153   5.571  19.629  0.00  0.00    +0.000 C 
ATOM      6  C   UNL     1       4.973   4.653  18.685  0.00  0.00    +0.000 C 
ENDROOT
BRANCH   4   7
ATOM      7  C   UNL     1       2.308   7.192  19.237  0.00  0.00    +0.000 A 
ATOM      8  C   UNL     1       1.798   7.565  20.487  0.00  0.00    +0.000 A 
ATOM      9  C   UNL     1       1.129   8.784  20.684  0.00  0.00    +0.000 A 
ATOM     10  C   UNL     1       0.947   9.667  19.618  0.00  0.00    +0.000 A 
ATOM     11  C   UNL     1       1.473   9.321  18.372  0.00  0.00    +0.000 A 
ATOM     12  C   UNL     1       2.145   8.108  18.190  0.00  0.00    +0.000 A 
BRANCH  10  13
ATOM     13  C   UNL     1       0.204  10.961  19.721  0.00  0.00    +0.000 C 
ATOM     14  C   UNL     1      -0.069  11.805  18.503  0.00  0.00    +0.000 C 
ATOM     15  O   UNL     1      -0.192  11.339  20.825  0.00  0.00    +0.000 OA
ENDBRANCH  10  13
ENDBRANCH   4   7
BRANCH   1  16
ATOM     16  S   UNL     1       3.911   2.187  19.174  0.00  0.00    +0.000 S 
ATOM     17  O   UNL     1       4.925   2.238  20.205  0.00  0.00    +0.000 OA
ATOM     18  O   UNL     1       3.715   0.999  18.369  0.00  0.00    +0.000 OA
BRANCH  16  20
ATOM     19  C   UNL     1       2.500   2.725  21.430  0.00  0.00    +0.000 C 
ATOM     20  C   UNL     1       2.350   2.627  19.923  0.00  0.00    +0.000 C 
ENDBRANCH  16  20
ENDBRANCH   1  16
TORSDOF 4
ENDMDL
MODEL 9
REMARK VINA RESULT:      -6.5      2.827      4.052
REMARK  Name = 
REMARK  6 active torsions:
REMARK  status: ('A' for Active; 'I' for Inactive)
REMARK    1  A    between atoms: C_1  and  C_2
REMARK    2  A    between atoms: C_2  and  S_3
REMARK    3  A    between atoms: S_3  and  N_6
REMARK    4  A    between atoms: N_9  and  C_10
REMARK    5  A    between atoms: C_13  and  C_14
REMARK    6  A    between atoms: C_14  and  C_15
REMARK                            x       y       z     vdW  Elec       q    Type
REMARK                         _______ _______ _______ _____ _____    ______ ____
ROOT
ATOM      1  N   UNL     1       3.331   4.543  19.085  0.00  0.00    +0.000 NA
ATOM      2  C   UNL     1       3.861   5.909  18.757  0.00  0.00    +0.000 C 
ATOM      3  C   UNL     1       2.714   6.928  18.632  0.00  0.00    +0.000 C 
ATOM      4  N   UNL     1       2.003   6.974  19.921  0.00  0.00    +0.000 N 
ATOM      5  C   UNL     1       1.457   5.679  20.379  0.00  0.00    +0.000 C 
ATOM      6  C   UNL     1       2.563   4.591  20.380  0.00  0.00    +0.000 C 
ENDROOT
BRANCH   4   7
ATOM      7  C   UNL     1       1.524   8.164  20.431  0.00  0.00    +0.000 A 
ATOM      8  C   UNL     1       1.262   8.357  21.794  0.00  0.00    +0.000 A 
ATOM      9  C   UNL     1       0.672   9.535  22.280  0.00  0.00    +0.000 A 
ATOM     10  C   UNL     1       0.319  10.560  21.399  0.00  0.00    +0.000 A 
ATOM     11  C   UNL     1       0.599  10.394  20.041  0.00  0.00    +0.000 A 
ATOM     12  C   UNL     1       1.195   9.219  19.570  0.00  0.00    +0.000 A 
BRANCH  10  13
ATOM     13  C   UNL     1      -0.359  11.825  21.817  0.00  0.00    +0.000 C 
ATOM     14  C   UNL     1      -0.741  12.878  20.809  0.00  0.00    +0.000 C 
ATOM     15  O   UNL     1      -0.609  12.006  23.010  0.00  0.00    +0.000 OA
ENDBRANCH  10  13
ENDBRANCH   4   7
BRANCH   1  16
ATOM     16  S   UNL     1       2.575   3.748  17.783  0.00  0.00    +0.000 S 
ATOM     17  O   UNL     1       3.541   3.644  16.710  0.00  0.00    +0.000 OA
ATOM     18  O   UNL     1       1.275   4.345  17.570  0.00  0.00    +0.000 OA
BRANCH  16  20
ATOM     19  C   UNL     1       3.684   1.427  18.652  0.00  0.00    +0.000 C 
ATOM     20  C   UNL     1       2.344   2.113  18.465  0.00  0.00    +0.000 C 
ENDBRANCH  16  20
ENDBRANCH   1  16
TORSDOF 4
ENDMDL
