MODEL 1
REMARK VINA RESULT:      -7.6      0.000      0.000
REMARK  Name = 
REMARK  5 active torsions:
REMARK  status: ('A' for Active; 'I' for Inactive)
REMARK    1  A    between atoms: C_1  and  C_2
REMARK    2  A    between atoms: C_5  and  S_6
REMARK    3  A    between atoms: S_6  and  N_9
REMARK    4  A    between atoms: N_12  and  N_13
REMARK    5  A    between atoms: C_16  and  O_17
REMARK                            x       y       z     vdW  Elec       q    Type
REMARK                         _______ _______ _______ _____ _____    ______ ____
ROOT
ATOM      1  N   UNL     1       1.447   9.115  19.501  0.00  0.00    +0.000 N 
ATOM      2  C   UNL     1       2.033   8.278  18.559  0.00  0.00    +0.000 C 
ATOM      3  O   UNL     1       2.357   8.676  17.448  0.00  0.00    +0.000 OA
ATOM      4  N   UNL     1       2.192   6.979  19.003  0.00  0.00    +0.000 N 
ATOM      5  H   UNL     1       1.116   8.788  20.398  0.00  0.00    +0.000 HD
ATOM      6  H   UNL     1       1.914   6.725  19.941  0.00  0.00    +0.000 HD
ENDROOT
BRANCH   4   7
ATOM      7  N   UNL     1       2.710   5.996  18.127  0.00  0.00    +0.000 NA
ATOM      8  C   UNL     1       3.916   5.337  18.668  0.00  0.00    +0.000 C 
ATOM      9  C   UNL     1       3.684   3.829  18.559  0.00  0.00    +0.000 C 
ATOM     10  C   UNL     1       4.088   3.034  19.798  0.00  0.00    +0.000 C 
ATOM     11  C   UNL     1       2.834   2.887  20.664  0.00  0.00    +0.000 C 
ATOM     12  C   UNL     1       1.719   3.633  19.939  0.00  0.00    +0.000 C 
ATOM     13  C   UNL     1       2.168   3.700  18.481  0.00  0.00    +0.000 C 
ATOM     14  C   UNL     1       1.743   4.959  17.746  0.00  0.00    +0.000 C 
BRANCH  10  15
ATOM     15  O   UNL     1       4.546   1.739  19.416  0.00  0.00    +0.000 OA
ATOM     16  H   UNL     1       3.774   1.179  19.229  0.00  0.00    +0.000 HD
ENDBRANCH  10  15
ENDBRANCH   4   7
BRANCH   1  17
ATOM     17  S   UNL     1       1.128  10.728  19.235  0.00  0.00    +0.000 S 
ATOM     18  O   UNL     1       2.021  11.210  18.203  0.00  0.00    +0.000 OA
ATOM     19  O   UNL     1       1.131  11.334  20.551  0.00  0.00    +0.000 OA
BRANCH  17  24
ATOM     20  C   UNL     1      -4.590  10.954  17.202  0.00  0.00    +0.000 C 
ATOM     21  C   UNL     1      -3.179  10.897  17.712  0.00  0.00    +0.000 A 
ATOM     22  C   UNL     1      -2.755  11.745  18.743  0.00  0.00    +0.000 A 
ATOM     23  C   UNL     1      -1.441  11.691  19.212  0.00  0.00    +0.000 A 
ATOM     24  C   UNL     1      -0.545  10.775  18.652  0.00  0.00    +0.000 A 
ATOM     25  C   UNL     1      -0.952   9.927  17.620  0.00  0.00    +0.000 A 
ATOM     26  C   UNL     1      -2.269   9.990  17.152  0.00  0.00    +0.000 A 
ENDBRANCH  17  24
ENDBRANCH   1  17
TORSDOF 4
ENDMDL
MODEL 2
REMARK VINA RESULT:      -7.5      0.151      1.021
REMARK  Name = 
REMARK  5 active torsions:
REMARK  status: ('A' for Active; 'I' for Inactive)
REMARK    1  A    between atoms: C_1  and  C_2
REMARK    2  A    between atoms: C_5  and  S_6
REMARK    3  A    between atoms: S_6  and  N_9
REMARK    4  A    between atoms: N_12  and  N_13
REMARK    5  A    between atoms: C_16  and  O_17
REMARK                            x       y       z     vdW  Elec       q    Type
REMARK                         _______ _______ _______ _____ _____    ______ ____
ROOT
ATOM      1  N   UNL     1       1.386   9.019  19.414  0.00  0.00    +0.000 N 
ATOM      2  C   UNL     1       2.062   8.195  18.521  0.00  0.00    +0.000 C 
ATOM      3  O   UNL     1       2.519   8.617  17.466  0.00  0.00    +0.000 OA
ATOM      4  N   UNL     1       2.147   6.882  18.941  0.00  0.00    +0.000 N 
ATOM      5  H   UNL     1       0.949   8.674  20.257  0.00  0.00    +0.000 HD
ATOM      6  H   UNL     1       1.759   6.608  19.834  0.00  0.00    +0.000 HD
ENDROOT
BRANCH   4   7
ATOM      7  N   UNL     1       2.746   5.913  18.102  0.00  0.00    +0.000 NA
ATOM      8  C   UNL     1       3.984   5.352  18.681  0.00  0.00    +0.000 C 
ATOM      9  C   UNL     1       3.855   3.829  18.611  0.00  0.00    +0.000 C 
ATOM     10  C   UNL     1       4.290   3.097  19.878  0.00  0.00    +0.000 C 
ATOM     11  C   UNL     1       3.032   2.889  20.728  0.00  0.00    +0.000 C 
ATOM     12  C   UNL     1       1.883   3.538  19.964  0.00  0.00    +0.000 C 
ATOM     13  C   UNL     1       2.352   3.596  18.513  0.00  0.00    +0.000 C 
ATOM     14  C   UNL     1       1.858   4.803  17.735  0.00  0.00    +0.000 C 
BRANCH  10  15
ATOM     15  O   UNL     1       4.840   1.826  19.540  0.00  0.00    +0.000 OA
ATOM     16  H   UNL     1       4.382   1.142  20.056  0.00  0.00    +0.000 HD
ENDBRANCH  10  15
ENDBRANCH   4   7
BRANCH   1  17
ATOM     17  S   UNL     1       1.128  10.644  19.160  0.00  0.00    +0.000 S 
ATOM     18  O   UNL     1       2.020  11.096  18.115  0.00  0.00    +0.000 OA
ATOM     19  O   UNL     1       1.178  11.243  20.478  0.00  0.00    +0.000 OA
BRANCH  17  24
ATOM     20  C   UNL     1      -4.644  10.980  17.300  0.00  0.00    +0.000 C 
ATOM     21  C   UNL     1      -3.215  10.898  17.752  0.00  0.00    +0.000 A 
ATOM     22  C   UNL     1      -2.336   9.964  17.188  0.00  0.00    +0.000 A 
ATOM     23  C   UNL     1      -1.009   9.889  17.614  0.00  0.00    +0.000 A 
ATOM     24  C   UNL     1      -0.553  10.761  18.607  0.00  0.00    +0.000 A 
ATOM     25  C   UNL     1      -1.418  11.694  19.183  0.00  0.00    +0.000 A 
ATOM     26  C   UNL     1      -2.747  11.759  18.754  0.00  0.00    +0.000 A 
ENDBRANCH  17  24
ENDBRANCH   1  17
TORSDOF 4
ENDMDL
MODEL 3
REMARK VINA RESULT:      -7.5      1.785      2.528
REMARK  Name = 
REMARK  5 active torsions:
REMARK  status: ('A' for Active; 'I' for Inactive)
REMARK    1  A    between atoms: C_1  and  C_2
REMARK    2  A    between atoms: C_5  and  S_6
REMARK    3  A    between atoms: S_6  and  N_9
REMARK    4  A    between atoms: N_12  and  N_13
REMARK    5  A    between atoms: C_16  and  O_17
REMARK                            x       y       z     vdW  Elec       q    Type
REMARK                         _______ _______ _______ _____ _____    ______ ____
ROOT
ATOM      1  N   UNL     1       1.365   8.875  19.328  0.00  0.00    +0.000 N 
ATOM      2  C   UNL     1       2.183   8.100  18.514  0.00  0.00    +0.000 C 
ATOM      3  O   UNL     1       2.440   8.417  17.360  0.00  0.00    +0.000 OA
ATOM      4  N   UNL     1       2.652   6.957  19.134  0.00  0.00    +0.000 N 
ATOM      5  H   UNL     1       1.093   8.594  20.260  0.00  0.00    +0.000 HD
ATOM      6  H   UNL     1       2.410   6.767  20.098  0.00  0.00    +0.000 HD
ENDROOT
BRANCH   4   7
ATOM      7  N   UNL     1       3.439   6.035  18.406  0.00  0.00    +0.000 NA
ATOM      8  C   UNL     1       4.445   5.360  19.251  0.00  0.00    +0.000 C 
ATOM      9  C   UNL     1       4.301   3.858  18.997  0.00  0.00    +0.000 C 
ATOM     10  C   UNL     1       4.337   2.996  20.256  0.00  0.00    +0.000 C 
ATOM     11  C   UNL     1       2.884   2.782  20.693  0.00  0.00    +0.000 C 
ATOM     12  C   UNL     1       2.018   3.556  19.704  0.00  0.00    +0.000 C 
ATOM     13  C   UNL     1       2.884   3.716  18.457  0.00  0.00    +0.000 C 
ATOM     14  C   UNL     1       2.664   5.010  17.695  0.00  0.00    +0.000 C 
BRANCH  10  15
ATOM     15  O   UNL     1       4.927   1.732  19.963  0.00  0.00    +0.000 OA
ATOM     16  H   UNL     1       5.687   1.872  19.373  0.00  0.00    +0.000 HD
ENDBRANCH  10  15
ENDBRANCH   4   7
BRANCH   1  17
ATOM     17  S   UNL     1       0.655  10.300  18.839  0.00  0.00    +0.000 S 
ATOM     18  O   UNL     1      -0.250  10.013  17.748  0.00  0.00    +0.000 OA
ATOM     19  O   UNL     1       1.755  11.225  18.658  0.00  0.00    +0.000 OA
BRANCH  17  24
ATOM     20  C   UNL     1      -2.547  12.193  23.640  0.00  0.00    +0.000 C 
ATOM     21  C   UNL     1      -1.753  11.732  22.452  0.00  0.00    +0.000 A 
ATOM     22  C   UNL     1      -1.960  12.300  21.187  0.00  0.00    +0.000 A 
ATOM     23  C   UNL     1      -1.222  11.866  20.085  0.00  0.00    +0.000 A 
ATOM     24  C   UNL     1      -0.262  10.863  20.248  0.00  0.00    +0.000 A 
ATOM     25  C   UNL     1      -0.049  10.284  21.501  0.00  0.00    +0.000 A 
ATOM     26  C   UNL     1      -0.795  10.720  22.599  0.00  0.00    +0.000 A 
ENDBRANCH  17  24
ENDBRANCH   1  17
TORSDOF 4
ENDMDL
MODEL 4
REMARK VINA RESULT:      -7.5      1.783      2.563
REMARK  Name = 
REMARK  5 active torsions:
REMARK  status: ('A' for Active; 'I' for Inactive)
REMARK    1  A    between atoms: C_1  and  C_2
REMARK    2  A    between atoms: C_5  and  S_6
REMARK    3  A    between atoms: S_6  and  N_9
REMARK    4  A    between atoms: N_12  and  N_13
REMARK    5  A    between atoms: C_16  and  O_17
REMARK                            x       y       z     vdW  Elec       q    Type
REMARK                         _______ _______ _______ _____ _____    ______ ____
ROOT
ATOM      1  N   UNL     1       1.367   8.864  19.312  0.00  0.00    +0.000 N 
ATOM      2  C   UNL     1       2.206   8.099  18.509  0.00  0.00    +0.000 C 
ATOM      3  O   UNL     1       2.473   8.420  17.358  0.00  0.00    +0.000 OA
ATOM      4  N   UNL     1       2.681   6.963  19.135  0.00  0.00    +0.000 N 
ATOM      5  H   UNL     1       1.087   8.580  20.241  0.00  0.00    +0.000 HD
ATOM      6  H   UNL     1       2.430   6.770  20.096  0.00  0.00    +0.000 HD
ENDROOT
BRANCH   4   7
ATOM      7  N   UNL     1       3.490   6.051  18.417  0.00  0.00    +0.000 NA
ATOM      8  C   UNL     1       4.472   5.366  19.281  0.00  0.00    +0.000 C 
ATOM      9  C   UNL     1       4.337   3.867  19.004  0.00  0.00    +0.000 C 
ATOM     10  C   UNL     1       4.338   2.988  20.252  0.00  0.00    +0.000 C 
ATOM     11  C   UNL     1       2.873   2.768  20.645  0.00  0.00    +0.000 C 
ATOM     12  C   UNL     1       2.035   3.554  19.643  0.00  0.00    +0.000 C 
ATOM     13  C   UNL     1       2.935   3.731  18.422  0.00  0.00    +0.000 C 
ATOM     14  C   UNL     1       2.736   5.035  17.672  0.00  0.00    +0.000 C 
BRANCH  10  15
ATOM     15  O   UNL     1       4.937   1.728  19.959  0.00  0.00    +0.000 OA
ATOM     16  H   UNL     1       4.914   1.179  20.760  0.00  0.00    +0.000 HD
ENDBRANCH  10  15
ENDBRANCH   4   7
BRANCH   1  17
ATOM     17  S   UNL     1       0.646  10.279  18.814  0.00  0.00    +0.000 S 
ATOM     18  O   UNL     1      -0.243   9.981  17.711  0.00  0.00    +0.000 OA
ATOM     19  O   UNL     1       1.736  11.219  18.645  0.00  0.00    +0.000 OA
BRANCH  17  24
ATOM     20  C   UNL     1      -2.520  12.205  23.625  0.00  0.00    +0.000 C 
ATOM     21  C   UNL     1      -1.740  11.722  22.437  0.00  0.00    +0.000 A 
ATOM     22  C   UNL     1      -0.769  10.721  22.576  0.00  0.00    +0.000 A 
ATOM     23  C   UNL     1      -0.043  10.277  21.469  0.00  0.00    +0.000 A 
ATOM     24  C   UNL     1      -0.296  10.831  20.211  0.00  0.00    +0.000 A 
ATOM     25  C   UNL     1      -1.257  11.833  20.058  0.00  0.00    +0.000 A 
ATOM     26  C   UNL     1      -1.976  12.275  21.172  0.00  0.00    +0.000 A 
ENDBRANCH  17  24
ENDBRANCH   1  17
TORSDOF 4
ENDMDL
MODEL 5
REMARK VINA RESULT:      -7.4      1.360      2.180
REMARK  Name = 
REMARK  5 active torsions:
REMARK  status: ('A' for Active; 'I' for Inactive)
REMARK    1  A    between atoms: C_1  and  C_2
REMARK    2  A    between atoms: C_5  and  S_6
REMARK    3  A    between atoms: S_6  and  N_9
REMARK    4  A    between atoms: N_12  and  N_13
REMARK    5  A    between atoms: C_16  and  O_17
REMARK                            x       y       z     vdW  Elec       q    Type
REMARK                         _______ _______ _______ _____ _____    ______ ____
ROOT
ATOM      1  N   UNL     1       1.315   9.141  19.314  0.00  0.00    +0.000 N 
ATOM      2  C   UNL     1       1.694   8.057  20.098  0.00  0.00    +0.000 C 
ATOM      3  O   UNL     1       1.494   8.026  21.305  0.00  0.00    +0.000 OA
ATOM      4  N   UNL     1       2.314   7.051  19.380  0.00  0.00    +0.000 N 
ATOM      5  H   UNL     1       1.529   9.209  18.329  0.00  0.00    +0.000 HD
ATOM      6  H   UNL     1       2.431   7.139  18.380  0.00  0.00    +0.000 HD
ENDROOT
BRANCH   4   7
ATOM      7  N   UNL     1       2.818   5.915  20.056  0.00  0.00    +0.000 NA
ATOM      8  C   UNL     1       1.881   4.775  20.020  0.00  0.00    +0.000 C 
ATOM      9  C   UNL     1       2.679   3.561  19.539  0.00  0.00    +0.000 C 
ATOM     10  C   UNL     1       1.966   2.706  18.495  0.00  0.00    +0.000 C 
ATOM     11  C   UNL     1       2.423   3.205  17.121  0.00  0.00    +0.000 C 
ATOM     12  C   UNL     1       3.369   4.373  17.379  0.00  0.00    +0.000 C 
ATOM     13  C   UNL     1       3.867   4.174  18.808  0.00  0.00    +0.000 C 
ATOM     14  C   UNL     1       4.127   5.459  19.572  0.00  0.00    +0.000 C 
BRANCH  10  15
ATOM     15  O   UNL     1       2.345   1.339  18.645  0.00  0.00    +0.000 OA
ATOM     16  H   UNL     1       1.834   0.804  18.015  0.00  0.00    +0.000 HD
ENDBRANCH  10  15
ENDBRANCH   4   7
BRANCH   1  17
ATOM     17  S   UNL     1       0.556  10.497  19.915  0.00  0.00    +0.000 S 
ATOM     18  O   UNL     1       1.443  11.629  19.758  0.00  0.00    +0.000 OA
ATOM     19  O   UNL     1       0.081  10.111  21.228  0.00  0.00    +0.000 OA
BRANCH  17  24
ATOM     20  C   UNL     1      -4.379  11.163  16.438  0.00  0.00    +0.000 C 
ATOM     21  C   UNL     1      -3.154  11.000  17.292  0.00  0.00    +0.000 A 
ATOM     22  C   UNL     1      -2.137  10.110  16.923  0.00  0.00    +0.000 A 
ATOM     23  C   UNL     1      -1.001   9.959  17.721  0.00  0.00    +0.000 A 
ATOM     24  C   UNL     1      -0.877  10.711  18.894  0.00  0.00    +0.000 A 
ATOM     25  C   UNL     1      -1.886  11.598  19.277  0.00  0.00    +0.000 A 
ATOM     26  C   UNL     1      -3.022  11.739  18.475  0.00  0.00    +0.000 A 
ENDBRANCH  17  24
ENDBRANCH   1  17
TORSDOF 4
ENDMDL
MODEL 6
REMARK VINA RESULT:      -7.4      1.340      1.914
REMARK  Name = 
REMARK  5 active torsions:
REMARK  status: ('A' for Active; 'I' for Inactive)
REMARK    1  A    between atoms: C_1  and  C_2
REMARK    2  A    between atoms: C_5  and  S_6
REMARK    3  A    between atoms: S_6  and  N_9
REMARK    4  A    between atoms: N_12  and  N_13
REMARK    5  A    between atoms: C_16  and  O_17
REMARK                            x       y       z     vdW  Elec       q    Type
REMARK                         _______ _______ _______ _____ _____    ______ ____
ROOT
ATOM      1  N   UNL     1       1.323   9.156  19.250  0.00  0.00    +0.000 N 
ATOM      2  C   UNL     1       1.698   8.081  20.048  0.00  0.00    +0.000 C 
ATOM      3  O   UNL     1       1.511   8.074  21.258  0.00  0.00    +0.000 OA
ATOM      4  N   UNL     1       2.300   7.057  19.343  0.00  0.00    +0.000 N 
ATOM      5  H   UNL     1       1.528   9.205  18.262  0.00  0.00    +0.000 HD
ATOM      6  H   UNL     1       2.408   7.126  18.340  0.00  0.00    +0.000 HD
ENDROOT
BRANCH   4   7
ATOM      7  N   UNL     1       2.799   5.927  20.033  0.00  0.00    +0.000 NA
ATOM      8  C   UNL     1       1.866   4.783  19.991  0.00  0.00    +0.000 C 
ATOM      9  C   UNL     1       2.676   3.569  19.531  0.00  0.00    +0.000 C 
ATOM     10  C   UNL     1       1.980   2.704  18.482  0.00  0.00    +0.000 C 
ATOM     11  C   UNL     1       2.455   3.195  17.111  0.00  0.00    +0.000 C 
ATOM     12  C   UNL     1       3.393   4.369  17.374  0.00  0.00    +0.000 C 
ATOM     13  C   UNL     1       3.871   4.181  18.812  0.00  0.00    +0.000 C 
ATOM     14  C   UNL     1       4.116   5.472  19.571  0.00  0.00    +0.000 C 
BRANCH  10  15
ATOM     15  O   UNL     1       2.362   1.340  18.647  0.00  0.00    +0.000 OA
ATOM     16  H   UNL     1       2.208   1.083  19.572  0.00  0.00    +0.000 HD
ENDBRANCH  10  15
ENDBRANCH   4   7
BRANCH   1  17
ATOM     17  S   UNL     1       0.585  10.530  19.834  0.00  0.00    +0.000 S 
ATOM     18  O   UNL     1       1.458  11.659  19.596  0.00  0.00    +0.000 OA
ATOM     19  O   UNL     1       0.173  10.192  21.181  0.00  0.00    +0.000 OA
BRANCH  17  24
ATOM     20  C   UNL     1      -4.458  11.183  16.515  0.00  0.00    +0.000 C 
ATOM     21  C   UNL     1      -3.216  11.020  17.342  0.00  0.00    +0.000 A 
ATOM     22  C   UNL     1      -3.045  11.744  18.530  0.00  0.00    +0.000 A 
ATOM     23  C   UNL     1      -1.886  11.591  19.293  0.00  0.00    +0.000 A 
ATOM     24  C   UNL     1      -0.894  10.701  18.872  0.00  0.00    +0.000 A 
ATOM     25  C   UNL     1      -1.048   9.977  17.688  0.00  0.00    +0.000 A 
ATOM     26  C   UNL     1      -2.209  10.139  16.926  0.00  0.00    +0.000 A 
ENDBRANCH  17  24
ENDBRANCH   1  17
TORSDOF 4
ENDMDL
MODEL 7
REMARK VINA RESULT:      -7.3      6.517      9.188
REMARK  Name = 
REMARK  5 active torsions:
REMARK  status: ('A' for Active; 'I' for Inactive)
REMARK    1  A    between atoms: C_1  and  C_2
REMARK    2  A    between atoms: C_5  and  S_6
REMARK    3  A    between atoms: S_6  and  N_9
REMARK    4  A    between atoms: N_12  and  N_13
REMARK    5  A    between atoms: C_16  and  O_17
REMARK                            x       y       z     vdW  Elec       q    Type
REMARK                         _______ _______ _______ _____ _____    ______ ____
ROOT
ATOM      1  N   UNL     1       7.115   7.914  17.027  0.00  0.00    +0.000 N 
ATOM      2  C   UNL     1       8.048   8.232  18.007  0.00  0.00    +0.000 C 
ATOM      3  O   UNL     1       8.521   7.385  18.753  0.00  0.00    +0.000 OA
ATOM      4  N   UNL     1       8.363   9.577  18.049  0.00  0.00    +0.000 N 
ATOM      5  H   UNL     1       6.669   8.610  16.446  0.00  0.00    +0.000 HD
ATOM      6  H   UNL     1       7.944  10.218  17.389  0.00  0.00    +0.000 HD
ENDROOT
BRANCH   4   7
ATOM      7  N   UNL     1       9.246  10.061  19.044  0.00  0.00    +0.000 NA
ATOM      8  C   UNL     1      10.497  10.600  18.473  0.00  0.00    +0.000 C 
ATOM      9  C   UNL     1      10.699  11.989  19.084  0.00  0.00    +0.000 C 
ATOM     10  C   UNL     1      11.125  13.064  18.088  0.00  0.00    +0.000 C 
ATOM     11  C   UNL     1       9.848  13.762  17.611  0.00  0.00    +0.000 C 
ATOM     12  C   UNL     1       8.687  13.059  18.305  0.00  0.00    +0.000 C 
ATOM     13  C   UNL     1       9.301  12.394  19.534  0.00  0.00    +0.000 C 
ATOM     14  C   UNL     1       8.660  11.076  19.927  0.00  0.00    +0.000 C 
BRANCH  10  15
ATOM     15  O   UNL     1      11.965  14.018  18.733  0.00  0.00    +0.000 OA
ATOM     16  H   UNL     1      12.428  14.535  18.053  0.00  0.00    +0.000 HD
ENDBRANCH  10  15
ENDBRANCH   4   7
BRANCH   1  17
ATOM     17  S   UNL     1       6.546   6.372  16.756  0.00  0.00    +0.000 S 
ATOM     18  O   UNL     1       7.582   5.428  17.116  0.00  0.00    +0.000 OA
ATOM     19  O   UNL     1       6.012   6.399  15.409  0.00  0.00    +0.000 OA
BRANCH  17  24
ATOM     20  C   UNL     1       1.777   5.723  20.460  0.00  0.00    +0.000 C 
ATOM     21  C   UNL     1       2.956   5.891  19.546  0.00  0.00    +0.000 A 
ATOM     22  C   UNL     1       2.906   6.785  18.467  0.00  0.00    +0.000 A 
ATOM     23  C   UNL     1       4.003   6.935  17.617  0.00  0.00    +0.000 A 
ATOM     24  C   UNL     1       5.165   6.194  17.853  0.00  0.00    +0.000 A 
ATOM     25  C   UNL     1       5.228   5.296  18.921  0.00  0.00    +0.000 A 
ATOM     26  C   UNL     1       4.123   5.147  19.764  0.00  0.00    +0.000 A 
ENDBRANCH  17  24
ENDBRANCH   1  17
TORSDOF 4
ENDMDL
MODEL 8
REMARK VINA RESULT:      -7.2      2.032      2.769
REMARK  Name = 
REMARK  5 active torsions:
REMARK  status: ('A' for Active; 'I' for Inactive)
REMARK    1  A    between atoms: C_1  and  C_2
REMARK    2  A    between atoms: C_5  and  S_6
REMARK    3  A    between atoms: S_6  and  N_9
REMARK    4  A    between atoms: N_12  and  N_13
REMARK    5  A    between atoms: C_16  and  O_17
REMARK                            x       y       z     vdW  Elec       q    Type
REMARK                         _______ _______ _______ _____ _____    ______ ____
ROOT
ATOM      1  N   UNL     1       1.805   8.283  19.131  0.00  0.00    +0.000 N 
ATOM      2  C   UNL     1       2.808   7.588  18.465  0.00  0.00    +0.000 C 
ATOM      3  O   UNL     1       3.251   7.959  17.386  0.00  0.00    +0.000 OA
ATOM      4  N   UNL     1       3.228   6.455  19.136  0.00  0.00    +0.000 N 
ATOM      5  H   UNL     1       1.385   7.956  19.989  0.00  0.00    +0.000 HD
ATOM      6  H   UNL     1       2.827   6.218  20.033  0.00  0.00    +0.000 HD
ENDROOT
BRANCH   4   7
ATOM      7  N   UNL     1       4.195   5.607  18.545  0.00  0.00    +0.000 NA
ATOM      8  C   UNL     1       4.459   4.402  19.357  0.00  0.00    +0.000 C 
ATOM      9  C   UNL     1       4.339   3.200  18.418  0.00  0.00    +0.000 C 
ATOM     10  C   UNL     1       3.559   2.021  18.993  0.00  0.00    +0.000 C 
ATOM     11  C   UNL     1       2.106   2.178  18.532  0.00  0.00    +0.000 C 
ATOM     12  C   UNL     1       2.048   3.470  17.724  0.00  0.00    +0.000 C 
ATOM     13  C   UNL     1       3.484   3.721  17.270  0.00  0.00    +0.000 C 
ATOM     14  C   UNL     1       3.871   5.186  17.177  0.00  0.00    +0.000 C 
BRANCH  10  15
ATOM     15  O   UNL     1       4.081   0.797  18.482  0.00  0.00    +0.000 OA
ATOM     16  H   UNL     1       4.847   0.536  19.020  0.00  0.00    +0.000 HD
ENDBRANCH  10  15
ENDBRANCH   4   7
BRANCH   1  17
ATOM     17  S   UNL     1       1.106   9.679  18.551  0.00  0.00    +0.000 S 
ATOM     18  O   UNL     1       0.192   9.329  17.485  0.00  0.00    +0.000 OA
ATOM     19  O   UNL     1       2.213  10.580  18.302  0.00  0.00    +0.000 OA
BRANCH  17  24
ATOM     20  C   UNL     1      -1.928  11.980  23.282  0.00  0.00    +0.000 C 
ATOM     21  C   UNL     1      -1.182  11.405  22.113  0.00  0.00    +0.000 A 
ATOM     22  C   UNL     1      -0.409  10.244  22.257  0.00  0.00    +0.000 A 
ATOM     23  C   UNL     1       0.287   9.715  21.169  0.00  0.00    +0.000 A 
ATOM     24  C   UNL     1       0.201  10.344  19.923  0.00  0.00    +0.000 A 
ATOM     25  C   UNL     1      -0.561  11.503  19.765  0.00  0.00    +0.000 A 
ATOM     26  C   UNL     1      -1.250  12.031  20.862  0.00  0.00    +0.000 A 
ENDBRANCH  17  24
ENDBRANCH   1  17
TORSDOF 4
ENDMDL
MODEL 9
REMARK VINA RESULT:      -7.2      1.883      2.686
REMARK  Name = 
REMARK  5 active torsions:
REMARK  status: ('A' for Active; 'I' for Inactive)
REMARK    1  A    between atoms: C_1  and  C_2
REMARK    2  A    between atoms: C_5  and  S_6
REMARK    3  A    between atoms: S_6  and  N_9
REMARK    4  A    between atoms: N_12  and  N_13
REMARK    5  A    between atoms: C_16  and  O_17
REMARK                            x       y       z     vdW  Elec       q    Type
REMARK                         _______ _______ _______ _____ _____    ______ ____
ROOT
ATOM      1  N   UNL     1       1.374   8.711  19.546  0.00  0.00    +0.000 N 
ATOM      2  C   UNL     1       2.343   7.954  18.897  0.00  0.00    +0.000 C 
ATOM      3  O   UNL     1       2.765   8.251  17.788  0.00  0.00    +0.000 OA
ATOM      4  N   UNL     1       2.756   6.853  19.622  0.00  0.00    +0.000 N 
ATOM      5  H   UNL     1       0.971   8.444  20.433  0.00  0.00    +0.000 HD
ATOM      6  H   UNL     1       2.374   6.678  20.542  0.00  0.00    +0.000 HD
ENDROOT
BRANCH   4   7
ATOM      7  N   UNL     1       3.688   5.949  19.058  0.00  0.00    +0.000 NA
ATOM      8  C   UNL     1       3.725   4.658  19.774  0.00  0.00    +0.000 C 
ATOM      9  C   UNL     1       3.585   3.561  18.716  0.00  0.00    +0.000 C 
ATOM     10  C   UNL     1       2.622   2.438  19.091  0.00  0.00    +0.000 C 
ATOM     11  C   UNL     1       1.258   2.803  18.497  0.00  0.00    +0.000 C 
ATOM     12  C   UNL     1       1.432   4.156  17.815  0.00  0.00    +0.000 C 
ATOM     13  C   UNL     1       2.929   4.273  17.540  0.00  0.00    +0.000 C 
ATOM     14  C   UNL     1       3.480   5.684  17.629  0.00  0.00    +0.000 C 
BRANCH  10  15
ATOM     15  O   UNL     1       3.064   1.208  18.522  0.00  0.00    +0.000 OA
ATOM     16  H   UNL     1       3.731   1.402  17.842  0.00  0.00    +0.000 HD
ENDBRANCH  10  15
ENDBRANCH   4   7
BRANCH   1  17
ATOM     17  S   UNL     1       0.690  10.087  18.903  0.00  0.00    +0.000 S 
ATOM     18  O   UNL     1      -0.180   9.703  17.813  0.00  0.00    +0.000 OA
ATOM     19  O   UNL     1       1.802  10.988  18.674  0.00  0.00    +0.000 OA
BRANCH  17  24
ATOM     20  C   UNL     1      -2.659  12.429  23.396  0.00  0.00    +0.000 C 
ATOM     21  C   UNL     1      -1.829  11.857  22.283  0.00  0.00    +0.000 A 
ATOM     22  C   UNL     1      -1.986  12.308  20.966  0.00  0.00    +0.000 A 
ATOM     23  C   UNL     1      -1.214  11.771  19.934  0.00  0.00    +0.000 A 
ATOM     24  C   UNL     1      -0.270  10.781  20.222  0.00  0.00    +0.000 A 
ATOM     25  C   UNL     1      -0.105  10.318  21.529  0.00  0.00    +0.000 A 
ATOM     26  C   UNL     1      -0.886  10.857  22.556  0.00  0.00    +0.000 A 
ENDBRANCH  17  24
ENDBRANCH   1  17
TORSDOF 4
ENDMDL
