MODEL 1
REMARK VINA RESULT:      -7.3      0.000      0.000
REMARK  Name = 
REMARK  3 active torsions:
REMARK  status: ('A' for Active; 'I' for Inactive)
REMARK    1  A    between atoms: C_1  and  C_2
REMARK    2  A    between atoms: C_5  and  C_6
REMARK    3  A    between atoms: N_9  and  C_10
REMARK                            x       y       z     vdW  Elec       q    Type
REMARK                         _______ _______ _______ _____ _____    ______ ____
ROOT
ATOM      1  C   UNL     1       4.721   7.015  16.233  0.00  0.00    +0.000 C 
ATOM      2  C   UNL     1       3.802   6.760  17.391  0.00  0.00    +0.000 A 
ATOM      3  C   UNL     1       3.691   5.464  17.872  0.00  0.00    +0.000 A 
ATOM      4  C   UNL     1       3.186   5.237  19.161  0.00  0.00    +0.000 A 
ATOM      5  C   UNL     1       2.373   6.144  19.799  0.00  0.00    +0.000 A 
ATOM      6  C   UNL     1       1.479   5.706  20.929  0.00  0.00    +0.000 C 
ATOM      7  C   UNL     1       2.255   7.427  19.195  0.00  0.00    +0.000 A 
ATOM      8  C   UNL     1       1.304   8.353  19.635  0.00  0.00    +0.000 A 
ATOM      9  N   UNL     1       1.137   9.547  19.038  0.00  0.00    +0.000 N 
ATOM     10  C   UNL     1       0.004  10.399  19.419  0.00  0.00    +0.000 C 
ATOM     11  C   UNL     1       1.931   9.919  18.017  0.00  0.00    +0.000 A 
ATOM     12  C   UNL     1       2.927   9.070  17.547  0.00  0.00    +0.000 A 
ATOM     13  C   UNL     1       3.051   7.768  18.056  0.00  0.00    +0.000 A 
ATOM     14  C   UNL     1       3.440   3.835  19.346  0.00  0.00    +0.000 C 
ATOM     15  C   UNL     1       4.185   3.182  20.243  0.00  0.00    +0.000 C 
ATOM     16  C   UNL     1       4.524   1.771  19.937  0.00  0.00    +0.000 C 
ATOM     17  O   UNL     1       5.384   1.166  20.566  0.00  0.00    +0.000 OA
ATOM     18  C   UNL     1       3.752   1.119  18.845  0.00  0.00    +0.000 C 
ATOM     19  C   UNL     1       3.276   1.871  17.842  0.00  0.00    +0.000 C 
ATOM     20  C   UNL     1       3.519   3.306  17.973  0.00  0.00    +0.000 C 
ATOM     21  N   UNL     1       3.831   4.247  17.127  0.00  0.00    +0.000 NA
ENDROOT
TORSDOF 0
ENDMDL
MODEL 2
REMARK VINA RESULT:      -7.3      2.366      3.745
REMARK  Name = 
REMARK  3 active torsions:
REMARK  status: ('A' for Active; 'I' for Inactive)
REMARK    1  A    between atoms: C_1  and  C_2
REMARK    2  A    between atoms: C_5  and  C_6
REMARK    3  A    between atoms: N_9  and  C_10
REMARK                            x       y       z     vdW  Elec       q    Type
REMARK                         _______ _______ _______ _____ _____    ______ ____
ROOT
ATOM      1  C   UNL     1       2.543   4.228  21.123  0.00  0.00    +0.000 C 
ATOM      2  C   UNL     1       2.759   5.392  20.202  0.00  0.00    +0.000 A 
ATOM      3  C   UNL     1       3.791   5.320  19.279  0.00  0.00    +0.000 A 
ATOM      4  C   UNL     1       3.788   6.165  18.158  0.00  0.00    +0.000 A 
ATOM      5  C   UNL     1       3.102   7.356  18.142  0.00  0.00    +0.000 A 
ATOM      6  C   UNL     1       3.478   8.440  17.166  0.00  0.00    +0.000 C 
ATOM      7  C   UNL     1       2.203   7.587  19.220  0.00  0.00    +0.000 A 
ATOM      8  C   UNL     1       1.612   8.839  19.418  0.00  0.00    +0.000 A 
ATOM      9  N   UNL     1       0.807   9.093  20.466  0.00  0.00    +0.000 N 
ATOM     10  C   UNL     1       0.365  10.468  20.728  0.00  0.00    +0.000 C 
ATOM     11  C   UNL     1       0.494   8.120  21.341  0.00  0.00    +0.000 A 
ATOM     12  C   UNL     1       1.011   6.837  21.191  0.00  0.00    +0.000 A 
ATOM     13  C   UNL     1       1.952   6.563  20.187  0.00  0.00    +0.000 A 
ATOM     14  C   UNL     1       4.868   5.634  17.373  0.00  0.00    +0.000 C 
ATOM     15  C   UNL     1       4.893   5.105  16.146  0.00  0.00    +0.000 C 
ATOM     16  C   UNL     1       6.097   4.325  15.772  0.00  0.00    +0.000 C 
ATOM     17  O   UNL     1       6.118   3.612  14.776  0.00  0.00    +0.000 OA
ATOM     18  C   UNL     1       7.287   4.468  16.654  0.00  0.00    +0.000 C 
ATOM     19  C   UNL     1       7.108   4.744  17.954  0.00  0.00    +0.000 C 
ATOM     20  C   UNL     1       5.719   4.946  18.361  0.00  0.00    +0.000 C 
ATOM     21  N   UNL     1       5.033   4.615  19.418  0.00  0.00    +0.000 NA
ENDROOT
TORSDOF 0
ENDMDL
MODEL 3
REMARK VINA RESULT:      -7.2      1.835      2.148
REMARK  Name = 
REMARK  3 active torsions:
REMARK  status: ('A' for Active; 'I' for Inactive)
REMARK    1  A    between atoms: C_1  and  C_2
REMARK    2  A    between atoms: C_5  and  C_6
REMARK    3  A    between atoms: N_9  and  C_10
REMARK                            x       y       z     vdW  Elec       q    Type
REMARK                         _______ _______ _______ _____ _____    ______ ____
ROOT
ATOM      1  C   UNL     1       3.813   7.385  16.940  0.00  0.00    +0.000 C 
ATOM      2  C   UNL     1       2.845   7.552  18.074  0.00  0.00    +0.000 A 
ATOM      3  C   UNL     1       2.403   6.417  18.736  0.00  0.00    +0.000 A 
ATOM      4  C   UNL     1       1.841   6.529  20.017  0.00  0.00    +0.000 A 
ATOM      5  C   UNL     1       1.277   7.698  20.470  0.00  0.00    +0.000 A 
ATOM      6  C   UNL     1       0.287   7.679  21.604  0.00  0.00    +0.000 C 
ATOM      7  C   UNL     1       1.496   8.858  19.676  0.00  0.00    +0.000 A 
ATOM      8  C   UNL     1       0.806  10.049  19.923  0.00  0.00    +0.000 A 
ATOM      9  N   UNL     1       0.955  11.138  19.147  0.00  0.00    +0.000 N 
ATOM     10  C   UNL     1       0.072  12.294  19.338  0.00  0.00    +0.000 C 
ATOM     11  C   UNL     1       1.830  11.135  18.125  0.00  0.00    +0.000 A 
ATOM     12  C   UNL     1       2.584  10.002  17.839  0.00  0.00    +0.000 A 
ATOM     13  C   UNL     1       2.367   8.807  18.542  0.00  0.00    +0.000 A 
ATOM     14  C   UNL     1       1.728   5.154  20.422  0.00  0.00    +0.000 C 
ATOM     15  C   UNL     1       2.271   4.485  21.443  0.00  0.00    +0.000 C 
ATOM     16  C   UNL     1       2.245   3.004  21.369  0.00  0.00    +0.000 C 
ATOM     17  O   UNL     1       2.915   2.311  22.124  0.00  0.00    +0.000 OA
ATOM     18  C   UNL     1       1.346   2.402  20.347  0.00  0.00    +0.000 C 
ATOM     19  C   UNL     1       1.089   3.082  19.220  0.00  0.00    +0.000 C 
ATOM     20  C   UNL     1       1.687   4.413  19.148  0.00  0.00    +0.000 C 
ATOM     21  N   UNL     1       2.239   5.101  18.189  0.00  0.00    +0.000 NA
ENDROOT
TORSDOF 0
ENDMDL
MODEL 4
REMARK VINA RESULT:      -6.6      4.959      9.211
REMARK  Name = 
REMARK  3 active torsions:
REMARK  status: ('A' for Active; 'I' for Inactive)
REMARK    1  A    between atoms: C_1  and  C_2
REMARK    2  A    between atoms: C_5  and  C_6
REMARK    3  A    between atoms: N_9  and  C_10
REMARK                            x       y       z     vdW  Elec       q    Type
REMARK                         _______ _______ _______ _____ _____    ______ ____
ROOT
ATOM      1  C   UNL     1      -0.467  12.636  18.231  0.00  0.00    +0.000 C 
ATOM      2  C   UNL     1      -0.277  11.760  19.434  0.00  0.00    +0.000 A 
ATOM      3  C   UNL     1      -0.663  12.248  20.673  0.00  0.00    +0.000 A 
ATOM      4  C   UNL     1      -0.884  11.360  21.736  0.00  0.00    +0.000 A 
ATOM      5  C   UNL     1      -0.311  10.112  21.779  0.00  0.00    +0.000 A 
ATOM      6  C   UNL     1      -0.163   9.383  23.089  0.00  0.00    +0.000 C 
ATOM      7  C   UNL     1       0.328   9.664  20.589  0.00  0.00    +0.000 A 
ATOM      8  C   UNL     1       1.118   8.511  20.577  0.00  0.00    +0.000 A 
ATOM      9  N   UNL     1       1.778   8.105  19.476  0.00  0.00    +0.000 N 
ATOM     10  C   UNL     1       2.737   6.998  19.569  0.00  0.00    +0.000 C 
ATOM     11  C   UNL     1       1.652   8.776  18.317  0.00  0.00    +0.000 A 
ATOM     12  C   UNL     1       0.853   9.912  18.237  0.00  0.00    +0.000 A 
ATOM     13  C   UNL     1       0.250  10.440  19.389  0.00  0.00    +0.000 A 
ATOM     14  C   UNL     1      -1.464  12.216  22.734  0.00  0.00    +0.000 C 
ATOM     15  C   UNL     1      -2.657  12.191  23.337  0.00  0.00    +0.000 C 
ATOM     16  C   UNL     1      -3.080  13.422  24.047  0.00  0.00    +0.000 C 
ATOM     17  O   UNL     1      -4.234  13.583  24.423  0.00  0.00    +0.000 OA
ATOM     18  C   UNL     1      -2.027  14.443  24.300  0.00  0.00    +0.000 C 
ATOM     19  C   UNL     1      -0.996  14.544  23.449  0.00  0.00    +0.000 C 
ATOM     20  C   UNL     1      -0.985  13.561  22.367  0.00  0.00    +0.000 C 
ATOM     21  N   UNL     1      -0.669  13.616  21.104  0.00  0.00    +0.000 NA
ENDROOT
TORSDOF 0
ENDMDL
MODEL 5
REMARK VINA RESULT:      -6.6      6.038      9.004
REMARK  Name = 
REMARK  3 active torsions:
REMARK  status: ('A' for Active; 'I' for Inactive)
REMARK    1  A    between atoms: C_1  and  C_2
REMARK    2  A    between atoms: C_5  and  C_6
REMARK    3  A    between atoms: N_9  and  C_10
REMARK                            x       y       z     vdW  Elec       q    Type
REMARK                         _______ _______ _______ _____ _____    ______ ____
ROOT
ATOM      1  C   UNL     1      -4.113  10.839  15.833  0.00  0.00    +0.000 C 
ATOM      2  C   UNL     1      -3.834  11.258  17.246  0.00  0.00    +0.000 A 
ATOM      3  C   UNL     1      -2.537  11.145  17.723  0.00  0.00    +0.000 A 
ATOM      4  C   UNL     1      -2.141  11.875  18.854  0.00  0.00    +0.000 A 
ATOM      5  C   UNL     1      -3.045  12.326  19.787  0.00  0.00    +0.000 A 
ATOM      6  C   UNL     1      -2.595  12.670  21.183  0.00  0.00    +0.000 C 
ATOM      7  C   UNL     1      -4.421  12.227  19.439  0.00  0.00    +0.000 A 
ATOM      8  C   UNL     1      -5.428  12.459  20.381  0.00  0.00    +0.000 A 
ATOM      9  N   UNL     1      -6.733  12.311  20.086  0.00  0.00    +0.000 N 
ATOM     10  C   UNL     1      -7.733  12.385  21.158  0.00  0.00    +0.000 C 
ATOM     11  C   UNL     1      -7.120  11.986  18.840  0.00  0.00    +0.000 A 
ATOM     12  C   UNL     1      -6.180  11.777  17.836  0.00  0.00    +0.000 A 
ATOM     13  C   UNL     1      -4.809  11.796  18.131  0.00  0.00    +0.000 A 
ATOM     14  C   UNL     1      -0.721  11.657  18.878  0.00  0.00    +0.000 C 
ATOM     15  C   UNL     1       0.306  12.507  18.791  0.00  0.00    +0.000 C 
ATOM     16  C   UNL     1       1.636  11.928  18.484  0.00  0.00    +0.000 C 
ATOM     17  O   UNL     1       2.583  12.631  18.153  0.00  0.00    +0.000 OA
ATOM     18  C   UNL     1       1.771  10.452  18.620  0.00  0.00    +0.000 C 
ATOM     19  C   UNL     1       0.696   9.676  18.414  0.00  0.00    +0.000 C 
ATOM     20  C   UNL     1      -0.545  10.395  18.136  0.00  0.00    +0.000 C 
ATOM     21  N   UNL     1      -1.547  10.183  17.331  0.00  0.00    +0.000 NA
ENDROOT
TORSDOF 0
ENDMDL
MODEL 6
REMARK VINA RESULT:      -6.4      5.989     10.278
REMARK  Name = 
REMARK  3 active torsions:
REMARK  status: ('A' for Active; 'I' for Inactive)
REMARK    1  A    between atoms: C_1  and  C_2
REMARK    2  A    between atoms: C_5  and  C_6
REMARK    3  A    between atoms: N_9  and  C_10
REMARK                            x       y       z     vdW  Elec       q    Type
REMARK                         _______ _______ _______ _____ _____    ______ ____
ROOT
ATOM      1  C   UNL     1      -1.176  14.126  20.525  0.00  0.00    +0.000 C 
ATOM      2  C   UNL     1      -1.588  12.903  19.760  0.00  0.00    +0.000 A 
ATOM      3  C   UNL     1      -2.939  12.601  19.677  0.00  0.00    +0.000 A 
ATOM      4  C   UNL     1      -3.402  11.738  18.672  0.00  0.00    +0.000 A 
ATOM      5  C   UNL     1      -2.582  10.818  18.062  0.00  0.00    +0.000 A 
ATOM      6  C   UNL     1      -3.167   9.618  17.364  0.00  0.00    +0.000 C 
ATOM      7  C   UNL     1      -1.189  10.935  18.324  0.00  0.00    +0.000 A 
ATOM      8  C   UNL     1      -0.289   9.941  17.931  0.00  0.00    +0.000 A 
ATOM      9  N   UNL     1       1.024  10.006  18.222  0.00  0.00    +0.000 N 
ATOM     10  C   UNL     1       1.888   8.851  17.949  0.00  0.00    +0.000 C 
ATOM     11  C   UNL     1       1.530  11.075  18.862  0.00  0.00    +0.000 A 
ATOM     12  C   UNL     1       0.706  12.125  19.253  0.00  0.00    +0.000 A 
ATOM     13  C   UNL     1      -0.684  12.039  19.082  0.00  0.00    +0.000 A 
ATOM     14  C   UNL     1      -4.828  11.865  18.794  0.00  0.00    +0.000 C 
ATOM     15  C   UNL     1      -5.755  12.291  17.931  0.00  0.00    +0.000 C 
ATOM     16  C   UNL     1      -7.085  12.640  18.488  0.00  0.00    +0.000 C 
ATOM     17  O   UNL     1      -7.916  13.256  17.831  0.00  0.00    +0.000 OA
ATOM     18  C   UNL     1      -7.368  12.185  19.876  0.00  0.00    +0.000 C 
ATOM     19  C   UNL     1      -6.352  12.051  20.741  0.00  0.00    +0.000 C 
ATOM     20  C   UNL     1      -5.025  12.310  20.185  0.00  0.00    +0.000 C 
ATOM     21  N   UNL     1      -3.956  12.895  20.645  0.00  0.00    +0.000 NA
ENDROOT
TORSDOF 0
ENDMDL
MODEL 7
REMARK VINA RESULT:      -6.2      6.522      9.579
REMARK  Name = 
REMARK  3 active torsions:
REMARK  status: ('A' for Active; 'I' for Inactive)
REMARK    1  A    between atoms: C_1  and  C_2
REMARK    2  A    between atoms: C_5  and  C_6
REMARK    3  A    between atoms: N_9  and  C_10
REMARK                            x       y       z     vdW  Elec       q    Type
REMARK                         _______ _______ _______ _____ _____    ______ ____
ROOT
ATOM      1  C   UNL     1      -4.923  11.443  16.941  0.00  0.00    +0.000 C 
ATOM      2  C   UNL     1      -4.411  11.769  18.312  0.00  0.00    +0.000 A 
ATOM      3  C   UNL     1      -3.055  11.620  18.563  0.00  0.00    +0.000 A 
ATOM      4  C   UNL     1      -2.470  12.274  19.658  0.00  0.00    +0.000 A 
ATOM      5  C   UNL     1      -3.203  12.668  20.752  0.00  0.00    +0.000 A 
ATOM      6  C   UNL     1      -2.527  12.920  22.074  0.00  0.00    +0.000 C 
ATOM      7  C   UNL     1      -4.619  12.597  20.628  0.00  0.00    +0.000 A 
ATOM      8  C   UNL     1      -5.455  12.772  21.735  0.00  0.00    +0.000 A 
ATOM      9  N   UNL     1      -6.793  12.649  21.649  0.00  0.00    +0.000 N 
ATOM     10  C   UNL     1      -7.605  12.659  22.872  0.00  0.00    +0.000 C 
ATOM     11  C   UNL     1      -7.383  12.406  20.464  0.00  0.00    +0.000 A 
ATOM     12  C   UNL     1      -6.622  12.258  19.309  0.00  0.00    +0.000 A 
ATOM     13  C   UNL     1      -5.221  12.253  19.377  0.00  0.00    +0.000 A 
ATOM     14  C   UNL     1      -1.069  12.049  19.435  0.00  0.00    +0.000 C 
ATOM     15  C   UNL     1      -0.057  12.899  19.235  0.00  0.00    +0.000 C 
ATOM     16  C   UNL     1       1.197  12.335  18.678  0.00  0.00    +0.000 C 
ATOM     17  O   UNL     1       2.087  13.054  18.242  0.00  0.00    +0.000 OA
ATOM     18  C   UNL     1       1.330  10.853  18.698  0.00  0.00    +0.000 C 
ATOM     19  C   UNL     1       0.225  10.096  18.622  0.00  0.00    +0.000 C 
ATOM     20  C   UNL     1      -1.035  10.837  18.597  0.00  0.00    +0.000 C 
ATOM     21  N   UNL     1      -2.157  10.681  17.954  0.00  0.00    +0.000 NA
ENDROOT
TORSDOF 0
ENDMDL
MODEL 8
REMARK VINA RESULT:      -6.1      8.372     12.040
REMARK  Name = 
REMARK  3 active torsions:
REMARK  status: ('A' for Active; 'I' for Inactive)
REMARK    1  A    between atoms: C_1  and  C_2
REMARK    2  A    between atoms: C_5  and  C_6
REMARK    3  A    between atoms: N_9  and  C_10
REMARK                            x       y       z     vdW  Elec       q    Type
REMARK                         _______ _______ _______ _____ _____    ______ ____
ROOT
ATOM      1  C   UNL     1      -1.553  12.601  22.767  0.00  0.00    +0.000 C 
ATOM      2  C   UNL     1      -2.652  12.496  21.752  0.00  0.00    +0.000 A 
ATOM      3  C   UNL     1      -3.946  12.802  22.147  0.00  0.00    +0.000 A 
ATOM      4  C   UNL     1      -4.917  13.111  21.182  0.00  0.00    +0.000 A 
ATOM      5  C   UNL     1      -4.813  12.688  19.878  0.00  0.00    +0.000 A 
ATOM      6  C   UNL     1      -6.035  12.607  19.001  0.00  0.00    +0.000 C 
ATOM      7  C   UNL     1      -3.565  12.125  19.489  0.00  0.00    +0.000 A 
ATOM      8  C   UNL     1      -3.411  11.478  18.260  0.00  0.00    +0.000 A 
ATOM      9  N   UNL     1      -2.256  10.888  17.900  0.00  0.00    +0.000 N 
ATOM     10  C   UNL     1      -2.206  10.065  16.686  0.00  0.00    +0.000 C 
ATOM     11  C   UNL     1      -1.177  10.952  18.701  0.00  0.00    +0.000 A 
ATOM     12  C   UNL     1      -1.238  11.612  19.924  0.00  0.00    +0.000 A 
ATOM     13  C   UNL     1      -2.455  12.130  20.392  0.00  0.00    +0.000 A 
ATOM     14  C   UNL     1      -6.014  13.569  21.988  0.00  0.00    +0.000 C 
ATOM     15  C   UNL     1      -6.644  14.747  22.037  0.00  0.00    +0.000 C 
ATOM     16  C   UNL     1      -7.491  15.010  23.226  0.00  0.00    +0.000 C 
ATOM     17  O   UNL     1      -7.914  16.131  23.479  0.00  0.00    +0.000 OA
ATOM     18  C   UNL     1      -7.819  13.840  24.085  0.00  0.00    +0.000 C 
ATOM     19  C   UNL     1      -6.954  12.818  24.156  0.00  0.00    +0.000 C 
ATOM     20  C   UNL     1      -5.776  12.940  23.300  0.00  0.00    +0.000 C 
ATOM     21  N   UNL     1      -4.517  12.640  23.453  0.00  0.00    +0.000 NA
ENDROOT
TORSDOF 0
ENDMDL
MODEL 9
REMARK VINA RESULT:      -6.0      6.690     11.126
REMARK  Name = 
REMARK  3 active torsions:
REMARK  status: ('A' for Active; 'I' for Inactive)
REMARK    1  A    between atoms: C_1  and  C_2
REMARK    2  A    between atoms: C_5  and  C_6
REMARK    3  A    between atoms: N_9  and  C_10
REMARK                            x       y       z     vdW  Elec       q    Type
REMARK                         _______ _______ _______ _____ _____    ______ ____
ROOT
ATOM      1  C   UNL     1      -1.624  13.145  23.079  0.00  0.00    +0.000 C 
ATOM      2  C   UNL     1      -2.067  12.627  21.742  0.00  0.00    +0.000 A 
ATOM      3  C   UNL     1      -3.416  12.684  21.427  0.00  0.00    +0.000 A 
ATOM      4  C   UNL     1      -3.825  12.599  20.087  0.00  0.00    +0.000 A 
ATOM      5  C   UNL     1      -3.046  12.008  19.120  0.00  0.00    +0.000 A 
ATOM      6  C   UNL     1      -3.666  11.506  17.842  0.00  0.00    +0.000 C 
ATOM      7  C   UNL     1      -1.707  11.695  19.485  0.00  0.00    +0.000 A 
ATOM      8  C   UNL     1      -0.894  10.911  18.662  0.00  0.00    +0.000 A 
ATOM      9  N   UNL     1       0.354  10.554  19.018  0.00  0.00    +0.000 N 
ATOM     10  C   UNL     1       1.093   9.581  18.204  0.00  0.00    +0.000 C 
ATOM     11  C   UNL     1       0.889  10.995  20.171  0.00  0.00    +0.000 A 
ATOM     12  C   UNL     1       0.157  11.811  21.027  0.00  0.00    +0.000 A 
ATOM     13  C   UNL     1      -1.188  12.101  20.755  0.00  0.00    +0.000 A 
ATOM     14  C   UNL     1      -5.224  12.915  20.174  0.00  0.00    +0.000 C 
ATOM     15  C   UNL     1      -5.941  13.907  19.637  0.00  0.00    +0.000 C 
ATOM     16  C   UNL     1      -7.285  14.155  20.214  0.00  0.00    +0.000 C 
ATOM     17  O   UNL     1      -7.916  15.173  19.959  0.00  0.00    +0.000 OA
ATOM     18  C   UNL     1      -7.838  13.095  21.100  0.00  0.00    +0.000 C 
ATOM     19  C   UNL     1      -6.996  12.326  21.805  0.00  0.00    +0.000 C 
ATOM     20  C   UNL     1      -5.576  12.579  21.565  0.00  0.00    +0.000 C 
ATOM     21  N   UNL     1      -4.524  12.607  22.334  0.00  0.00    +0.000 NA
ENDROOT
TORSDOF 0
ENDMDL
