MODEL 1
REMARK VINA RESULT:      -8.5      0.000      0.000
REMARK  Name = 
REMARK  9 active torsions:
REMARK  status: ('A' for Active; 'I' for Inactive)
REMARK    1  A    between atoms: C_1  and  C_2
REMARK    2  A    between atoms: C_2  and  C_3
REMARK    3  A    between atoms: C_2  and  C_4
REMARK    4  A    between atoms: C_6  and  C_7
REMARK    5  A    between atoms: N_8  and  N_9
REMARK    6  A    between atoms: C_20  and  C_21
REMARK    7  A    between atoms: C_22  and  C_23
REMARK    8  A    between atoms: C_23  and  C_25
REMARK    9  A    between atoms: C_30  and  O_31
REMARK                            x       y       z     vdW  Elec       q    Type
REMARK                         _______ _______ _______ _____ _____    ______ ____
ROOT
ATOM      1  C   UNL     1       2.856   4.296  18.780  0.00  0.00    +0.000 A 
ATOM      2  C   UNL     1       2.481   5.645  18.920  0.00  0.00    +0.000 A 
ATOM      3  C   UNL     1       3.095   6.636  18.146  0.00  0.00    +0.000 A 
ATOM      4  C   UNL     1       4.109   6.301  17.244  0.00  0.00    +0.000 A 
ATOM      5  C   UNL     1       4.490   4.965  17.045  0.00  0.00    +0.000 A 
ATOM      6  C   UNL     1       3.841   3.981  17.816  0.00  0.00    +0.000 A 
ENDROOT
BRANCH   1   8
ATOM      7  C   UNL     1       2.191   3.694  21.122  0.00  0.00    +0.000 C 
ATOM      8  C   UNL     1       2.277   3.201  19.673  0.00  0.00    +0.000 C 
ATOM      9  C   UNL     1       0.917   2.650  19.232  0.00  0.00    +0.000 C 
ENDBRANCH   1   8
BRANCH   3  10
ATOM     10  C   UNL     1       2.692   8.053  18.312  0.00  0.00    +0.000 C 
ATOM     11  N   UNL     1       1.538   8.369  18.810  0.00  0.00    +0.000 NA
BRANCH  11  12
ATOM     12  N   UNL     1       1.248   9.706  18.849  0.00  0.00    +0.000 N 
ATOM     13  C   UNL     1       0.469  10.264  19.814  0.00  0.00    +0.000 A 
ATOM     14  N   UNL     1      -0.261  11.343  19.609  0.00  0.00    +0.000 NA
ATOM     15  C   UNL     1      -0.976  11.670  20.752  0.00  0.00    +0.000 A 
ATOM     16  C   UNL     1      -1.899  12.730  20.881  0.00  0.00    +0.000 A 
ATOM     17  C   UNL     1      -2.533  12.962  22.108  0.00  0.00    +0.000 A 
ATOM     18  C   UNL     1      -2.251  12.157  23.207  0.00  0.00    +0.000 A 
ATOM     19  C   UNL     1      -1.352  11.093  23.101  0.00  0.00    +0.000 A 
ATOM     20  C   UNL     1      -0.738  10.862  21.860  0.00  0.00    +0.000 A 
ATOM     21  S   UNL     1       0.370   9.623  21.416  0.00  0.00    +0.000 S 
ATOM     22  H   UNL     1       1.210  10.213  17.963  0.00  0.00    +0.000 HD
ENDBRANCH  11  12
ENDBRANCH   3  10
BRANCH   5  23
ATOM     23  C   UNL     1       5.606   4.636  16.125  0.00  0.00    +0.000 C 
ATOM     24  C   UNL     1       5.604   4.983  14.829  0.00  0.00    +0.000 C 
BRANCH  24  25
ATOM     25  C   UNL     1       6.747   4.725  13.890  0.00  0.00    +0.000 C 
ATOM     26  O   UNL     1       7.806   5.332  14.038  0.00  0.00    +0.000 OA
BRANCH  25  27
ATOM     27  C   UNL     1       6.495   3.708  12.876  0.00  0.00    +0.000 A 
ATOM     28  C   UNL     1       7.404   2.997  12.110  0.00  0.00    +0.000 A 
ATOM     29  C   UNL     1       6.775   2.146  11.156  0.00  0.00    +0.000 A 
ATOM     30  C   UNL     1       5.402   2.214  11.239  0.00  0.00    +0.000 A 
ATOM     31  S   UNL     1       4.885   3.264  12.486  0.00  0.00    +0.000 S 
ENDBRANCH  25  27
ENDBRANCH  24  25
ENDBRANCH   5  23
BRANCH   6  32
ATOM     32  O   UNL     1       4.140   2.654  17.634  0.00  0.00    +0.000 OA
ATOM     33  H   UNL     1       3.543   2.147  18.213  0.00  0.00    +0.000 HD
ENDBRANCH   6  32
TORSDOF 7
ENDMDL
MODEL 2
REMARK VINA RESULT:      -8.2      2.034      2.663
REMARK  Name = 
REMARK  9 active torsions:
REMARK  status: ('A' for Active; 'I' for Inactive)
REMARK    1  A    between atoms: C_1  and  C_2
REMARK    2  A    between atoms: C_2  and  C_3
REMARK    3  A    between atoms: C_2  and  C_4
REMARK    4  A    between atoms: C_6  and  C_7
REMARK    5  A    between atoms: N_8  and  N_9
REMARK    6  A    between atoms: C_20  and  C_21
REMARK    7  A    between atoms: C_22  and  C_23
REMARK    8  A    between atoms: C_23  and  C_25
REMARK    9  A    between atoms: C_30  and  O_31
REMARK                            x       y       z     vdW  Elec       q    Type
REMARK                         _______ _______ _______ _____ _____    ______ ____
ROOT
ATOM      1  C   UNL     1       2.340   4.124  19.519  0.00  0.00    +0.000 A 
ATOM      2  C   UNL     1       1.835   5.317  20.067  0.00  0.00    +0.000 A 
ATOM      3  C   UNL     1       2.455   6.541  19.793  0.00  0.00    +0.000 A 
ATOM      4  C   UNL     1       3.600   6.590  18.993  0.00  0.00    +0.000 A 
ATOM      5  C   UNL     1       4.117   5.431  18.396  0.00  0.00    +0.000 A 
ATOM      6  C   UNL     1       3.462   4.212  18.665  0.00  0.00    +0.000 A 
ENDROOT
BRANCH   1   8
ATOM      7  C   UNL     1       1.265   2.757  21.326  0.00  0.00    +0.000 C 
ATOM      8  C   UNL     1       1.749   2.761  19.872  0.00  0.00    +0.000 C 
ATOM      9  C   UNL     1       0.623   2.278  18.951  0.00  0.00    +0.000 C 
ENDBRANCH   1   8
BRANCH   3  10
ATOM     10  C   UNL     1       1.913   7.788  20.385  0.00  0.00    +0.000 C 
ATOM     11  N   UNL     1       0.776   7.797  21.008  0.00  0.00    +0.000 NA
BRANCH  11  12
ATOM     12  N   UNL     1       0.345   9.019  21.449  0.00  0.00    +0.000 N 
ATOM     13  C   UNL     1       0.681  10.185  20.836  0.00  0.00    +0.000 A 
ATOM     14  N   UNL     1       0.772  11.331  21.482  0.00  0.00    +0.000 NA
ATOM     15  C   UNL     1       1.162  12.346  20.618  0.00  0.00    +0.000 A 
ATOM     16  C   UNL     1       1.411  13.689  20.971  0.00  0.00    +0.000 A 
ATOM     17  C   UNL     1       1.774  14.616  19.986  0.00  0.00    +0.000 A 
ATOM     18  C   UNL     1       1.881  14.223  18.656  0.00  0.00    +0.000 A 
ATOM     19  C   UNL     1       1.654  12.895  18.283  0.00  0.00    +0.000 A 
ATOM     20  C   UNL     1       1.308  11.973  19.285  0.00  0.00    +0.000 A 
ATOM     21  S   UNL     1       1.007  10.286  19.142  0.00  0.00    +0.000 S 
ATOM     22  H   UNL     1       0.167   9.130  22.450  0.00  0.00    +0.000 HD
ENDBRANCH  11  12
ENDBRANCH   3  10
BRANCH   5  23
ATOM     23  C   UNL     1       5.365   5.494  17.596  0.00  0.00    +0.000 C 
ATOM     24  C   UNL     1       5.394   5.252  16.277  0.00  0.00    +0.000 C 
BRANCH  24  25
ATOM     25  C   UNL     1       6.627   5.376  15.429  0.00  0.00    +0.000 C 
ATOM     26  O   UNL     1       7.610   5.970  15.866  0.00  0.00    +0.000 OA
BRANCH  25  27
ATOM     27  C   UNL     1       6.551   4.717  14.130  0.00  0.00    +0.000 A 
ATOM     28  C   UNL     1       5.610   3.813  13.666  0.00  0.00    +0.000 A 
ATOM     29  C   UNL     1       5.916   3.315  12.367  0.00  0.00    +0.000 A 
ATOM     30  C   UNL     1       7.072   3.875  11.866  0.00  0.00    +0.000 A 
ATOM     31  S   UNL     1       7.750   5.019  12.941  0.00  0.00    +0.000 S 
ENDBRANCH  25  27
ENDBRANCH  24  25
ENDBRANCH   5  23
BRANCH   6  32
ATOM     32  O   UNL     1       3.895   3.052  18.074  0.00  0.00    +0.000 OA
ATOM     33  H   UNL     1       4.831   2.940  18.320  0.00  0.00    +0.000 HD
ENDBRANCH   6  32
TORSDOF 7
ENDMDL
MODEL 3
REMARK VINA RESULT:      -7.9      5.030     10.014
REMARK  Name = 
REMARK  9 active torsions:
REMARK  status: ('A' for Active; 'I' for Inactive)
REMARK    1  A    between atoms: C_1  and  C_2
REMARK    2  A    between atoms: C_2  and  C_3
REMARK    3  A    between atoms: C_2  and  C_4
REMARK    4  A    between atoms: C_6  and  C_7
REMARK    5  A    between atoms: N_8  and  N_9
REMARK    6  A    between atoms: C_20  and  C_21
REMARK    7  A    between atoms: C_22  and  C_23
REMARK    8  A    between atoms: C_23  and  C_25
REMARK    9  A    between atoms: C_30  and  O_31
REMARK                            x       y       z     vdW  Elec       q    Type
REMARK                         _______ _______ _______ _____ _____    ______ ____
ROOT
ATOM      1  C   UNL     1      -1.350  11.496  18.345  0.00  0.00    +0.000 A 
ATOM      2  C   UNL     1      -0.967  10.312  19.001  0.00  0.00    +0.000 A 
ATOM      3  C   UNL     1       0.226  10.260  19.732  0.00  0.00    +0.000 A 
ATOM      4  C   UNL     1       1.064  11.378  19.795  0.00  0.00    +0.000 A 
ATOM      5  C   UNL     1       0.704  12.590  19.187  0.00  0.00    +0.000 A 
ATOM      6  C   UNL     1      -0.513  12.626  18.478  0.00  0.00    +0.000 A 
ENDROOT
BRANCH   1   8
ATOM      7  C   UNL     1      -2.637  10.350  16.523  0.00  0.00    +0.000 C 
ATOM      8  C   UNL     1      -2.594  11.561  17.461  0.00  0.00    +0.000 C 
ATOM      9  C   UNL     1      -3.924  11.682  18.212  0.00  0.00    +0.000 C 
ENDBRANCH   1   8
BRANCH   3  10
ATOM     10  C   UNL     1       0.618   9.002  20.411  0.00  0.00    +0.000 C 
ATOM     11  N   UNL     1       1.809   8.510  20.276  0.00  0.00    +0.000 NA
BRANCH  11  12
ATOM     12  N   UNL     1       2.034   7.309  20.892  0.00  0.00    +0.000 N 
ATOM     13  C   UNL     1       2.133   6.137  20.209  0.00  0.00    +0.000 A 
ATOM     14  N   UNL     1       1.801   4.973  20.733  0.00  0.00    +0.000 NA
ATOM     15  C   UNL     1       1.972   3.956  19.805  0.00  0.00    +0.000 A 
ATOM     16  C   UNL     1       1.665   2.592  20.001  0.00  0.00    +0.000 A 
ATOM     17  C   UNL     1       1.915   1.666  18.980  0.00  0.00    +0.000 A 
ATOM     18  C   UNL     1       2.473   2.080  17.776  0.00  0.00    +0.000 A 
ATOM     19  C   UNL     1       2.772   3.427  17.553  0.00  0.00    +0.000 A 
ATOM     20  C   UNL     1       2.500   4.347  18.578  0.00  0.00    +0.000 A 
ATOM     21  S   UNL     1       2.721   6.053  18.586  0.00  0.00    +0.000 S 
ATOM     22  H   UNL     1       1.685   7.187  21.845  0.00  0.00    +0.000 HD
ENDBRANCH  11  12
ENDBRANCH   3  10
BRANCH   5  23
ATOM     23  C   UNL     1       1.632  13.746  19.219  0.00  0.00    +0.000 C 
ATOM     24  C   UNL     1       2.465  14.036  18.207  0.00  0.00    +0.000 C 
BRANCH  24  25
ATOM     25  C   UNL     1       3.366  15.237  18.180  0.00  0.00    +0.000 C 
ATOM     26  O   UNL     1       2.994  16.264  17.617  0.00  0.00    +0.000 OA
BRANCH  25  27
ATOM     27  C   UNL     1       4.630  15.076  18.888  0.00  0.00    +0.000 A 
ATOM     28  C   UNL     1       4.875  15.109  20.251  0.00  0.00    +0.000 A 
ATOM     29  C   UNL     1       6.261  15.000  20.565  0.00  0.00    +0.000 A 
ATOM     30  C   UNL     1       7.031  14.859  19.431  0.00  0.00    +0.000 A 
ATOM     31  S   UNL     1       6.081  14.819  18.010  0.00  0.00    +0.000 S 
ENDBRANCH  25  27
ENDBRANCH  24  25
ENDBRANCH   5  23
BRANCH   6  32
ATOM     32  O   UNL     1      -0.939  13.795  17.899  0.00  0.00    +0.000 OA
ATOM     33  H   UNL     1      -0.148  14.245  17.553  0.00  0.00    +0.000 HD
ENDBRANCH   6  32
TORSDOF 7
ENDMDL
MODEL 4
REMARK VINA RESULT:      -7.9      2.049      2.754
REMARK  Name = 
REMARK  9 active torsions:
REMARK  status: ('A' for Active; 'I' for Inactive)
REMARK    1  A    between atoms: C_1  and  C_2
REMARK    2  A    between atoms: C_2  and  C_3
REMARK    3  A    between atoms: C_2  and  C_4
REMARK    4  A    between atoms: C_6  and  C_7
REMARK    5  A    between atoms: N_8  and  N_9
REMARK    6  A    between atoms: C_20  and  C_21
REMARK    7  A    between atoms: C_22  and  C_23
REMARK    8  A    between atoms: C_23  and  C_25
REMARK    9  A    between atoms: C_30  and  O_31
REMARK                            x       y       z     vdW  Elec       q    Type
REMARK                         _______ _______ _______ _____ _____    ______ ____
ROOT
ATOM      1  C   UNL     1       2.141   4.327  19.702  0.00  0.00    +0.000 A 
ATOM      2  C   UNL     1       1.569   5.394  20.418  0.00  0.00    +0.000 A 
ATOM      3  C   UNL     1       1.932   6.715  20.133  0.00  0.00    +0.000 A 
ATOM      4  C   UNL     1       2.889   6.989  19.151  0.00  0.00    +0.000 A 
ATOM      5  C   UNL     1       3.459   5.959  18.387  0.00  0.00    +0.000 A 
ATOM      6  C   UNL     1       3.060   4.638  18.674  0.00  0.00    +0.000 A 
ENDROOT
BRANCH   1   8
ATOM      7  C   UNL     1       1.552   2.735  21.548  0.00  0.00    +0.000 C 
ATOM      8  C   UNL     1       1.843   2.870  20.049  0.00  0.00    +0.000 C 
ATOM      9  C   UNL     1       0.710   2.226  19.242  0.00  0.00    +0.000 C 
ENDBRANCH   1   8
BRANCH   3  10
ATOM     10  C   UNL     1       1.324   7.827  20.902  0.00  0.00    +0.000 C 
ATOM     11  N   UNL     1       1.316   9.038  20.440  0.00  0.00    +0.000 NA
BRANCH  11  12
ATOM     12  N   UNL     1       0.791   9.992  21.269  0.00  0.00    +0.000 N 
ATOM     13  C   UNL     1       0.554  11.269  20.866  0.00  0.00    +0.000 A 
ATOM     14  N   UNL     1       0.589  12.297  21.691  0.00  0.00    +0.000 NA
ATOM     15  C   UNL     1       0.341  13.479  21.006  0.00  0.00    +0.000 A 
ATOM     16  C   UNL     1       0.354  14.778  21.558  0.00  0.00    +0.000 A 
ATOM     17  C   UNL     1       0.059  15.883  20.750  0.00  0.00    +0.000 A 
ATOM     18  C   UNL     1      -0.257  15.709  19.407  0.00  0.00    +0.000 A 
ATOM     19  C   UNL     1      -0.262  14.434  18.835  0.00  0.00    +0.000 A 
ATOM     20  C   UNL     1       0.054  13.337  19.652  0.00  0.00    +0.000 A 
ATOM     21  S   UNL     1       0.164  11.672  19.232  0.00  0.00    +0.000 S 
ATOM     22  H   UNL     1       0.990   9.919  22.269  0.00  0.00    +0.000 HD
ENDBRANCH  11  12
ENDBRANCH   3  10
BRANCH   5  23
ATOM     23  C   UNL     1       4.513   6.265  17.389  0.00  0.00    +0.000 C 
ATOM     24  C   UNL     1       5.751   5.753  17.462  0.00  0.00    +0.000 C 
BRANCH  24  25
ATOM     25  C   UNL     1       6.818   5.987  16.432  0.00  0.00    +0.000 C 
ATOM     26  O   UNL     1       7.714   6.798  16.656  0.00  0.00    +0.000 OA
BRANCH  25  27
ATOM     27  C   UNL     1       6.706   5.167  15.231  0.00  0.00    +0.000 A 
ATOM     28  C   UNL     1       7.403   5.269  14.039  0.00  0.00    +0.000 A 
ATOM     29  C   UNL     1       6.955   4.339  13.057  0.00  0.00    +0.000 A 
ATOM     30  C   UNL     1       5.945   3.535  13.539  0.00  0.00    +0.000 A 
ATOM     31  S   UNL     1       5.575   3.878  15.173  0.00  0.00    +0.000 S 
ENDBRANCH  25  27
ENDBRANCH  24  25
ENDBRANCH   5  23
BRANCH   6  32
ATOM     32  O   UNL     1       3.550   3.594  17.931  0.00  0.00    +0.000 OA
ATOM     33  H   UNL     1       4.244   3.168  18.465  0.00  0.00    +0.000 HD
ENDBRANCH   6  32
TORSDOF 7
ENDMDL
MODEL 5
REMARK VINA RESULT:      -7.9      5.085      9.968
REMARK  Name = 
REMARK  9 active torsions:
REMARK  status: ('A' for Active; 'I' for Inactive)
REMARK    1  A    between atoms: C_1  and  C_2
REMARK    2  A    between atoms: C_2  and  C_3
REMARK    3  A    between atoms: C_2  and  C_4
REMARK    4  A    between atoms: C_6  and  C_7
REMARK    5  A    between atoms: N_8  and  N_9
REMARK    6  A    between atoms: C_20  and  C_21
REMARK    7  A    between atoms: C_22  and  C_23
REMARK    8  A    between atoms: C_23  and  C_25
REMARK    9  A    between atoms: C_30  and  O_31
REMARK                            x       y       z     vdW  Elec       q    Type
REMARK                         _______ _______ _______ _____ _____    ______ ____
ROOT
ATOM      1  C   UNL     1      -1.328  11.486  18.181  0.00  0.00    +0.000 A 
ATOM      2  C   UNL     1      -0.980  10.277  18.811  0.00  0.00    +0.000 A 
ATOM      3  C   UNL     1       0.078  10.233  19.726  0.00  0.00    +0.000 A 
ATOM      4  C   UNL     1       0.819  11.386  20.006  0.00  0.00    +0.000 A 
ATOM      5  C   UNL     1       0.484  12.620  19.429  0.00  0.00    +0.000 A 
ATOM      6  C   UNL     1      -0.601  12.646  18.530  0.00  0.00    +0.000 A 
ENDROOT
BRANCH   1   8
ATOM      7  C   UNL     1      -2.339  10.314  16.208  0.00  0.00    +0.000 C 
ATOM      8  C   UNL     1      -2.412  11.553  17.108  0.00  0.00    +0.000 C 
ATOM      9  C   UNL     1      -3.841  11.728  17.632  0.00  0.00    +0.000 C 
ENDBRANCH   1   8
BRANCH   3  10
ATOM     10  C   UNL     1       0.436   8.949  20.375  0.00  0.00    +0.000 C 
ATOM     11  N   UNL     1       1.674   8.622  20.578  0.00  0.00    +0.000 NA
BRANCH  11  12
ATOM     12  N   UNL     1       1.884   7.382  21.119  0.00  0.00    +0.000 N 
ATOM     13  C   UNL     1       1.999   6.258  20.363  0.00  0.00    +0.000 A 
ATOM     14  N   UNL     1       1.655   5.063  20.803  0.00  0.00    +0.000 NA
ATOM     15  C   UNL     1       1.847   4.108  19.814  0.00  0.00    +0.000 A 
ATOM     16  C   UNL     1       1.536   2.735  19.913  0.00  0.00    +0.000 A 
ATOM     17  C   UNL     1       1.809   1.877  18.840  0.00  0.00    +0.000 A 
ATOM     18  C   UNL     1       2.395   2.368  17.678  0.00  0.00    +0.000 A 
ATOM     19  C   UNL     1       2.699   3.726  17.551  0.00  0.00    +0.000 A 
ATOM     20  C   UNL     1       2.403   4.577  18.627  0.00  0.00    +0.000 A 
ATOM     21  S   UNL     1       2.624   6.279  18.752  0.00  0.00    +0.000 S 
ATOM     22  H   UNL     1       1.514   7.199  22.054  0.00  0.00    +0.000 HD
ENDBRANCH  11  12
ENDBRANCH   3  10
BRANCH   5  23
ATOM     23  C   UNL     1       1.316  13.819  19.695  0.00  0.00    +0.000 C 
ATOM     24  C   UNL     1       2.631  13.747  19.951  0.00  0.00    +0.000 C 
BRANCH  24  25
ATOM     25  C   UNL     1       3.513  14.945  20.154  0.00  0.00    +0.000 C 
ATOM     26  O   UNL     1       3.168  15.829  20.936  0.00  0.00    +0.000 OA
BRANCH  25  27
ATOM     27  C   UNL     1       4.764  14.925  19.405  0.00  0.00    +0.000 A 
ATOM     28  C   UNL     1       4.970  14.654  18.063  0.00  0.00    +0.000 A 
ATOM     29  C   UNL     1       6.350  14.642  17.708  0.00  0.00    +0.000 A 
ATOM     30  C   UNL     1       7.156  14.931  18.788  0.00  0.00    +0.000 A 
ATOM     31  S   UNL     1       6.247  15.252  20.201  0.00  0.00    +0.000 S 
ENDBRANCH  25  27
ENDBRANCH  24  25
ENDBRANCH   5  23
BRANCH   6  32
ATOM     32  O   UNL     1      -1.003  13.832  17.969  0.00  0.00    +0.000 OA
ATOM     33  H   UNL     1      -0.244  14.180  17.467  0.00  0.00    +0.000 HD
ENDBRANCH   6  32
TORSDOF 7
ENDMDL
MODEL 6
REMARK VINA RESULT:      -7.8      4.755     11.077
REMARK  Name = 
REMARK  9 active torsions:
REMARK  status: ('A' for Active; 'I' for Inactive)
REMARK    1  A    between atoms: C_1  and  C_2
REMARK    2  A    between atoms: C_2  and  C_3
REMARK    3  A    between atoms: C_2  and  C_4
REMARK    4  A    between atoms: C_6  and  C_7
REMARK    5  A    between atoms: N_8  and  N_9
REMARK    6  A    between atoms: C_20  and  C_21
REMARK    7  A    between atoms: C_22  and  C_23
REMARK    8  A    between atoms: C_23  and  C_25
REMARK    9  A    between atoms: C_30  and  O_31
REMARK                            x       y       z     vdW  Elec       q    Type
REMARK                         _______ _______ _______ _____ _____    ______ ____
ROOT
ATOM      1  C   UNL     1       0.533  13.238  20.428  0.00  0.00    +0.000 A 
ATOM      2  C   UNL     1       1.043  12.026  20.929  0.00  0.00    +0.000 A 
ATOM      3  C   UNL     1       0.625  10.805  20.390  0.00  0.00    +0.000 A 
ATOM      4  C   UNL     1      -0.324  10.773  19.364  0.00  0.00    +0.000 A 
ATOM      5  C   UNL     1      -0.832  11.957  18.808  0.00  0.00    +0.000 A 
ATOM      6  C   UNL     1      -0.378  13.177  19.350  0.00  0.00    +0.000 A 
ENDROOT
BRANCH   1   8
ATOM      7  C   UNL     1       0.043  14.824  22.308  0.00  0.00    +0.000 C 
ATOM      8  C   UNL     1       0.892  14.584  21.054  0.00  0.00    +0.000 C 
ATOM      9  C   UNL     1       2.375  14.775  21.389  0.00  0.00    +0.000 C 
ENDBRANCH   1   8
BRANCH   3  10
ATOM     10  C   UNL     1       1.167   9.537  20.935  0.00  0.00    +0.000 C 
ATOM     11  N   UNL     1       1.276   8.479  20.193  0.00  0.00    +0.000 NA
BRANCH  11  12
ATOM     12  N   UNL     1       1.722   7.349  20.823  0.00  0.00    +0.000 N 
ATOM     13  C   UNL     1       2.104   6.231  20.150  0.00  0.00    +0.000 A 
ATOM     14  N   UNL     1       2.003   5.020  20.661  0.00  0.00    +0.000 NA
ATOM     15  C   UNL     1       2.435   4.070  19.745  0.00  0.00    +0.000 A 
ATOM     16  C   UNL     1       2.419   2.670  19.930  0.00  0.00    +0.000 A 
ATOM     17  C   UNL     1       2.912   1.827  18.926  0.00  0.00    +0.000 A 
ATOM     18  C   UNL     1       3.427   2.361  17.750  0.00  0.00    +0.000 A 
ATOM     19  C   UNL     1       3.441   3.742  17.538  0.00  0.00    +0.000 A 
ATOM     20  C   UNL     1       2.927   4.574  18.545  0.00  0.00    +0.000 A 
ATOM     21  S   UNL     1       2.777   6.288  18.559  0.00  0.00    +0.000 S 
ATOM     22  H   UNL     1       1.361   7.148  21.758  0.00  0.00    +0.000 HD
ENDBRANCH  11  12
ENDBRANCH   3  10
BRANCH   5  23
ATOM     23  C   UNL     1      -1.879  11.902  17.759  0.00  0.00    +0.000 C 
ATOM     24  C   UNL     1      -3.089  11.362  17.971  0.00  0.00    +0.000 C 
BRANCH  24  25
ATOM     25  C   UNL     1      -4.193  11.354  16.952  0.00  0.00    +0.000 C 
ATOM     26  O   UNL     1      -3.970  10.942  15.816  0.00  0.00    +0.000 OA
BRANCH  25  27
ATOM     27  C   UNL     1      -5.487  11.816  17.442  0.00  0.00    +0.000 A 
ATOM     28  C   UNL     1      -6.217  12.927  17.056  0.00  0.00    +0.000 A 
ATOM     29  C   UNL     1      -7.403  13.103  17.826  0.00  0.00    +0.000 A 
ATOM     30  C   UNL     1      -7.556  12.102  18.761  0.00  0.00    +0.000 A 
ATOM     31  S   UNL     1      -6.299  10.946  18.676  0.00  0.00    +0.000 S 
ENDBRANCH  25  27
ENDBRANCH  24  25
ENDBRANCH   5  23
BRANCH   6  32
ATOM     32  O   UNL     1      -0.806  14.368  18.819  0.00  0.00    +0.000 OA
ATOM     33  H   UNL     1      -0.972  14.968  19.567  0.00  0.00    +0.000 HD
ENDBRANCH   6  32
TORSDOF 7
ENDMDL
MODEL 7
REMARK VINA RESULT:      -7.7      0.950      1.263
REMARK  Name = 
REMARK  9 active torsions:
REMARK  status: ('A' for Active; 'I' for Inactive)
REMARK    1  A    between atoms: C_1  and  C_2
REMARK    2  A    between atoms: C_2  and  C_3
REMARK    3  A    between atoms: C_2  and  C_4
REMARK    4  A    between atoms: C_6  and  C_7
REMARK    5  A    between atoms: N_8  and  N_9
REMARK    6  A    between atoms: C_20  and  C_21
REMARK    7  A    between atoms: C_22  and  C_23
REMARK    8  A    between atoms: C_23  and  C_25
REMARK    9  A    between atoms: C_30  and  O_31
REMARK                            x       y       z     vdW  Elec       q    Type
REMARK                         _______ _______ _______ _____ _____    ______ ____
ROOT
ATOM      1  C   UNL     1       2.224   4.621  19.288  0.00  0.00    +0.000 A 
ATOM      2  C   UNL     1       1.882   5.981  19.392  0.00  0.00    +0.000 A 
ATOM      3  C   UNL     1       2.576   6.946  18.654  0.00  0.00    +0.000 A 
ATOM      4  C   UNL     1       3.637   6.572  17.823  0.00  0.00    +0.000 A 
ATOM      5  C   UNL     1       3.990   5.224  17.660  0.00  0.00    +0.000 A 
ATOM      6  C   UNL     1       3.261   4.267  18.394  0.00  0.00    +0.000 A 
ENDROOT
BRANCH   1   8
ATOM      7  C   UNL     1       0.843   2.528  19.257  0.00  0.00    +0.000 C 
ATOM      8  C   UNL     1       1.555   3.552  20.148  0.00  0.00    +0.000 C 
ATOM      9  C   UNL     1       2.483   2.827  21.129  0.00  0.00    +0.000 C 
ENDBRANCH   1   8
BRANCH   3  10
ATOM     10  C   UNL     1       2.206   8.376  18.781  0.00  0.00    +0.000 C 
ATOM     11  N   UNL     1       1.280   8.899  18.039  0.00  0.00    +0.000 NA
BRANCH  11  12
ATOM     12  N   UNL     1       1.075  10.243  18.197  0.00  0.00    +0.000 N 
ATOM     13  C   UNL     1       0.393  10.766  19.251  0.00  0.00    +0.000 A 
ATOM     14  N   UNL     1      -0.281  11.896  19.176  0.00  0.00    +0.000 NA
ATOM     15  C   UNL     1      -0.903  12.173  20.386  0.00  0.00    +0.000 A 
ATOM     16  C   UNL     1      -1.750  13.269  20.654  0.00  0.00    +0.000 A 
ATOM     17  C   UNL     1      -2.290  13.438  21.935  0.00  0.00    +0.000 A 
ATOM     18  C   UNL     1      -1.990  12.536  22.950  0.00  0.00    +0.000 A 
ATOM     19  C   UNL     1      -1.165  11.435  22.705  0.00  0.00    +0.000 A 
ATOM     20  C   UNL     1      -0.645  11.268  21.411  0.00  0.00    +0.000 A 
ATOM     21  S   UNL     1       0.356  10.008  20.803  0.00  0.00    +0.000 S 
ATOM     22  H   UNL     1       1.012  10.819  17.355  0.00  0.00    +0.000 HD
ENDBRANCH  11  12
ENDBRANCH   3  10
BRANCH   5  23
ATOM     23  C   UNL     1       5.154   4.853  16.819  0.00  0.00    +0.000 C 
ATOM     24  C   UNL     1       5.405   5.429  15.634  0.00  0.00    +0.000 C 
BRANCH  24  25
ATOM     25  C   UNL     1       6.611   5.124  14.792  0.00  0.00    +0.000 C 
ATOM     26  O   UNL     1       7.722   5.499  15.162  0.00  0.00    +0.000 OA
BRANCH  25  27
ATOM     27  C   UNL     1       6.342   4.345  13.589  0.00  0.00    +0.000 A 
ATOM     28  C   UNL     1       5.211   3.620  13.256  0.00  0.00    +0.000 A 
ATOM     29  C   UNL     1       5.350   2.913  12.027  0.00  0.00    +0.000 A 
ATOM     30  C   UNL     1       6.578   3.141  11.445  0.00  0.00    +0.000 A 
ATOM     31  S   UNL     1       7.530   4.230  12.357  0.00  0.00    +0.000 S 
ENDBRANCH  25  27
ENDBRANCH  24  25
ENDBRANCH   5  23
BRANCH   6  32
ATOM     32  O   UNL     1       3.531   2.930  18.243  0.00  0.00    +0.000 OA
ATOM     33  H   UNL     1       3.056   2.463  18.953  0.00  0.00    +0.000 HD
ENDBRANCH   6  32
TORSDOF 7
ENDMDL
MODEL 8
REMARK VINA RESULT:      -7.7      4.959     11.421
REMARK  Name = 
REMARK  9 active torsions:
REMARK  status: ('A' for Active; 'I' for Inactive)
REMARK    1  A    between atoms: C_1  and  C_2
REMARK    2  A    between atoms: C_2  and  C_3
REMARK    3  A    between atoms: C_2  and  C_4
REMARK    4  A    between atoms: C_6  and  C_7
REMARK    5  A    between atoms: N_8  and  N_9
REMARK    6  A    between atoms: C_20  and  C_21
REMARK    7  A    between atoms: C_22  and  C_23
REMARK    8  A    between atoms: C_23  and  C_25
REMARK    9  A    between atoms: C_30  and  O_31
REMARK                            x       y       z     vdW  Elec       q    Type
REMARK                         _______ _______ _______ _____ _____    ______ ____
ROOT
ATOM      1  C   UNL     1       0.785  12.542  19.290  0.00  0.00    +0.000 A 
ATOM      2  C   UNL     1       1.059  11.287  19.864  0.00  0.00    +0.000 A 
ATOM      3  C   UNL     1       0.093  10.275  19.851  0.00  0.00    +0.000 A 
ATOM      4  C   UNL     1      -1.167  10.508  19.291  0.00  0.00    +0.000 A 
ATOM      5  C   UNL     1      -1.472  11.732  18.675  0.00  0.00    +0.000 A 
ATOM      6  C   UNL     1      -0.475  12.728  18.678  0.00  0.00    +0.000 A 
ENDROOT
BRANCH   1   8
ATOM      7  C   UNL     1       2.336  13.817  20.793  0.00  0.00    +0.000 C 
ATOM      8  C   UNL     1       1.778  13.699  19.370  0.00  0.00    +0.000 C 
ATOM      9  C   UNL     1       2.934  13.639  18.365  0.00  0.00    +0.000 C 
ENDBRANCH   1   8
BRANCH   3  10
ATOM     10  C   UNL     1       0.396   8.961  20.467  0.00  0.00    +0.000 C 
ATOM     11  N   UNL     1       1.617   8.596  20.705  0.00  0.00    +0.000 NA
BRANCH  11  12
ATOM     12  N   UNL     1       1.778   7.335  21.209  0.00  0.00    +0.000 N 
ATOM     13  C   UNL     1       1.913   6.236  20.419  0.00  0.00    +0.000 A 
ATOM     14  N   UNL     1       1.526   5.033  20.795  0.00  0.00    +0.000 NA
ATOM     15  C   UNL     1       1.753   4.111  19.783  0.00  0.00    +0.000 A 
ATOM     16  C   UNL     1       1.414   2.741  19.814  0.00  0.00    +0.000 A 
ATOM     17  C   UNL     1       1.729   1.918  18.725  0.00  0.00    +0.000 A 
ATOM     18  C   UNL     1       2.382   2.440  17.614  0.00  0.00    +0.000 A 
ATOM     19  C   UNL     1       2.716   3.796  17.554  0.00  0.00    +0.000 A 
ATOM     20  C   UNL     1       2.378   4.613  18.645  0.00  0.00    +0.000 A 
ATOM     21  S   UNL     1       2.622   6.304  18.844  0.00  0.00    +0.000 S 
ATOM     22  H   UNL     1       1.356   7.124  22.116  0.00  0.00    +0.000 HD
ENDBRANCH  11  12
ENDBRANCH   3  10
BRANCH   5  23
ATOM     23  C   UNL     1      -2.832  11.980  18.137  0.00  0.00    +0.000 C 
ATOM     24  C   UNL     1      -3.942  11.520  18.734  0.00  0.00    +0.000 C 
BRANCH  24  25
ATOM     25  C   UNL     1      -5.334  11.812  18.252  0.00  0.00    +0.000 C 
ATOM     26  O   UNL     1      -5.622  11.630  17.071  0.00  0.00    +0.000 OA
BRANCH  25  27
ATOM     27  C   UNL     1      -6.261  12.265  19.284  0.00  0.00    +0.000 A 
ATOM     28  C   UNL     1      -6.744  11.576  20.383  0.00  0.00    +0.000 A 
ATOM     29  C   UNL     1      -7.707  12.322  21.123  0.00  0.00    +0.000 A 
ATOM     30  C   UNL     1      -7.911  13.571  20.579  0.00  0.00    +0.000 A 
ATOM     31  S   UNL     1      -6.917  13.848  19.215  0.00  0.00    +0.000 S 
ENDBRANCH  25  27
ENDBRANCH  24  25
ENDBRANCH   5  23
BRANCH   6  32
ATOM     32  O   UNL     1      -0.699  13.929  18.053  0.00  0.00    +0.000 OA
ATOM     33  H   UNL     1      -0.135  13.945  17.259  0.00  0.00    +0.000 HD
ENDBRANCH   6  32
TORSDOF 7
ENDMDL
MODEL 9
REMARK VINA RESULT:      -7.7      2.458      2.978
REMARK  Name = 
REMARK  9 active torsions:
REMARK  status: ('A' for Active; 'I' for Inactive)
REMARK    1  A    between atoms: C_1  and  C_2
REMARK    2  A    between atoms: C_2  and  C_3
REMARK    3  A    between atoms: C_2  and  C_4
REMARK    4  A    between atoms: C_6  and  C_7
REMARK    5  A    between atoms: N_8  and  N_9
REMARK    6  A    between atoms: C_20  and  C_21
REMARK    7  A    between atoms: C_22  and  C_23
REMARK    8  A    between atoms: C_23  and  C_25
REMARK    9  A    between atoms: C_30  and  O_31
REMARK                            x       y       z     vdW  Elec       q    Type
REMARK                         _______ _______ _______ _____ _____    ______ ____
ROOT
ATOM      1  C   UNL     1       2.840   4.452  19.710  0.00  0.00    +0.000 A 
ATOM      2  C   UNL     1       2.125   5.585  20.137  0.00  0.00    +0.000 A 
ATOM      3  C   UNL     1       2.436   6.852  19.632  0.00  0.00    +0.000 A 
ATOM      4  C   UNL     1       3.481   7.011  18.716  0.00  0.00    +0.000 A 
ATOM      5  C   UNL     1       4.197   5.904  18.235  0.00  0.00    +0.000 A 
ATOM      6  C   UNL     1       3.849   4.635  18.738  0.00  0.00    +0.000 A 
ENDROOT
BRANCH   1   8
ATOM      7  C   UNL     1       2.096   3.202  21.754  0.00  0.00    +0.000 C 
ATOM      8  C   UNL     1       2.593   3.069  20.310  0.00  0.00    +0.000 C 
ATOM      9  C   UNL     1       1.637   2.173  19.514  0.00  0.00    +0.000 C 
ENDBRANCH   1   8
BRANCH   3  10
ATOM     10  C   UNL     1       1.677   8.037  20.099  0.00  0.00    +0.000 C 
ATOM     11  N   UNL     1       1.405   9.019  19.297  0.00  0.00    +0.000 NA
BRANCH  11  12
ATOM     12  N   UNL     1       0.762  10.089  19.858  0.00  0.00    +0.000 N 
ATOM     13  C   UNL     1       1.186  11.371  19.697  0.00  0.00    +0.000 A 
ATOM     14  N   UNL     1       0.975  12.312  20.597  0.00  0.00    +0.000 NA
ATOM     15  C   UNL     1       1.542  13.511  20.188  0.00  0.00    +0.000 A 
ATOM     16  C   UNL     1       1.560  14.716  20.923  0.00  0.00    +0.000 A 
ATOM     17  C   UNL     1       2.147  15.862  20.373  0.00  0.00    +0.000 A 
ATOM     18  C   UNL     1       2.707  15.824  19.100  0.00  0.00    +0.000 A 
ATOM     19  C   UNL     1       2.714  14.639  18.359  0.00  0.00    +0.000 A 
ATOM     20  C   UNL     1       2.138  13.493  18.931  0.00  0.00    +0.000 A 
ATOM     21  S   UNL     1       2.030  11.902  18.286  0.00  0.00    +0.000 S 
ATOM     22  H   UNL     1       0.263   9.941  20.738  0.00  0.00    +0.000 HD
ENDBRANCH  11  12
ENDBRANCH   3  10
BRANCH   5  23
ATOM     23  C   UNL     1       5.337   6.098  17.306  0.00  0.00    +0.000 C 
ATOM     24  C   UNL     1       5.664   5.203  16.362  0.00  0.00    +0.000 C 
BRANCH  24  25
ATOM     25  C   UNL     1       6.769   5.402  15.364  0.00  0.00    +0.000 C 
ATOM     26  O   UNL     1       7.752   6.074  15.670  0.00  0.00    +0.000 OA
BRANCH  25  27
ATOM     27  C   UNL     1       6.579   4.718  14.090  0.00  0.00    +0.000 A 
ATOM     28  C   UNL     1       5.584   3.829  13.719  0.00  0.00    +0.000 A 
ATOM     29  C   UNL     1       5.781   3.296  12.413  0.00  0.00    +0.000 A 
ATOM     30  C   UNL     1       6.908   3.815  11.814  0.00  0.00    +0.000 A 
ATOM     31  S   UNL     1       7.693   4.963  12.809  0.00  0.00    +0.000 S 
ENDBRANCH  25  27
ENDBRANCH  24  25
ENDBRANCH   5  23
BRANCH   6  32
ATOM     32  O   UNL     1       4.484   3.511  18.272  0.00  0.00    +0.000 OA
ATOM     33  H   UNL     1       5.304   3.414  18.788  0.00  0.00    +0.000 HD
ENDBRANCH   6  32
TORSDOF 7
ENDMDL
