MODEL 1
REMARK VINA RESULT:      -6.7      0.000      0.000
REMARK  Name = 
REMARK  6 active torsions:
REMARK  status: ('A' for Active; 'I' for Inactive)
REMARK    1  A    between atoms: C_1  and  C_2
REMARK    2  A    between atoms: C_4  and  C_5
REMARK    3  A    between atoms: C_6  and  S_7
REMARK    4  A    between atoms: S_7  and  N_10
REMARK    5  A    between atoms: C_13  and  N_14
REMARK    6  A    between atoms: C_23  and  C_24
REMARK                            x       y       z     vdW  Elec       q    Type
REMARK                         _______ _______ _______ _____ _____    ______ ____
ROOT
ATOM      1  N   UNL     1       0.417  10.058  20.146  0.00  0.00    +0.000 NA
ATOM      2  C   UNL     1      -0.889  10.006  19.434  0.00  0.00    +0.000 C 
ATOM      3  C   UNL     1      -1.407  11.379  19.006  0.00  0.00    +0.000 C 
ATOM      4  C   UNL     1      -1.462  12.446  20.112  0.00  0.00    +0.000 C 
ATOM      5  C   UNL     1      -0.084  12.484  20.790  0.00  0.00    +0.000 C 
ATOM      6  C   UNL     1       0.498  11.137  21.201  0.00  0.00    +0.000 C 
ENDROOT
BRANCH   4   7
ATOM      7  N   UNL     1      -2.637  12.445  21.027  0.00  0.00    +0.000 NA
ATOM      8  C   UNL     1      -2.354  12.966  22.371  0.00  0.00    +0.000 C 
ATOM      9  C   UNL     1      -3.259  12.431  23.500  0.00  0.00    +0.000 C 
ATOM     10  C   UNL     1      -4.630  13.085  23.638  0.00  0.00    +0.000 C 
ATOM     11  C   UNL     1      -5.522  12.931  22.416  0.00  0.00    +0.000 C 
ATOM     12  C   UNL     1      -4.934  13.625  21.194  0.00  0.00    +0.000 C 
ATOM     13  C   UNL     1      -3.925  12.763  20.427  0.00  0.00    +0.000 C 
ENDBRANCH   4   7
BRANCH   1  14
ATOM     14  S   UNL     1       0.906   8.529  20.875  0.00  0.00    +0.000 S 
ATOM     15  O   UNL     1      -0.301   7.749  21.057  0.00  0.00    +0.000 OA
ATOM     16  O   UNL     1       1.668   8.882  22.060  0.00  0.00    +0.000 OA
BRANCH  14  22
ATOM     17  C   UNL     1       4.471   5.549  16.793  0.00  0.00    +0.000 C 
ATOM     18  C   UNL     1       3.580   6.235  17.789  0.00  0.00    +0.000 A 
ATOM     19  C   UNL     1       3.135   5.611  18.951  0.00  0.00    +0.000 A 
ATOM     20  C   UNL     1       2.335   6.292  19.903  0.00  0.00    +0.000 A 
ATOM     21  C   UNL     1       1.843   5.458  21.059  0.00  0.00    +0.000 C 
ATOM     22  C   UNL     1       2.002   7.666  19.701  0.00  0.00    +0.000 A 
ATOM     23  C   UNL     1       2.410   8.283  18.487  0.00  0.00    +0.000 A 
ATOM     24  C   UNL     1       2.175   9.707  18.056  0.00  0.00    +0.000 C 
ATOM     25  C   UNL     1       3.193   7.551  17.564  0.00  0.00    +0.000 A 
ENDBRANCH  14  22
ENDBRANCH   1  14
TORSDOF 3
ENDMDL
MODEL 2
REMARK VINA RESULT:      -6.7      1.669      2.735
REMARK  Name = 
REMARK  6 active torsions:
REMARK  status: ('A' for Active; 'I' for Inactive)
REMARK    1  A    between atoms: C_1  and  C_2
REMARK    2  A    between atoms: C_4  and  C_5
REMARK    3  A    between atoms: C_6  and  S_7
REMARK    4  A    between atoms: S_7  and  N_10
REMARK    5  A    between atoms: C_13  and  N_14
REMARK    6  A    between atoms: C_23  and  C_24
REMARK                            x       y       z     vdW  Elec       q    Type
REMARK                         _______ _______ _______ _____ _____    ______ ____
ROOT
ATOM      1  N   UNL     1      -0.401  10.740  19.461  0.00  0.00    +0.000 NA
ATOM      2  C   UNL     1      -1.388  10.097  18.550  0.00  0.00    +0.000 C 
ATOM      3  C   UNL     1      -2.253  11.097  17.783  0.00  0.00    +0.000 C 
ATOM      4  C   UNL     1      -2.955  12.166  18.636  0.00  0.00    +0.000 C 
ATOM      5  C   UNL     1      -1.891  12.820  19.530  0.00  0.00    +0.000 C 
ATOM      6  C   UNL     1      -0.974  11.867  20.288  0.00  0.00    +0.000 C 
ENDROOT
BRANCH   4   7
ATOM      7  N   UNL     1      -4.230  11.796  19.309  0.00  0.00    +0.000 NA
ATOM      8  C   UNL     1      -4.796  12.855  20.155  0.00  0.00    +0.000 C 
ATOM      9  C   UNL     1      -5.685  12.379  21.321  0.00  0.00    +0.000 C 
ATOM     10  C   UNL     1      -7.126  12.019  20.972  0.00  0.00    +0.000 C 
ATOM     11  C   UNL     1      -7.263  10.875  19.980  0.00  0.00    +0.000 C 
ATOM     12  C   UNL     1      -6.660  11.225  18.625  0.00  0.00    +0.000 C 
ATOM     13  C   UNL     1      -5.152  10.969  18.542  0.00  0.00    +0.000 C 
ENDBRANCH   4   7
BRANCH   1  14
ATOM     14  S   UNL     1       0.421   9.618  20.544  0.00  0.00    +0.000 S 
ATOM     15  O   UNL     1      -0.606   8.806  21.163  0.00  0.00    +0.000 OA
ATOM     16  O   UNL     1       1.247  10.439  21.411  0.00  0.00    +0.000 OA
BRANCH  14  22
ATOM     17  C   UNL     1       4.227   6.035  17.238  0.00  0.00    +0.000 C 
ATOM     18  C   UNL     1       3.332   6.940  18.034  0.00  0.00    +0.000 A 
ATOM     19  C   UNL     1       3.056   8.249  17.649  0.00  0.00    +0.000 A 
ATOM     20  C   UNL     1       2.168   9.071  18.389  0.00  0.00    +0.000 A 
ATOM     21  C   UNL     1       2.047  10.497  17.911  0.00  0.00    +0.000 C 
ATOM     22  C   UNL     1       1.500   8.547  19.538  0.00  0.00    +0.000 A 
ATOM     23  C   UNL     1       1.828   7.229  19.960  0.00  0.00    +0.000 A 
ATOM     24  C   UNL     1       1.259   6.472  21.131  0.00  0.00    +0.000 C 
ATOM     25  C   UNL     1       2.733   6.458  19.193  0.00  0.00    +0.000 A 
ENDBRANCH  14  22
ENDBRANCH   1  14
TORSDOF 3
ENDMDL
MODEL 3
REMARK VINA RESULT:      -6.6      0.462      1.284
REMARK  Name = 
REMARK  6 active torsions:
REMARK  status: ('A' for Active; 'I' for Inactive)
REMARK    1  A    between atoms: C_1  and  C_2
REMARK    2  A    between atoms: C_4  and  C_5
REMARK    3  A    between atoms: C_6  and  S_7
REMARK    4  A    between atoms: S_7  and  N_10
REMARK    5  A    between atoms: C_13  and  N_14
REMARK    6  A    between atoms: C_23  and  C_24
REMARK                            x       y       z     vdW  Elec       q    Type
REMARK                         _______ _______ _______ _____ _____    ______ ____
ROOT
ATOM      1  N   UNL     1       0.531  10.149  20.017  0.00  0.00    +0.000 NA
ATOM      2  C   UNL     1      -0.880  10.213  19.549  0.00  0.00    +0.000 C 
ATOM      3  C   UNL     1      -1.307  11.605  19.081  0.00  0.00    +0.000 C 
ATOM      4  C   UNL     1      -1.035  12.753  20.067  0.00  0.00    +0.000 C 
ATOM      5  C   UNL     1       0.440  12.662  20.491  0.00  0.00    +0.000 C 
ATOM      6  C   UNL     1       0.927  11.287  20.929  0.00  0.00    +0.000 C 
ENDROOT
BRANCH   4   7
ATOM      7  N   UNL     1      -2.014  12.978  21.166  0.00  0.00    +0.000 NA
ATOM      8  C   UNL     1      -3.416  12.789  20.772  0.00  0.00    +0.000 C 
ATOM      9  C   UNL     1      -4.455  13.582  21.591  0.00  0.00    +0.000 C 
ATOM     10  C   UNL     1      -4.852  12.988  22.939  0.00  0.00    +0.000 C 
ATOM     11  C   UNL     1      -3.704  12.853  23.926  0.00  0.00    +0.000 C 
ATOM     12  C   UNL     1      -2.638  11.886  23.427  0.00  0.00    +0.000 C 
ATOM     13  C   UNL     1      -1.611  12.535  22.493  0.00  0.00    +0.000 C 
ENDBRANCH   4   7
BRANCH   1  14
ATOM     14  S   UNL     1       0.966   8.631  20.801  0.00  0.00    +0.000 S 
ATOM     15  O   UNL     1      -0.268   7.900  21.008  0.00  0.00    +0.000 OA
ATOM     16  O   UNL     1       1.739   8.998  21.974  0.00  0.00    +0.000 OA
BRANCH  14  22
ATOM     17  C   UNL     1       4.425   5.383  16.835  0.00  0.00    +0.000 C 
ATOM     18  C   UNL     1       3.560   6.135  17.803  0.00  0.00    +0.000 A 
ATOM     19  C   UNL     1       3.096   5.570  18.989  0.00  0.00    +0.000 A 
ATOM     20  C   UNL     1       2.320   6.313  19.915  0.00  0.00    +0.000 A 
ATOM     21  C   UNL     1       1.803   5.540  21.102  0.00  0.00    +0.000 C 
ATOM     22  C   UNL     1       2.031   7.688  19.660  0.00  0.00    +0.000 A 
ATOM     23  C   UNL     1       2.457   8.245  18.423  0.00  0.00    +0.000 A 
ATOM     24  C   UNL     1       2.267   9.658  17.939  0.00  0.00    +0.000 C 
ATOM     25  C   UNL     1       3.215   7.453  17.528  0.00  0.00    +0.000 A 
ENDBRANCH  14  22
ENDBRANCH   1  14
TORSDOF 3
ENDMDL
MODEL 4
REMARK VINA RESULT:      -6.6      0.114      1.766
REMARK  Name = 
REMARK  6 active torsions:
REMARK  status: ('A' for Active; 'I' for Inactive)
REMARK    1  A    between atoms: C_1  and  C_2
REMARK    2  A    between atoms: C_4  and  C_5
REMARK    3  A    between atoms: C_6  and  S_7
REMARK    4  A    between atoms: S_7  and  N_10
REMARK    5  A    between atoms: C_13  and  N_14
REMARK    6  A    between atoms: C_23  and  C_24
REMARK                            x       y       z     vdW  Elec       q    Type
REMARK                         _______ _______ _______ _____ _____    ______ ____
ROOT
ATOM      1  N   UNL     1       0.385  10.118  20.107  0.00  0.00    +0.000 NA
ATOM      2  C   UNL     1      -0.936  10.058  19.424  0.00  0.00    +0.000 C 
ATOM      3  C   UNL     1      -1.470  11.428  19.003  0.00  0.00    +0.000 C 
ATOM      4  C   UNL     1      -1.504  12.499  20.106  0.00  0.00    +0.000 C 
ATOM      5  C   UNL     1      -0.111  12.544  20.753  0.00  0.00    +0.000 C 
ATOM      6  C   UNL     1       0.485  11.201  21.156  0.00  0.00    +0.000 C 
ENDROOT
BRANCH   4   7
ATOM      7  N   UNL     1      -2.657  12.497  21.047  0.00  0.00    +0.000 NA
ATOM      8  C   UNL     1      -2.323  12.926  22.411  0.00  0.00    +0.000 C 
ATOM      9  C   UNL     1      -3.228  12.367  23.529  0.00  0.00    +0.000 C 
ATOM     10  C   UNL     1      -4.564  13.072  23.737  0.00  0.00    +0.000 C 
ATOM     11  C   UNL     1      -5.488  13.030  22.530  0.00  0.00    +0.000 C 
ATOM     12  C   UNL     1      -4.894  13.766  21.336  0.00  0.00    +0.000 C 
ATOM     13  C   UNL     1      -3.942  12.906  20.497  0.00  0.00    +0.000 C 
ENDBRANCH   4   7
BRANCH   1  14
ATOM     14  S   UNL     1       0.896   8.594  20.831  0.00  0.00    +0.000 S 
ATOM     15  O   UNL     1      -0.308   7.834  21.098  0.00  0.00    +0.000 OA
ATOM     16  O   UNL     1       1.733   8.954  21.962  0.00  0.00    +0.000 OA
BRANCH  14  22
ATOM     17  C   UNL     1       4.478   5.598  16.775  0.00  0.00    +0.000 C 
ATOM     18  C   UNL     1       3.634   6.362  17.754  0.00  0.00    +0.000 A 
ATOM     19  C   UNL     1       3.243   7.680  17.537  0.00  0.00    +0.000 A 
ATOM     20  C   UNL     1       2.404   8.369  18.450  0.00  0.00    +0.000 A 
ATOM     21  C   UNL     1       2.150   9.822  18.136  0.00  0.00    +0.000 C 
ATOM     22  C   UNL     1       1.906   7.696  19.607  0.00  0.00    +0.000 A 
ATOM     23  C   UNL     1       2.353   6.369  19.855  0.00  0.00    +0.000 A 
ATOM     24  C   UNL     1       1.968   5.469  20.999  0.00  0.00    +0.000 C 
ATOM     25  C   UNL     1       3.203   5.735  18.918  0.00  0.00    +0.000 A 
ENDBRANCH  14  22
ENDBRANCH   1  14
TORSDOF 3
ENDMDL
MODEL 5
REMARK VINA RESULT:      -6.6      2.529      7.994
REMARK  Name = 
REMARK  6 active torsions:
REMARK  status: ('A' for Active; 'I' for Inactive)
REMARK    1  A    between atoms: C_1  and  C_2
REMARK    2  A    between atoms: C_4  and  C_5
REMARK    3  A    between atoms: C_6  and  S_7
REMARK    4  A    between atoms: S_7  and  N_10
REMARK    5  A    between atoms: C_13  and  N_14
REMARK    6  A    between atoms: C_23  and  C_24
REMARK                            x       y       z     vdW  Elec       q    Type
REMARK                         _______ _______ _______ _____ _____    ______ ____
ROOT
ATOM      1  N   UNL     1       1.118   9.566  19.169  0.00  0.00    +0.000 NA
ATOM      2  C   UNL     1       1.079   8.773  20.428  0.00  0.00    +0.000 C 
ATOM      3  C   UNL     1       2.315   7.899  20.638  0.00  0.00    +0.000 C 
ATOM      4  C   UNL     1       2.695   6.984  19.462  0.00  0.00    +0.000 C 
ATOM      5  C   UNL     1       2.755   7.855  18.197  0.00  0.00    +0.000 C 
ATOM      6  C   UNL     1       1.564   8.776  17.961  0.00  0.00    +0.000 C 
ENDROOT
BRANCH   4   7
ATOM      7  N   UNL     1       1.977   5.688  19.324  0.00  0.00    +0.000 NA
ATOM      8  C   UNL     1       2.528   4.800  18.292  0.00  0.00    +0.000 C 
ATOM      9  C   UNL     1       1.533   3.801  17.666  0.00  0.00    +0.000 C 
ATOM     10  C   UNL     1       1.248   2.535  18.468  0.00  0.00    +0.000 C 
ATOM     11  C   UNL     1       0.629   2.787  19.834  0.00  0.00    +0.000 C 
ATOM     12  C   UNL     1       1.568   3.565  20.747  0.00  0.00    +0.000 C 
ATOM     13  C   UNL     1       1.489   5.084  20.556  0.00  0.00    +0.000 C 
ENDBRANCH   4   7
BRANCH   1  14
ATOM     14  S   UNL     1      -0.399  10.374  18.775  0.00  0.00    +0.000 S 
ATOM     15  O   UNL     1      -1.364   9.961  19.774  0.00  0.00    +0.000 OA
ATOM     16  O   UNL     1      -0.677  10.042  17.389  0.00  0.00    +0.000 OA
BRANCH  14  22
ATOM     17  C   UNL     1       0.566  16.450  19.414  0.00  0.00    +0.000 C 
ATOM     18  C   UNL     1       0.309  14.975  19.298  0.00  0.00    +0.000 A 
ATOM     19  C   UNL     1      -0.922  14.403  19.606  0.00  0.00    +0.000 A 
ATOM     20  C   UNL     1      -1.160  13.014  19.442  0.00  0.00    +0.000 A 
ATOM     21  C   UNL     1      -2.505  12.522  19.913  0.00  0.00    +0.000 C 
ATOM     22  C   UNL     1      -0.134  12.173  18.912  0.00  0.00    +0.000 A 
ATOM     23  C   UNL     1       1.139  12.750  18.653  0.00  0.00    +0.000 A 
ATOM     24  C   UNL     1       2.361  12.067  18.099  0.00  0.00    +0.000 C 
ATOM     25  C   UNL     1       1.326  14.139  18.849  0.00  0.00    +0.000 A 
ENDBRANCH  14  22
ENDBRANCH   1  14
TORSDOF 3
ENDMDL
MODEL 6
REMARK VINA RESULT:      -6.6      3.705      5.887
REMARK  Name = 
REMARK  6 active torsions:
REMARK  status: ('A' for Active; 'I' for Inactive)
REMARK    1  A    between atoms: C_1  and  C_2
REMARK    2  A    between atoms: C_4  and  C_5
REMARK    3  A    between atoms: C_6  and  S_7
REMARK    4  A    between atoms: S_7  and  N_10
REMARK    5  A    between atoms: C_13  and  N_14
REMARK    6  A    between atoms: C_23  and  C_24
REMARK                            x       y       z     vdW  Elec       q    Type
REMARK                         _______ _______ _______ _____ _____    ______ ____
ROOT
ATOM      1  N   UNL     1       0.677  13.048  21.856  0.00  0.00    +0.000 NA
ATOM      2  C   UNL     1       1.402  13.200  20.566  0.00  0.00    +0.000 C 
ATOM      3  C   UNL     1       2.217  14.490  20.470  0.00  0.00    +0.000 C 
ATOM      4  C   UNL     1       1.455  15.787  20.792  0.00  0.00    +0.000 C 
ATOM      5  C   UNL     1       0.755  15.590  22.146  0.00  0.00    +0.000 C 
ATOM      6  C   UNL     1      -0.039  14.300  22.308  0.00  0.00    +0.000 C 
ENDROOT
BRANCH   4   7
ATOM      7  N   UNL     1       0.628  16.397  19.716  0.00  0.00    +0.000 NA
ATOM      8  C   UNL     1      -0.396  17.333  20.199  0.00  0.00    +0.000 C 
ATOM      9  C   UNL     1      -1.637  17.494  19.297  0.00  0.00    +0.000 C 
ATOM     10  C   UNL     1      -1.487  18.425  18.098  0.00  0.00    +0.000 C 
ATOM     11  C   UNL     1      -0.423  17.995  17.101  0.00  0.00    +0.000 C 
ATOM     12  C   UNL     1       0.970  18.007  17.718  0.00  0.00    +0.000 C 
ATOM     13  C   UNL     1       1.316  16.719  18.473  0.00  0.00    +0.000 C 
ENDBRANCH   4   7
BRANCH   1  14
ATOM     14  S   UNL     1      -0.469  11.709  21.890  0.00  0.00    +0.000 S 
ATOM     15  O   UNL     1      -1.595  12.143  22.692  0.00  0.00    +0.000 OA
ATOM     16  O   UNL     1       0.283  10.556  22.351  0.00  0.00    +0.000 OA
BRANCH  14  22
ATOM     17  C   UNL     1      -2.512  10.548  16.169  0.00  0.00    +0.000 C 
ATOM     18  C   UNL     1      -2.009  10.785  17.564  0.00  0.00    +0.000 A 
ATOM     19  C   UNL     1      -0.898  10.126  18.082  0.00  0.00    +0.000 A 
ATOM     20  C   UNL     1      -0.409  10.401  19.385  0.00  0.00    +0.000 A 
ATOM     21  C   UNL     1       0.737   9.537  19.848  0.00  0.00    +0.000 C 
ATOM     22  C   UNL     1      -1.036  11.405  20.184  0.00  0.00    +0.000 A 
ATOM     23  C   UNL     1      -2.204  12.035  19.674  0.00  0.00    +0.000 A 
ATOM     24  C   UNL     1      -3.027  13.111  20.331  0.00  0.00    +0.000 C 
ATOM     25  C   UNL     1      -2.657  11.711  18.374  0.00  0.00    +0.000 A 
ENDBRANCH  14  22
ENDBRANCH   1  14
TORSDOF 3
ENDMDL
MODEL 7
REMARK VINA RESULT:      -6.6      0.449      2.175
REMARK  Name = 
REMARK  6 active torsions:
REMARK  status: ('A' for Active; 'I' for Inactive)
REMARK    1  A    between atoms: C_1  and  C_2
REMARK    2  A    between atoms: C_4  and  C_5
REMARK    3  A    between atoms: C_6  and  S_7
REMARK    4  A    between atoms: S_7  and  N_10
REMARK    5  A    between atoms: C_13  and  N_14
REMARK    6  A    between atoms: C_23  and  C_24
REMARK                            x       y       z     vdW  Elec       q    Type
REMARK                         _______ _______ _______ _____ _____    ______ ____
ROOT
ATOM      1  N   UNL     1       0.522  10.184  19.999  0.00  0.00    +0.000 NA
ATOM      2  C   UNL     1      -0.885  10.226  19.516  0.00  0.00    +0.000 C 
ATOM      3  C   UNL     1      -1.326  11.610  19.038  0.00  0.00    +0.000 C 
ATOM      4  C   UNL     1      -1.080  12.766  20.020  0.00  0.00    +0.000 C 
ATOM      5  C   UNL     1       0.391  12.699  20.459  0.00  0.00    +0.000 C 
ATOM      6  C   UNL     1       0.893  11.332  20.908  0.00  0.00    +0.000 C 
ENDROOT
BRANCH   4   7
ATOM      7  N   UNL     1      -2.073  12.983  21.108  0.00  0.00    +0.000 NA
ATOM      8  C   UNL     1      -3.467  12.754  20.706  0.00  0.00    +0.000 C 
ATOM      9  C   UNL     1      -4.532  13.533  21.506  0.00  0.00    +0.000 C 
ATOM     10  C   UNL     1      -4.925  12.949  22.859  0.00  0.00    +0.000 C 
ATOM     11  C   UNL     1      -3.781  12.857  23.857  0.00  0.00    +0.000 C 
ATOM     12  C   UNL     1      -2.688  11.909  23.380  0.00  0.00    +0.000 C 
ATOM     13  C   UNL     1      -1.670  12.570  22.445  0.00  0.00    +0.000 C 
ENDBRANCH   4   7
BRANCH   1  14
ATOM     14  S   UNL     1       0.970   8.677  20.795  0.00  0.00    +0.000 S 
ATOM     15  O   UNL     1      -0.265   7.989  21.112  0.00  0.00    +0.000 OA
ATOM     16  O   UNL     1       1.836   9.054  21.899  0.00  0.00    +0.000 OA
BRANCH  14  22
ATOM     17  C   UNL     1       4.363   5.314  16.867  0.00  0.00    +0.000 C 
ATOM     18  C   UNL     1       3.567   6.166  17.813  0.00  0.00    +0.000 A 
ATOM     19  C   UNL     1       3.240   7.490  17.534  0.00  0.00    +0.000 A 
ATOM     20  C   UNL     1       2.444   8.262  18.418  0.00  0.00    +0.000 A 
ATOM     21  C   UNL     1       2.260   9.709  18.035  0.00  0.00    +0.000 C 
ATOM     22  C   UNL     1       1.924   7.671  19.610  0.00  0.00    +0.000 A 
ATOM     23  C   UNL     1       2.307   6.337  19.919  0.00  0.00    +0.000 A 
ATOM     24  C   UNL     1       1.889   5.514  21.108  0.00  0.00    +0.000 C 
ATOM     25  C   UNL     1       3.116   5.618  19.008  0.00  0.00    +0.000 A 
ENDBRANCH  14  22
ENDBRANCH   1  14
TORSDOF 3
ENDMDL
MODEL 8
REMARK VINA RESULT:      -6.5      2.509      8.035
REMARK  Name = 
REMARK  6 active torsions:
REMARK  status: ('A' for Active; 'I' for Inactive)
REMARK    1  A    between atoms: C_1  and  C_2
REMARK    2  A    between atoms: C_4  and  C_5
REMARK    3  A    between atoms: C_6  and  S_7
REMARK    4  A    between atoms: S_7  and  N_10
REMARK    5  A    between atoms: C_13  and  N_14
REMARK    6  A    between atoms: C_23  and  C_24
REMARK                            x       y       z     vdW  Elec       q    Type
REMARK                         _______ _______ _______ _____ _____    ______ ____
ROOT
ATOM      1  N   UNL     1       1.102   9.591  19.260  0.00  0.00    +0.000 NA
ATOM      2  C   UNL     1       1.044   8.784  20.509  0.00  0.00    +0.000 C 
ATOM      3  C   UNL     1       2.273   7.899  20.723  0.00  0.00    +0.000 C 
ATOM      4  C   UNL     1       2.660   6.996  19.540  0.00  0.00    +0.000 C 
ATOM      5  C   UNL     1       2.739   7.881  18.286  0.00  0.00    +0.000 C 
ATOM      6  C   UNL     1       1.557   8.812  18.047  0.00  0.00    +0.000 C 
ENDROOT
BRANCH   4   7
ATOM      7  N   UNL     1       1.935   5.706  19.380  0.00  0.00    +0.000 NA
ATOM      8  C   UNL     1       2.454   4.853  18.303  0.00  0.00    +0.000 C 
ATOM      9  C   UNL     1       1.439   3.876  17.673  0.00  0.00    +0.000 C 
ATOM     10  C   UNL     1       1.175   2.585  18.441  0.00  0.00    +0.000 C 
ATOM     11  C   UNL     1       0.597   2.791  19.832  0.00  0.00    +0.000 C 
ATOM     12  C   UNL     1       1.563   3.537  20.742  0.00  0.00    +0.000 C 
ATOM     13  C   UNL     1       1.482   5.061  20.605  0.00  0.00    +0.000 C 
ENDBRANCH   4   7
BRANCH   1  14
ATOM     14  S   UNL     1      -0.405  10.413  18.859  0.00  0.00    +0.000 S 
ATOM     15  O   UNL     1      -1.403   9.936  19.794  0.00  0.00    +0.000 OA
ATOM     16  O   UNL     1      -0.629  10.163  17.446  0.00  0.00    +0.000 OA
BRANCH  14  22
ATOM     17  C   UNL     1       0.360  16.512  19.546  0.00  0.00    +0.000 C 
ATOM     18  C   UNL     1       0.197  15.034  19.340  0.00  0.00    +0.000 A 
ATOM     19  C   UNL     1       1.227  14.225  18.868  0.00  0.00    +0.000 A 
ATOM     20  C   UNL     1       1.068  12.822  18.727  0.00  0.00    +0.000 A 
ATOM     21  C   UNL     1       2.234  12.092  18.108  0.00  0.00    +0.000 C 
ATOM     22  C   UNL     1      -0.159  12.202  19.112  0.00  0.00    +0.000 A 
ATOM     23  C   UNL     1      -1.227  13.037  19.540  0.00  0.00    +0.000 A 
ATOM     24  C   UNL     1      -2.600  12.614  19.989  0.00  0.00    +0.000 C 
ATOM     25  C   UNL     1      -1.019  14.433  19.646  0.00  0.00    +0.000 A 
ENDBRANCH  14  22
ENDBRANCH   1  14
TORSDOF 3
ENDMDL
MODEL 9
REMARK VINA RESULT:      -6.4      3.939      6.025
REMARK  Name = 
REMARK  6 active torsions:
REMARK  status: ('A' for Active; 'I' for Inactive)
REMARK    1  A    between atoms: C_1  and  C_2
REMARK    2  A    between atoms: C_4  and  C_5
REMARK    3  A    between atoms: C_6  and  S_7
REMARK    4  A    between atoms: S_7  and  N_10
REMARK    5  A    between atoms: C_13  and  N_14
REMARK    6  A    between atoms: C_23  and  C_24
REMARK                            x       y       z     vdW  Elec       q    Type
REMARK                         _______ _______ _______ _____ _____    ______ ____
ROOT
ATOM      1  N   UNL     1       1.679  13.033  20.479  0.00  0.00    +0.000 NA
ATOM      2  C   UNL     1       1.636  13.305  19.016  0.00  0.00    +0.000 C 
ATOM      3  C   UNL     1       2.627  14.378  18.564  0.00  0.00    +0.000 C 
ATOM      4  C   UNL     1       2.576  15.704  19.340  0.00  0.00    +0.000 C 
ATOM      5  C   UNL     1       2.659  15.370  20.838  0.00  0.00    +0.000 C 
ATOM      6  C   UNL     1       1.719  14.278  21.333  0.00  0.00    +0.000 C 
ENDROOT
BRANCH   4   7
ATOM      7  N   UNL     1       1.541  16.701  18.953  0.00  0.00    +0.000 NA
ATOM      8  C   UNL     1       1.558  17.067  17.531  0.00  0.00    +0.000 C 
ATOM      9  C   UNL     1       1.010  18.469  17.193  0.00  0.00    +0.000 C 
ATOM     10  C   UNL     1      -0.508  18.602  17.111  0.00  0.00    +0.000 C 
ATOM     11  C   UNL     1      -1.235  18.280  18.407  0.00  0.00    +0.000 C 
ATOM     12  C   UNL     1      -1.041  16.826  18.819  0.00  0.00    +0.000 C 
ATOM     13  C   UNL     1       0.248  16.581  19.612  0.00  0.00    +0.000 C 
ENDBRANCH   4   7
BRANCH   1  14
ATOM     14  S   UNL     1       0.376  11.999  21.062  0.00  0.00    +0.000 S 
ATOM     15  O   UNL     1      -0.467  12.825  21.903  0.00  0.00    +0.000 OA
ATOM     16  O   UNL     1       1.023  10.852  21.673  0.00  0.00    +0.000 OA
BRANCH  14  22
ATOM     17  C   UNL     1      -2.990   9.971  16.286  0.00  0.00    +0.000 C 
ATOM     18  C   UNL     1      -2.161  10.421  17.454  0.00  0.00    +0.000 A 
ATOM     19  C   UNL     1      -0.904   9.890  17.729  0.00  0.00    +0.000 A 
ATOM     20  C   UNL     1      -0.116  10.363  18.810  0.00  0.00    +0.000 A 
ATOM     21  C   UNL     1       1.177   9.623  19.048  0.00  0.00    +0.000 C 
ATOM     22  C   UNL     1      -0.590  11.438  19.621  0.00  0.00    +0.000 A 
ATOM     23  C   UNL     1      -1.897  11.939  19.372  0.00  0.00    +0.000 A 
ATOM     24  C   UNL     1      -2.605  13.057  20.092  0.00  0.00    +0.000 C 
ATOM     25  C   UNL     1      -2.647  11.419  18.291  0.00  0.00    +0.000 A 
ENDBRANCH  14  22
ENDBRANCH   1  14
TORSDOF 3
ENDMDL
