MODEL 1
REMARK VINA RESULT:      -7.8      0.000      0.000
REMARK  Name = 
REMARK  5 active torsions:
REMARK  status: ('A' for Active; 'I' for Inactive)
REMARK    1  A    between atoms: C_1  and  O_2
REMARK    2  A    between atoms: O_2  and  C_3
REMARK    3  A    between atoms: C_6  and  N_7
REMARK    4  A    between atoms: N_7  and  C_8
REMARK    5  A    between atoms: C_9  and  C_10
REMARK                            x       y       z     vdW  Elec       q    Type
REMARK                         _______ _______ _______ _____ _____    ______ ____
ROOT
ATOM      1  C   UNL     1       3.375   6.465  19.168  0.00  0.00    +0.000 A 
ATOM      2  C   UNL     1       3.998   5.349  19.618  0.00  0.00    +0.000 A 
ATOM      3  O   UNL     1       5.403   5.297  19.601  0.00  0.00    +0.000 OA
ATOM      4  C   UNL     1       5.929   5.458  18.339  0.00  0.00    +0.000 A 
ATOM      5  C   UNL     1       7.145   4.853  18.049  0.00  0.00    +0.000 A 
ATOM      6  C   UNL     1       7.472   4.639  16.712  0.00  0.00    +0.000 A 
ATOM      7  C   UNL     1       6.591   5.042  15.702  0.00  0.00    +0.000 A 
ATOM      8  C   UNL     1       5.444   5.783  16.011  0.00  0.00    +0.000 A 
ATOM      9  C   UNL     1       5.143   6.032  17.346  0.00  0.00    +0.000 A 
ATOM     10  C   UNL     1       3.934   6.788  17.775  0.00  0.00    +0.000 A 
ATOM     11  O   UNL     1       3.392   7.566  17.004  0.00  0.00    +0.000 OA
ENDROOT
BRANCH   2  12
ATOM     12  C   UNL     1       3.365   4.101  19.229  0.00  0.00    +0.000 A 
ATOM     13  C   UNL     1       3.843   2.791  19.255  0.00  0.00    +0.000 A 
ATOM     14  C   UNL     1       2.955   1.980  18.504  0.00  0.00    +0.000 A 
ATOM     15  C   UNL     1       1.959   2.813  18.068  0.00  0.00    +0.000 A 
ATOM     16  O   UNL     1       2.168   4.067  18.524  0.00  0.00    +0.000 OA
ENDBRANCH   2  12
BRANCH   1  17
ATOM     17  N   UNL     1       2.013   6.765  19.348  0.00  0.00    +0.000 N 
ATOM     18  H   UNL     1       1.577   5.975  19.828  0.00  0.00    +0.000 HD
BRANCH  17  22
ATOM     19  C   UNL     1       0.751  10.319  21.315  0.00  0.00    +0.000 A 
ATOM     20  C   UNL     1       0.879  10.285  19.923  0.00  0.00    +0.000 A 
ATOM     21  C   UNL     1       1.298   9.121  19.269  0.00  0.00    +0.000 A 
ATOM     22  C   UNL     1       1.631   7.973  19.997  0.00  0.00    +0.000 A 
ATOM     23  C   UNL     1       1.472   8.005  21.389  0.00  0.00    +0.000 A 
ATOM     24  C   UNL     1       1.051   9.172  22.046  0.00  0.00    +0.000 A 
BRANCH  19  26
ATOM     25  C   UNL     1      -0.809  11.551  22.612  0.00  0.00    +0.000 C 
ATOM     26  O   UNL     1       0.377  11.531  21.826  0.00  0.00    +0.000 OA
ENDBRANCH  19  26
ENDBRANCH  17  22
ENDBRANCH   1  17
TORSDOF 4
ENDMDL
MODEL 2
REMARK VINA RESULT:      -7.6      0.548      1.106
REMARK  Name = 
REMARK  5 active torsions:
REMARK  status: ('A' for Active; 'I' for Inactive)
REMARK    1  A    between atoms: C_1  and  O_2
REMARK    2  A    between atoms: O_2  and  C_3
REMARK    3  A    between atoms: C_6  and  N_7
REMARK    4  A    between atoms: N_7  and  C_8
REMARK    5  A    between atoms: C_9  and  C_10
REMARK                            x       y       z     vdW  Elec       q    Type
REMARK                         _______ _______ _______ _____ _____    ______ ____
ROOT
ATOM      1  C   UNL     1       3.278   6.518  19.140  0.00  0.00    +0.000 A 
ATOM      2  C   UNL     1       3.881   5.398  19.607  0.00  0.00    +0.000 A 
ATOM      3  O   UNL     1       5.285   5.336  19.628  0.00  0.00    +0.000 OA
ATOM      4  C   UNL     1       5.845   5.492  18.381  0.00  0.00    +0.000 A 
ATOM      5  C   UNL     1       7.064   4.878  18.123  0.00  0.00    +0.000 A 
ATOM      6  C   UNL     1       7.425   4.662  16.796  0.00  0.00    +0.000 A 
ATOM      7  C   UNL     1       6.575   5.071  15.762  0.00  0.00    +0.000 A 
ATOM      8  C   UNL     1       5.426   5.821  16.040  0.00  0.00    +0.000 A 
ATOM      9  C   UNL     1       5.090   6.072  17.367  0.00  0.00    +0.000 A 
ATOM     10  C   UNL     1       3.876   6.837  17.763  0.00  0.00    +0.000 A 
ATOM     11  O   UNL     1       3.361   7.619  16.978  0.00  0.00    +0.000 OA
ENDROOT
BRANCH   2  12
ATOM     12  C   UNL     1       3.248   4.154  19.201  0.00  0.00    +0.000 A 
ATOM     13  C   UNL     1       3.804   2.955  18.756  0.00  0.00    +0.000 A 
ATOM     14  C   UNL     1       2.762   2.160  18.214  0.00  0.00    +0.000 A 
ATOM     15  C   UNL     1       1.612   2.887  18.368  0.00  0.00    +0.000 A 
ATOM     16  O   UNL     1       1.879   4.056  18.988  0.00  0.00    +0.000 OA
ENDBRANCH   2  12
BRANCH   1  17
ATOM     17  N   UNL     1       1.914   6.829  19.284  0.00  0.00    +0.000 N 
ATOM     18  H   UNL     1       1.462   6.049  19.768  0.00  0.00    +0.000 HD
BRANCH  17  22
ATOM     19  C   UNL     1       0.866  10.529  21.102  0.00  0.00    +0.000 A 
ATOM     20  C   UNL     1       1.119   9.399  21.886  0.00  0.00    +0.000 A 
ATOM     21  C   UNL     1       1.461   8.177  21.296  0.00  0.00    +0.000 A 
ATOM     22  C   UNL     1       1.523   8.050  19.903  0.00  0.00    +0.000 A 
ATOM     23  C   UNL     1       1.297   9.193  19.124  0.00  0.00    +0.000 A 
ATOM     24  C   UNL     1       0.956  10.420  19.716  0.00  0.00    +0.000 A 
BRANCH  19  26
ATOM     25  C   UNL     1       0.622  12.890  21.129  0.00  0.00    +0.000 C 
ATOM     26  O   UNL     1       0.500  11.644  21.805  0.00  0.00    +0.000 OA
ENDBRANCH  19  26
ENDBRANCH  17  22
ENDBRANCH   1  17
TORSDOF 4
ENDMDL
MODEL 3
REMARK VINA RESULT:      -7.3      1.487      3.827
REMARK  Name = 
REMARK  5 active torsions:
REMARK  status: ('A' for Active; 'I' for Inactive)
REMARK    1  A    between atoms: C_1  and  O_2
REMARK    2  A    between atoms: O_2  and  C_3
REMARK    3  A    between atoms: C_6  and  N_7
REMARK    4  A    between atoms: N_7  and  C_8
REMARK    5  A    between atoms: C_9  and  C_10
REMARK                            x       y       z     vdW  Elec       q    Type
REMARK                         _______ _______ _______ _____ _____    ______ ____
ROOT
ATOM      1  C   UNL     1       2.221   6.109  19.556  0.00  0.00    +0.000 A 
ATOM      2  C   UNL     1       2.634   5.897  18.284  0.00  0.00    +0.000 A 
ATOM      3  O   UNL     1       2.179   4.758  17.598  0.00  0.00    +0.000 OA
ATOM      4  C   UNL     1       2.513   3.583  18.231  0.00  0.00    +0.000 A 
ATOM      5  C   UNL     1       2.697   2.444  17.458  0.00  0.00    +0.000 A 
ATOM      6  C   UNL     1       3.433   1.393  17.997  0.00  0.00    +0.000 A 
ATOM      7  C   UNL     1       3.954   1.493  19.292  0.00  0.00    +0.000 A 
ATOM      8  C   UNL     1       3.631   2.585  20.107  0.00  0.00    +0.000 A 
ATOM      9  C   UNL     1       2.859   3.615  19.578  0.00  0.00    +0.000 A 
ATOM     10  C   UNL     1       2.484   4.826  20.357  0.00  0.00    +0.000 A 
ATOM     11  O   UNL     1       2.469   4.789  21.579  0.00  0.00    +0.000 OA
ENDROOT
BRANCH   2  12
ATOM     12  C   UNL     1       4.034   6.202  18.041  0.00  0.00    +0.000 A 
ATOM     13  C   UNL     1       4.675   6.689  16.903  0.00  0.00    +0.000 A 
ATOM     14  C   UNL     1       6.073   6.536  17.082  0.00  0.00    +0.000 A 
ATOM     15  C   UNL     1       6.237   5.986  18.325  0.00  0.00    +0.000 A 
ATOM     16  O   UNL     1       5.038   5.818  18.922  0.00  0.00    +0.000 OA
ENDBRANCH   2  12
BRANCH   1  17
ATOM     17  N   UNL     1       2.383   7.306  20.276  0.00  0.00    +0.000 N 
ATOM     18  H   UNL     1       3.323   7.663  20.087  0.00  0.00    +0.000 HD
BRANCH  17  22
ATOM     19  C   UNL     1      -0.326  10.553  19.821  0.00  0.00    +0.000 A 
ATOM     20  C   UNL     1      -0.294   9.817  21.009  0.00  0.00    +0.000 A 
ATOM     21  C   UNL     1       0.591   8.744  21.165  0.00  0.00    +0.000 A 
ATOM     22  C   UNL     1       1.443   8.363  20.121  0.00  0.00    +0.000 A 
ATOM     23  C   UNL     1       1.426   9.124  18.944  0.00  0.00    +0.000 A 
ATOM     24  C   UNL     1       0.539  10.201  18.787  0.00  0.00    +0.000 A 
BRANCH  19  26
ATOM     25  C   UNL     1      -1.424  12.230  18.549  0.00  0.00    +0.000 C 
ATOM     26  O   UNL     1      -1.268  11.544  19.786  0.00  0.00    +0.000 OA
ENDBRANCH  19  26
ENDBRANCH  17  22
ENDBRANCH   1  17
TORSDOF 4
ENDMDL
MODEL 4
REMARK VINA RESULT:      -7.2      3.907      6.228
REMARK  Name = 
REMARK  5 active torsions:
REMARK  status: ('A' for Active; 'I' for Inactive)
REMARK    1  A    between atoms: C_1  and  O_2
REMARK    2  A    between atoms: O_2  and  C_3
REMARK    3  A    between atoms: C_6  and  N_7
REMARK    4  A    between atoms: N_7  and  C_8
REMARK    5  A    between atoms: C_9  and  C_10
REMARK                            x       y       z     vdW  Elec       q    Type
REMARK                         _______ _______ _______ _____ _____    ______ ____
ROOT
ATOM      1  C   UNL     1       6.379   6.863  17.914  0.00  0.00    +0.000 A 
ATOM      2  C   UNL     1       5.456   6.724  16.931  0.00  0.00    +0.000 A 
ATOM      3  O   UNL     1       4.101   6.586  17.280  0.00  0.00    +0.000 OA
ATOM      4  C   UNL     1       3.865   5.495  18.084  0.00  0.00    +0.000 A 
ATOM      5  C   UNL     1       2.621   4.880  18.013  0.00  0.00    +0.000 A 
ATOM      6  C   UNL     1       2.508   3.569  18.468  0.00  0.00    +0.000 A 
ATOM      7  C   UNL     1       3.625   2.909  18.991  0.00  0.00    +0.000 A 
ATOM      8  C   UNL     1       4.829   3.596  19.191  0.00  0.00    +0.000 A 
ATOM      9  C   UNL     1       4.926   4.919  18.775  0.00  0.00    +0.000 A 
ATOM     10  C   UNL     1       6.169   5.724  18.921  0.00  0.00    +0.000 A 
ATOM     11  O   UNL     1       7.000   5.421  19.765  0.00  0.00    +0.000 OA
ENDROOT
BRANCH   2  12
ATOM     12  C   UNL     1       5.864   5.866  15.832  0.00  0.00    +0.000 A 
ATOM     13  C   UNL     1       5.169   4.867  15.151  0.00  0.00    +0.000 A 
ATOM     14  C   UNL     1       6.098   4.136  14.368  0.00  0.00    +0.000 A 
ATOM     15  C   UNL     1       7.316   4.725  14.578  0.00  0.00    +0.000 A 
ATOM     16  O   UNL     1       7.186   5.777  15.414  0.00  0.00    +0.000 OA
ENDBRANCH   2  12
BRANCH   1  17
ATOM     17  N   UNL     1       7.716   7.255  17.725  0.00  0.00    +0.000 N 
ATOM     18  H   UNL     1       7.956   7.096  16.743  0.00  0.00    +0.000 HD
BRANCH  17  22
ATOM     19  C   UNL     1       9.052  11.162  18.745  0.00  0.00    +0.000 A 
ATOM     20  C   UNL     1       9.421  10.059  19.523  0.00  0.00    +0.000 A 
ATOM     21  C   UNL     1       8.982   8.771  19.196  0.00  0.00    +0.000 A 
ATOM     22  C   UNL     1       8.135   8.562  18.102  0.00  0.00    +0.000 A 
ATOM     23  C   UNL     1       7.794   9.666  17.310  0.00  0.00    +0.000 A 
ATOM     24  C   UNL     1       8.235  10.959  17.636  0.00  0.00    +0.000 A 
BRANCH  19  26
ATOM     25  C   UNL     1      10.603  12.322  20.117  0.00  0.00    +0.000 C 
ATOM     26  O   UNL     1       9.513  12.365  19.203  0.00  0.00    +0.000 OA
ENDBRANCH  19  26
ENDBRANCH  17  22
ENDBRANCH   1  17
TORSDOF 4
ENDMDL
MODEL 5
REMARK VINA RESULT:      -7.2      3.910      6.192
REMARK  Name = 
REMARK  5 active torsions:
REMARK  status: ('A' for Active; 'I' for Inactive)
REMARK    1  A    between atoms: C_1  and  O_2
REMARK    2  A    between atoms: O_2  and  C_3
REMARK    3  A    between atoms: C_6  and  N_7
REMARK    4  A    between atoms: N_7  and  C_8
REMARK    5  A    between atoms: C_9  and  C_10
REMARK                            x       y       z     vdW  Elec       q    Type
REMARK                         _______ _______ _______ _____ _____    ______ ____
ROOT
ATOM      1  C   UNL     1       6.416   6.879  17.948  0.00  0.00    +0.000 A 
ATOM      2  C   UNL     1       5.501   6.798  16.953  0.00  0.00    +0.000 A 
ATOM      3  O   UNL     1       4.138   6.697  17.284  0.00  0.00    +0.000 OA
ATOM      4  C   UNL     1       3.856   5.592  18.054  0.00  0.00    +0.000 A 
ATOM      5  C   UNL     1       2.594   5.021  17.953  0.00  0.00    +0.000 A 
ATOM      6  C   UNL     1       2.432   3.703  18.369  0.00  0.00    +0.000 A 
ATOM      7  C   UNL     1       3.521   2.991  18.886  0.00  0.00    +0.000 A 
ATOM      8  C   UNL     1       4.744   3.632  19.118  0.00  0.00    +0.000 A 
ATOM      9  C   UNL     1       4.890   4.963  18.739  0.00  0.00    +0.000 A 
ATOM     10  C   UNL     1       6.158   5.721  18.922  0.00  0.00    +0.000 A 
ATOM     11  O   UNL     1       6.968   5.367  19.766  0.00  0.00    +0.000 OA
ENDROOT
BRANCH   2  12
ATOM     12  C   UNL     1       5.893   5.958  15.834  0.00  0.00    +0.000 A 
ATOM     13  C   UNL     1       5.179   4.987  15.132  0.00  0.00    +0.000 A 
ATOM     14  C   UNL     1       6.094   4.257  14.332  0.00  0.00    +0.000 A 
ATOM     15  C   UNL     1       7.323   4.819  14.554  0.00  0.00    +0.000 A 
ATOM     16  O   UNL     1       7.213   5.855  15.413  0.00  0.00    +0.000 OA
ENDBRANCH   2  12
BRANCH   1  17
ATOM     17  N   UNL     1       7.768   7.231  17.785  0.00  0.00    +0.000 N 
ATOM     18  H   UNL     1       8.053   6.958  16.841  0.00  0.00    +0.000 HD
BRANCH  17  22
ATOM     19  C   UNL     1       8.958  11.225  18.633  0.00  0.00    +0.000 A 
ATOM     20  C   UNL     1       8.083  10.954  17.577  0.00  0.00    +0.000 A 
ATOM     21  C   UNL     1       7.690   9.643  17.289  0.00  0.00    +0.000 A 
ATOM     22  C   UNL     1       8.191   8.567  18.032  0.00  0.00    +0.000 A 
ATOM     23  C   UNL     1       9.044   8.848  19.107  0.00  0.00    +0.000 A 
ATOM     24  C   UNL     1       9.438  10.165  19.398  0.00  0.00    +0.000 A 
BRANCH  19  26
ATOM     25  C   UNL     1      10.090  13.111  17.741  0.00  0.00    +0.000 C 
ATOM     26  O   UNL     1       9.293  12.544  18.775  0.00  0.00    +0.000 OA
ENDBRANCH  19  26
ENDBRANCH  17  22
ENDBRANCH   1  17
TORSDOF 4
ENDMDL
MODEL 6
REMARK VINA RESULT:      -6.8      1.623      3.769
REMARK  Name = 
REMARK  5 active torsions:
REMARK  status: ('A' for Active; 'I' for Inactive)
REMARK    1  A    between atoms: C_1  and  O_2
REMARK    2  A    between atoms: O_2  and  C_3
REMARK    3  A    between atoms: C_6  and  N_7
REMARK    4  A    between atoms: N_7  and  C_8
REMARK    5  A    between atoms: C_9  and  C_10
REMARK                            x       y       z     vdW  Elec       q    Type
REMARK                         _______ _______ _______ _____ _____    ______ ____
ROOT
ATOM      1  C   UNL     1       2.448   6.134  19.277  0.00  0.00    +0.000 A 
ATOM      2  C   UNL     1       2.916   5.787  18.053  0.00  0.00    +0.000 A 
ATOM      3  O   UNL     1       2.431   4.618  17.442  0.00  0.00    +0.000 OA
ATOM      4  C   UNL     1       2.661   3.488  18.193  0.00  0.00    +0.000 A 
ATOM      5  C   UNL     1       2.818   2.276  17.532  0.00  0.00    +0.000 A 
ATOM      6  C   UNL     1       3.461   1.239  18.201  0.00  0.00    +0.000 A 
ATOM      7  C   UNL     1       3.918   1.426  19.511  0.00  0.00    +0.000 A 
ATOM      8  C   UNL     1       3.617   2.602  20.209  0.00  0.00    +0.000 A 
ATOM      9  C   UNL     1       2.936   3.620  19.550  0.00  0.00    +0.000 A 
ATOM     10  C   UNL     1       2.593   4.915  20.199  0.00  0.00    +0.000 A 
ATOM     11  O   UNL     1       2.510   4.988  21.416  0.00  0.00    +0.000 OA
ENDROOT
BRANCH   2  12
ATOM     12  C   UNL     1       4.342   5.993  17.867  0.00  0.00    +0.000 A 
ATOM     13  C   UNL     1       5.432   5.523  18.600  0.00  0.00    +0.000 A 
ATOM     14  C   UNL     1       6.584   6.240  18.188  0.00  0.00    +0.000 A 
ATOM     15  C   UNL     1       6.165   7.099  17.207  0.00  0.00    +0.000 A 
ATOM     16  O   UNL     1       4.844   6.936  16.979  0.00  0.00    +0.000 OA
ENDBRANCH   2  12
BRANCH   1  17
ATOM     17  N   UNL     1       2.642   7.379  19.899  0.00  0.00    +0.000 N 
ATOM     18  H   UNL     1       3.537   7.757  19.579  0.00  0.00    +0.000 HD
BRANCH  17  22
ATOM     19  C   UNL     1      -0.428  10.306  19.584  0.00  0.00    +0.000 A 
ATOM     20  C   UNL     1       0.417  10.045  18.501  0.00  0.00    +0.000 A 
ATOM     21  C   UNL     1       1.433   9.086  18.598  0.00  0.00    +0.000 A 
ATOM     22  C   UNL     1       1.646   8.391  19.794  0.00  0.00    +0.000 A 
ATOM     23  C   UNL     1       0.777   8.637  20.866  0.00  0.00    +0.000 A 
ATOM     24  C   UNL     1      -0.242   9.598  20.769  0.00  0.00    +0.000 A 
BRANCH  19  26
ATOM     25  C   UNL     1      -1.714  11.537  18.014  0.00  0.00    +0.000 C 
ATOM     26  O   UNL     1      -1.346  11.297  19.368  0.00  0.00    +0.000 OA
ENDBRANCH  19  26
ENDBRANCH  17  22
ENDBRANCH   1  17
TORSDOF 4
ENDMDL
MODEL 7
REMARK VINA RESULT:      -6.8      1.681      3.811
REMARK  Name = 
REMARK  5 active torsions:
REMARK  status: ('A' for Active; 'I' for Inactive)
REMARK    1  A    between atoms: C_1  and  O_2
REMARK    2  A    between atoms: O_2  and  C_3
REMARK    3  A    between atoms: C_6  and  N_7
REMARK    4  A    between atoms: N_7  and  C_8
REMARK    5  A    between atoms: C_9  and  C_10
REMARK                            x       y       z     vdW  Elec       q    Type
REMARK                         _______ _______ _______ _____ _____    ______ ____
ROOT
ATOM      1  C   UNL     1       2.624   6.526  18.742  0.00  0.00    +0.000 A 
ATOM      2  C   UNL     1       3.441   6.019  17.787  0.00  0.00    +0.000 A 
ATOM      3  O   UNL     1       3.081   4.821  17.145  0.00  0.00    +0.000 OA
ATOM      4  C   UNL     1       2.936   3.769  18.019  0.00  0.00    +0.000 A 
ATOM      5  C   UNL     1       3.189   2.484  17.555  0.00  0.00    +0.000 A 
ATOM      6  C   UNL     1       3.466   1.489  18.488  0.00  0.00    +0.000 A 
ATOM      7  C   UNL     1       3.471   1.791  19.855  0.00  0.00    +0.000 A 
ATOM      8  C   UNL     1       3.066   3.052  20.307  0.00  0.00    +0.000 A 
ATOM      9  C   UNL     1       2.748   4.032  19.372  0.00  0.00    +0.000 A 
ATOM     10  C   UNL     1       2.332   5.409  19.754  0.00  0.00    +0.000 A 
ATOM     11  O   UNL     1       1.851   5.620  20.858  0.00  0.00    +0.000 OA
ENDROOT
BRANCH   2  12
ATOM     12  C   UNL     1       4.859   6.114  18.089  0.00  0.00    +0.000 A 
ATOM     13  C   UNL     1       5.928   6.548  17.306  0.00  0.00    +0.000 A 
ATOM     14  C   UNL     1       7.133   6.173  17.953  0.00  0.00    +0.000 A 
ATOM     15  C   UNL     1       6.760   5.547  19.113  0.00  0.00    +0.000 A 
ATOM     16  O   UNL     1       5.414   5.540  19.226  0.00  0.00    +0.000 OA
ENDBRANCH   2  12
BRANCH   1  17
ATOM     17  N   UNL     1       2.715   7.818  19.289  0.00  0.00    +0.000 N 
ATOM     18  H   UNL     1       3.519   8.285  18.863  0.00  0.00    +0.000 HD
BRANCH  17  22
ATOM     19  C   UNL     1      -0.721  10.322  19.179  0.00  0.00    +0.000 A 
ATOM     20  C   UNL     1      -0.025  10.020  18.004  0.00  0.00    +0.000 A 
ATOM     21  C   UNL     1       1.109   9.201  18.033  0.00  0.00    +0.000 A 
ATOM     22  C   UNL     1       1.592   8.691  19.244  0.00  0.00    +0.000 A 
ATOM     23  C   UNL     1       0.873   8.974  20.413  0.00  0.00    +0.000 A 
ATOM     24  C   UNL     1      -0.266   9.795  20.385  0.00  0.00    +0.000 A 
BRANCH  19  26
ATOM     25  C   UNL     1      -2.546  11.008  17.824  0.00  0.00    +0.000 C 
ATOM     26  O   UNL     1      -1.782  11.169  19.014  0.00  0.00    +0.000 OA
ENDBRANCH  19  26
ENDBRANCH  17  22
ENDBRANCH   1  17
TORSDOF 4
ENDMDL
MODEL 8
REMARK VINA RESULT:      -6.8      2.194      4.206
REMARK  Name = 
REMARK  5 active torsions:
REMARK  status: ('A' for Active; 'I' for Inactive)
REMARK    1  A    between atoms: C_1  and  O_2
REMARK    2  A    between atoms: O_2  and  C_3
REMARK    3  A    between atoms: C_6  and  N_7
REMARK    4  A    between atoms: N_7  and  C_8
REMARK    5  A    between atoms: C_9  and  C_10
REMARK                            x       y       z     vdW  Elec       q    Type
REMARK                         _______ _______ _______ _____ _____    ______ ____
ROOT
ATOM      1  C   UNL     1       2.067   6.908  18.368  0.00  0.00    +0.000 A 
ATOM      2  C   UNL     1       2.372   5.799  17.651  0.00  0.00    +0.000 A 
ATOM      3  O   UNL     1       1.571   4.653  17.792  0.00  0.00    +0.000 OA
ATOM      4  C   UNL     1       1.532   4.184  19.085  0.00  0.00    +0.000 A 
ATOM      5  C   UNL     1       1.337   2.824  19.289  0.00  0.00    +0.000 A 
ATOM      6  C   UNL     1       1.717   2.280  20.513  0.00  0.00    +0.000 A 
ATOM      7  C   UNL     1       2.266   3.100  21.505  0.00  0.00    +0.000 A 
ATOM      8  C   UNL     1       2.314   4.489  21.334  0.00  0.00    +0.000 A 
ATOM      9  C   UNL     1       1.894   5.033  20.125  0.00  0.00    +0.000 A 
ATOM     10  C   UNL     1       1.931   6.494  19.840  0.00  0.00    +0.000 A 
ATOM     11  O   UNL     1       1.926   7.298  20.760  0.00  0.00    +0.000 OA
ENDROOT
BRANCH   2  12
ATOM     12  C   UNL     1       3.792   5.509  17.555  0.00  0.00    +0.000 A 
ATOM     13  C   UNL     1       4.464   4.436  16.970  0.00  0.00    +0.000 A 
ATOM     14  C   UNL     1       5.815   4.473  17.399  0.00  0.00    +0.000 A 
ATOM     15  C   UNL     1       5.926   5.574  18.206  0.00  0.00    +0.000 A 
ATOM     16  O   UNL     1       4.743   6.221  18.276  0.00  0.00    +0.000 OA
ENDBRANCH   2  12
BRANCH   1  17
ATOM     17  N   UNL     1       2.608   8.188  18.156  0.00  0.00    +0.000 N 
ATOM     18  H   UNL     1       3.109   8.176  17.265  0.00  0.00    +0.000 HD
BRANCH  17  22
ATOM     19  C   UNL     1       0.110  11.621  18.420  0.00  0.00    +0.000 A 
ATOM     20  C   UNL     1      -0.444  10.354  18.211  0.00  0.00    +0.000 A 
ATOM     21  C   UNL     1       0.372   9.221  18.119  0.00  0.00    +0.000 A 
ATOM     22  C   UNL     1       1.764   9.334  18.200  0.00  0.00    +0.000 A 
ATOM     23  C   UNL     1       2.311  10.602  18.439  0.00  0.00    +0.000 A 
ATOM     24  C   UNL     1       1.494  11.740  18.533  0.00  0.00    +0.000 A 
BRANCH  19  26
ATOM     25  C   UNL     1      -0.276  13.948  18.690  0.00  0.00    +0.000 C 
ATOM     26  O   UNL     1      -0.796  12.646  18.444  0.00  0.00    +0.000 OA
ENDBRANCH  19  26
ENDBRANCH  17  22
ENDBRANCH   1  17
TORSDOF 4
ENDMDL
MODEL 9
REMARK VINA RESULT:      -6.7      1.556      3.816
REMARK  Name = 
REMARK  5 active torsions:
REMARK  status: ('A' for Active; 'I' for Inactive)
REMARK    1  A    between atoms: C_1  and  O_2
REMARK    2  A    between atoms: O_2  and  C_3
REMARK    3  A    between atoms: C_6  and  N_7
REMARK    4  A    between atoms: N_7  and  C_8
REMARK    5  A    between atoms: C_9  and  C_10
REMARK                            x       y       z     vdW  Elec       q    Type
REMARK                         _______ _______ _______ _____ _____    ______ ____
ROOT
ATOM      1  C   UNL     1       2.804   6.147  18.517  0.00  0.00    +0.000 A 
ATOM      2  C   UNL     1       3.278   5.530  17.408  0.00  0.00    +0.000 A 
ATOM      3  O   UNL     1       2.782   4.260  17.068  0.00  0.00    +0.000 OA
ATOM      4  C   UNL     1       2.987   3.324  18.054  0.00  0.00    +0.000 A 
ATOM      5  C   UNL     1       3.131   1.993  17.682  0.00  0.00    +0.000 A 
ATOM      6  C   UNL     1       3.752   1.123  18.575  0.00  0.00    +0.000 A 
ATOM      7  C   UNL     1       4.198   1.592  19.816  0.00  0.00    +0.000 A 
ATOM      8  C   UNL     1       3.908   2.898  20.230  0.00  0.00    +0.000 A 
ATOM      9  C   UNL     1       3.250   3.752  19.351  0.00  0.00    +0.000 A 
ATOM     10  C   UNL     1       2.920   5.164  19.690  0.00  0.00    +0.000 A 
ATOM     11  O   UNL     1       2.827   5.507  20.859  0.00  0.00    +0.000 OA
ENDROOT
BRANCH   2  12
ATOM     12  C   UNL     1       4.710   5.671  17.200  0.00  0.00    +0.000 A 
ATOM     13  C   UNL     1       5.593   4.924  16.421  0.00  0.00    +0.000 A 
ATOM     14  C   UNL     1       6.916   5.282  16.786  0.00  0.00    +0.000 A 
ATOM     15  C   UNL     1       6.795   6.245  17.752  0.00  0.00    +0.000 A 
ATOM     16  O   UNL     1       5.491   6.514  17.980  0.00  0.00    +0.000 OA
ENDBRANCH   2  12
BRANCH   1  17
ATOM     17  N   UNL     1       3.011   7.498  18.849  0.00  0.00    +0.000 N 
ATOM     18  H   UNL     1       3.650   7.898  18.158  0.00  0.00    +0.000 HD
BRANCH  17  22
ATOM     19  C   UNL     1      -0.233  10.207  19.328  0.00  0.00    +0.000 A 
ATOM     20  C   UNL     1       0.259   9.488  20.422  0.00  0.00    +0.000 A 
ATOM     21  C   UNL     1       1.324   8.592  20.272  0.00  0.00    +0.000 A 
ATOM     22  C   UNL     1       1.898   8.370  19.015  0.00  0.00    +0.000 A 
ATOM     23  C   UNL     1       1.420   9.115  17.929  0.00  0.00    +0.000 A 
ATOM     24  C   UNL     1       0.353  10.015  18.079  0.00  0.00    +0.000 A 
BRANCH  19  26
ATOM     25  C   UNL     1      -2.251  11.193  18.562  0.00  0.00    +0.000 C 
ATOM     26  O   UNL     1      -1.303  11.012  19.607  0.00  0.00    +0.000 OA
ENDBRANCH  19  26
ENDBRANCH  17  22
ENDBRANCH   1  17
TORSDOF 4
ENDMDL
