MODEL 1
REMARK VINA RESULT:      -8.1      0.000      0.000
REMARK  Name = 
REMARK  4 active torsions:
REMARK  status: ('A' for Active; 'I' for Inactive)
REMARK    1  A    between atoms: C_1  and  C_2
REMARK    2  A    between atoms: C_4  and  C_5
REMARK    3  A    between atoms: N_8  and  C_9
REMARK    4  A    between atoms: C_13  and  N_14
REMARK                            x       y       z     vdW  Elec       q    Type
REMARK                         _______ _______ _______ _____ _____    ______ ____
ROOT
ATOM      1  C   UNL     1       6.207   4.185  14.943  0.00  0.00    +0.000 A 
ATOM      2  N   UNL     1       7.055   5.178  15.272  0.00  0.00    +0.000 NA
ATOM      3  C   UNL     1       6.962   5.681  16.507  0.00  0.00    +0.000 A 
ATOM      4  N   UNL     1       7.878   6.696  16.849  0.00  0.00    +0.000 N 
ATOM      5  C   UNL     1       6.045   5.209  17.417  0.00  0.00    +0.000 A 
ATOM      6  C   UNL     1       5.165   4.224  17.015  0.00  0.00    +0.000 A 
ATOM      7  N   UNL     1       5.262   3.705  15.779  0.00  0.00    +0.000 NA
ATOM      8  H   UNL     1       8.372   6.927  15.991  0.00  0.00    +0.000 HD
ENDROOT
BRANCH   6   9
ATOM      9  N   UNL     1       4.201   3.726  17.889  0.00  0.00    +0.000 N 
ATOM     10  C   UNL     1       2.910   3.280  17.382  0.00  0.00    +0.000 C 
ATOM     11  C   UNL     1       1.856   4.335  17.711  0.00  0.00    +0.000 C 
ATOM     12  C   UNL     1       1.423   4.324  19.176  0.00  0.00    +0.000 C 
ATOM     13  C   UNL     1       2.556   4.438  20.203  0.00  0.00    +0.000 C 
ATOM     14  C   UNL     1       3.487   3.221  20.227  0.00  0.00    +0.000 C 
ATOM     15  C   UNL     1       4.636   3.283  19.210  0.00  0.00    +0.000 C 
ENDBRANCH   6   9
BRANCH   1  19
ATOM     16  C   UNL     1       4.994   2.715  11.542  0.00  0.00    +0.000 C 
ATOM     17  C   UNL     1       5.409   3.822  12.451  0.00  0.00    +0.000 C 
ATOM     18  C   UNL     1       6.808   4.370  12.395  0.00  0.00    +0.000 C 
ATOM     19  C   UNL     1       6.373   3.539  13.585  0.00  0.00    +0.000 C 
ENDBRANCH   1  19
BRANCH   4  20
ATOM     20  C   UNL     1       7.484   7.795  17.733  0.00  0.00    +0.000 C 
ATOM     21  C   UNL     1       8.448   8.431  18.697  0.00  0.00    +0.000 C 
ATOM     22  C   UNL     1       8.024   9.174  17.465  0.00  0.00    +0.000 C 
ENDBRANCH   4  20
TORSDOF 3
ENDMDL
MODEL 2
REMARK VINA RESULT:      -8.0      0.779      1.547
REMARK  Name = 
REMARK  4 active torsions:
REMARK  status: ('A' for Active; 'I' for Inactive)
REMARK    1  A    between atoms: C_1  and  C_2
REMARK    2  A    between atoms: C_4  and  C_5
REMARK    3  A    between atoms: N_8  and  C_9
REMARK    4  A    between atoms: C_13  and  N_14
REMARK                            x       y       z     vdW  Elec       q    Type
REMARK                         _______ _______ _______ _____ _____    ______ ____
ROOT
ATOM      1  C   UNL     1       6.150   4.465  15.179  0.00  0.00    +0.000 A 
ATOM      2  N   UNL     1       7.062   5.408  15.482  0.00  0.00    +0.000 NA
ATOM      3  C   UNL     1       6.954   6.007  16.673  0.00  0.00    +0.000 A 
ATOM      4  N   UNL     1       7.935   6.968  16.990  0.00  0.00    +0.000 N 
ATOM      5  C   UNL     1       5.960   5.677  17.564  0.00  0.00    +0.000 A 
ATOM      6  C   UNL     1       5.020   4.738  17.187  0.00  0.00    +0.000 A 
ATOM      7  N   UNL     1       5.130   4.125  15.996  0.00  0.00    +0.000 NA
ATOM      8  H   UNL     1       8.485   7.095  16.145  0.00  0.00    +0.000 HD
ENDROOT
BRANCH   6   9
ATOM      9  N   UNL     1       3.979   4.385  18.042  0.00  0.00    +0.000 N 
ATOM     10  C   UNL     1       4.264   3.740  19.318  0.00  0.00    +0.000 C 
ATOM     11  C   UNL     1       3.932   2.254  19.208  0.00  0.00    +0.000 C 
ATOM     12  C   UNL     1       2.433   1.961  19.254  0.00  0.00    +0.000 C 
ATOM     13  C   UNL     1       1.578   2.723  18.235  0.00  0.00    +0.000 C 
ATOM     14  C   UNL     1       1.527   4.235  18.483  0.00  0.00    +0.000 C 
ATOM     15  C   UNL     1       2.680   5.020  17.841  0.00  0.00    +0.000 C 
ENDBRANCH   6   9
BRANCH   1  19
ATOM     16  C   UNL     1       4.986   2.892  11.808  0.00  0.00    +0.000 C 
ATOM     17  C   UNL     1       5.465   4.011  12.669  0.00  0.00    +0.000 C 
ATOM     18  C   UNL     1       6.917   4.403  12.670  0.00  0.00    +0.000 C 
ATOM     19  C   UNL     1       6.324   3.709  13.879  0.00  0.00    +0.000 C 
ENDBRANCH   1  19
BRANCH   4  20
ATOM     20  C   UNL     1       7.593   8.157  17.774  0.00  0.00    +0.000 C 
ATOM     21  C   UNL     1       8.578   8.812  18.704  0.00  0.00    +0.000 C 
ATOM     22  C   UNL     1       8.219   9.474  17.407  0.00  0.00    +0.000 C 
ENDBRANCH   4  20
TORSDOF 3
ENDMDL
MODEL 3
REMARK VINA RESULT:      -7.8      1.024      4.770
REMARK  Name = 
REMARK  4 active torsions:
REMARK  status: ('A' for Active; 'I' for Inactive)
REMARK    1  A    between atoms: C_1  and  C_2
REMARK    2  A    between atoms: C_4  and  C_5
REMARK    3  A    between atoms: N_8  and  C_9
REMARK    4  A    between atoms: C_13  and  N_14
REMARK                            x       y       z     vdW  Elec       q    Type
REMARK                         _______ _______ _______ _____ _____    ______ ____
ROOT
ATOM      1  C   UNL     1       6.693   5.547  16.728  0.00  0.00    +0.000 A 
ATOM      2  N   UNL     1       6.630   5.391  15.392  0.00  0.00    +0.000 NA
ATOM      3  C   UNL     1       5.642   4.631  14.908  0.00  0.00    +0.000 A 
ATOM      4  N   UNL     1       5.568   4.504  13.507  0.00  0.00    +0.000 N 
ATOM      5  C   UNL     1       4.716   4.033  15.731  0.00  0.00    +0.000 A 
ATOM      6  C   UNL     1       4.853   4.183  17.097  0.00  0.00    +0.000 A 
ATOM      7  N   UNL     1       5.838   4.955  17.589  0.00  0.00    +0.000 NA
ATOM      8  H   UNL     1       6.405   4.951  13.141  0.00  0.00    +0.000 HD
ENDROOT
BRANCH   6   9
ATOM      9  N   UNL     1       3.957   3.579  17.976  0.00  0.00    +0.000 N 
ATOM     10  C   UNL     1       2.667   3.100  17.496  0.00  0.00    +0.000 C 
ATOM     11  C   UNL     1       1.579   4.075  17.941  0.00  0.00    +0.000 C 
ATOM     12  C   UNL     1       1.215   3.945  19.420  0.00  0.00    +0.000 C 
ATOM     13  C   UNL     1       2.388   4.051  20.401  0.00  0.00    +0.000 C 
ATOM     14  C   UNL     1       3.378   2.885  20.302  0.00  0.00    +0.000 C 
ATOM     15  C   UNL     1       4.475   3.074  19.244  0.00  0.00    +0.000 C 
ENDBRANCH   6   9
BRANCH   1  19
ATOM     16  C   UNL     1       8.157   9.001  17.786  0.00  0.00    +0.000 C 
ATOM     17  C   UNL     1       7.363   7.759  18.008  0.00  0.00    +0.000 C 
ATOM     18  C   UNL     1       7.950   6.606  18.774  0.00  0.00    +0.000 C 
ATOM     19  C   UNL     1       7.744   6.487  17.278  0.00  0.00    +0.000 C 
ENDBRANCH   1  19
BRANCH   4  20
ATOM     20  C   UNL     1       5.133   3.250  12.889  0.00  0.00    +0.000 C 
ATOM     21  C   UNL     1       4.505   3.206  11.523  0.00  0.00    +0.000 C 
ATOM     22  C   UNL     1       5.906   2.708  11.718  0.00  0.00    +0.000 C 
ENDBRANCH   4  20
TORSDOF 3
ENDMDL
MODEL 4
REMARK VINA RESULT:      -7.7      3.476      7.021
REMARK  Name = 
REMARK  4 active torsions:
REMARK  status: ('A' for Active; 'I' for Inactive)
REMARK    1  A    between atoms: C_1  and  C_2
REMARK    2  A    between atoms: C_4  and  C_5
REMARK    3  A    between atoms: N_8  and  C_9
REMARK    4  A    between atoms: C_13  and  N_14
REMARK                            x       y       z     vdW  Elec       q    Type
REMARK                         _______ _______ _______ _____ _____    ______ ____
ROOT
ATOM      1  C   UNL     1       2.157   8.091  18.195  0.00  0.00    +0.000 A 
ATOM      2  N   UNL     1       1.746   7.323  19.222  0.00  0.00    +0.000 NA
ATOM      3  C   UNL     1       2.513   6.281  19.555  0.00  0.00    +0.000 A 
ATOM      4  N   UNL     1       2.088   5.506  20.653  0.00  0.00    +0.000 N 
ATOM      5  C   UNL     1       3.681   5.996  18.888  0.00  0.00    +0.000 A 
ATOM      6  C   UNL     1       4.035   6.784  17.810  0.00  0.00    +0.000 A 
ATOM      7  N   UNL     1       3.273   7.841  17.478  0.00  0.00    +0.000 NA
ATOM      8  H   UNL     1       1.168   5.857  20.903  0.00  0.00    +0.000 HD
ENDROOT
BRANCH   6   9
ATOM      9  N   UNL     1       5.196   6.526  17.085  0.00  0.00    +0.000 N 
ATOM     10  C   UNL     1       5.138   6.369  15.637  0.00  0.00    +0.000 C 
ATOM     11  C   UNL     1       5.262   4.887  15.293  0.00  0.00    +0.000 C 
ATOM     12  C   UNL     1       6.689   4.353  15.417  0.00  0.00    +0.000 C 
ATOM     13  C   UNL     1       7.370   4.593  16.769  0.00  0.00    +0.000 C 
ATOM     14  C   UNL     1       7.650   6.071  17.062  0.00  0.00    +0.000 C 
ATOM     15  C   UNL     1       6.479   6.818  17.717  0.00  0.00    +0.000 C 
ENDBRANCH   6   9
BRANCH   1  19
ATOM     16  C   UNL     1      -0.918  10.477  18.419  0.00  0.00    +0.000 C 
ATOM     17  C   UNL     1       0.389   9.929  18.883  0.00  0.00    +0.000 C 
ATOM     18  C   UNL     1       1.672  10.644  18.563  0.00  0.00    +0.000 C 
ATOM     19  C   UNL     1       1.351   9.332  17.877  0.00  0.00    +0.000 C 
ENDBRANCH   1  19
BRANCH   4  20
ATOM     20  C   UNL     1       2.301   4.057  20.676  0.00  0.00    +0.000 C 
ATOM     21  C   UNL     1       2.116   3.241  21.926  0.00  0.00    +0.000 C 
ATOM     22  C   UNL     1       1.111   3.149  20.817  0.00  0.00    +0.000 C 
ENDBRANCH   4  20
TORSDOF 3
ENDMDL
MODEL 5
REMARK VINA RESULT:      -7.6      1.164      4.981
REMARK  Name = 
REMARK  4 active torsions:
REMARK  status: ('A' for Active; 'I' for Inactive)
REMARK    1  A    between atoms: C_1  and  C_2
REMARK    2  A    between atoms: C_4  and  C_5
REMARK    3  A    between atoms: N_8  and  C_9
REMARK    4  A    between atoms: C_13  and  N_14
REMARK                            x       y       z     vdW  Elec       q    Type
REMARK                         _______ _______ _______ _____ _____    ______ ____
ROOT
ATOM      1  C   UNL     1       7.108   6.202  16.812  0.00  0.00    +0.000 A 
ATOM      2  N   UNL     1       7.220   5.856  15.515  0.00  0.00    +0.000 NA
ATOM      3  C   UNL     1       6.278   5.054  15.010  0.00  0.00    +0.000 A 
ATOM      4  N   UNL     1       6.390   4.727  13.643  0.00  0.00    +0.000 N 
ATOM      5  C   UNL     1       5.227   4.598  15.771  0.00  0.00    +0.000 A 
ATOM      6  C   UNL     1       5.183   4.941  17.108  0.00  0.00    +0.000 A 
ATOM      7  N   UNL     1       6.121   5.757  17.619  0.00  0.00    +0.000 NA
ATOM      8  H   UNL     1       7.285   5.100  13.339  0.00  0.00    +0.000 HD
ENDROOT
BRANCH   6   9
ATOM      9  N   UNL     1       4.154   4.488  17.929  0.00  0.00    +0.000 N 
ATOM     10  C   UNL     1       4.291   3.229  18.652  0.00  0.00    +0.000 C 
ATOM     11  C   UNL     1       3.450   2.163  17.955  0.00  0.00    +0.000 C 
ATOM     12  C   UNL     1       1.952   2.297  18.227  0.00  0.00    +0.000 C 
ATOM     13  C   UNL     1       1.344   3.670  17.916  0.00  0.00    +0.000 C 
ATOM     14  C   UNL     1       1.848   4.787  18.837  0.00  0.00    +0.000 C 
ATOM     15  C   UNL     1       3.151   5.453  18.368  0.00  0.00    +0.000 C 
ENDBRANCH   6   9
BRANCH   1  19
ATOM     16  C   UNL     1       8.408   9.727  17.853  0.00  0.00    +0.000 C 
ATOM     17  C   UNL     1       7.666   8.453  18.077  0.00  0.00    +0.000 C 
ATOM     18  C   UNL     1       8.292   7.335  18.863  0.00  0.00    +0.000 C 
ATOM     19  C   UNL     1       8.110   7.192  17.365  0.00  0.00    +0.000 C 
ENDBRANCH   1  19
BRANCH   4  20
ATOM     20  C   UNL     1       5.994   3.405  13.154  0.00  0.00    +0.000 C 
ATOM     21  C   UNL     1       5.071   3.230  11.979  0.00  0.00    +0.000 C 
ATOM     22  C   UNL     1       6.532   2.927  11.833  0.00  0.00    +0.000 C 
ENDBRANCH   4  20
TORSDOF 3
ENDMDL
MODEL 6
REMARK VINA RESULT:      -7.6      2.384      3.126
REMARK  Name = 
REMARK  4 active torsions:
REMARK  status: ('A' for Active; 'I' for Inactive)
REMARK    1  A    between atoms: C_1  and  C_2
REMARK    2  A    between atoms: C_4  and  C_5
REMARK    3  A    between atoms: N_8  and  C_9
REMARK    4  A    between atoms: C_13  and  N_14
REMARK                            x       y       z     vdW  Elec       q    Type
REMARK                         _______ _______ _______ _____ _____    ______ ____
ROOT
ATOM      1  C   UNL     1       5.031   4.441  16.328  0.00  0.00    +0.000 A 
ATOM      2  N   UNL     1       4.715   5.750  16.319  0.00  0.00    +0.000 NA
ATOM      3  C   UNL     1       3.895   6.191  17.279  0.00  0.00    +0.000 A 
ATOM      4  N   UNL     1       3.601   7.569  17.277  0.00  0.00    +0.000 N 
ATOM      5  C   UNL     1       3.392   5.353  18.246  0.00  0.00    +0.000 A 
ATOM      6  C   UNL     1       3.706   4.009  18.183  0.00  0.00    +0.000 A 
ATOM      7  N   UNL     1       4.539   3.562  17.228  0.00  0.00    +0.000 NA
ATOM      8  H   UNL     1       4.007   7.941  16.422  0.00  0.00    +0.000 HD
ENDROOT
BRANCH   6   9
ATOM      9  N   UNL     1       3.204   3.113  19.124  0.00  0.00    +0.000 N 
ATOM     10  C   UNL     1       1.930   2.443  18.894  0.00  0.00    +0.000 C 
ATOM     11  C   UNL     1       0.863   3.093  19.770  0.00  0.00    +0.000 C 
ATOM     12  C   UNL     1       0.952   2.685  21.240  0.00  0.00    +0.000 C 
ATOM     13  C   UNL     1       2.317   2.899  21.904  0.00  0.00    +0.000 C 
ATOM     14  C   UNL     1       3.421   1.994  21.344  0.00  0.00    +0.000 C 
ATOM     15  C   UNL     1       4.131   2.557  20.105  0.00  0.00    +0.000 C 
ENDBRANCH   6   9
BRANCH   1  19
ATOM     16  C   UNL     1       6.323   3.560  12.757  0.00  0.00    +0.000 C 
ATOM     17  C   UNL     1       6.054   4.488  13.893  0.00  0.00    +0.000 C 
ATOM     18  C   UNL     1       7.154   4.866  14.845  0.00  0.00    +0.000 C 
ATOM     19  C   UNL     1       6.039   3.953  15.310  0.00  0.00    +0.000 C 
ENDBRANCH   1  19
BRANCH   4  20
ATOM     20  C   UNL     1       2.278   8.053  17.676  0.00  0.00    +0.000 C 
ATOM     21  C   UNL     1       2.003   8.583  19.057  0.00  0.00    +0.000 C 
ATOM     22  C   UNL     1       2.078   9.528  17.895  0.00  0.00    +0.000 C 
ENDBRANCH   4  20
TORSDOF 3
ENDMDL
MODEL 7
REMARK VINA RESULT:      -7.5      1.158      4.873
REMARK  Name = 
REMARK  4 active torsions:
REMARK  status: ('A' for Active; 'I' for Inactive)
REMARK    1  A    between atoms: C_1  and  C_2
REMARK    2  A    between atoms: C_4  and  C_5
REMARK    3  A    between atoms: N_8  and  C_9
REMARK    4  A    between atoms: C_13  and  N_14
REMARK                            x       y       z     vdW  Elec       q    Type
REMARK                         _______ _______ _______ _____ _____    ______ ____
ROOT
ATOM      1  C   UNL     1       6.924   5.795  16.690  0.00  0.00    +0.000 A 
ATOM      2  N   UNL     1       7.099   5.482  15.392  0.00  0.00    +0.000 NA
ATOM      3  C   UNL     1       6.160   4.729  14.810  0.00  0.00    +0.000 A 
ATOM      4  N   UNL     1       6.338   4.438  13.442  0.00  0.00    +0.000 N 
ATOM      5  C   UNL     1       5.053   4.289  15.497  0.00  0.00    +0.000 A 
ATOM      6  C   UNL     1       4.945   4.594  16.839  0.00  0.00    +0.000 A 
ATOM      7  N   UNL     1       5.879   5.361  17.427  0.00  0.00    +0.000 NA
ATOM      8  H   UNL     1       7.261   4.789  13.200  0.00  0.00    +0.000 HD
ENDROOT
BRANCH   6   9
ATOM      9  N   UNL     1       3.856   4.153  17.587  0.00  0.00    +0.000 N 
ATOM     10  C   UNL     1       2.706   5.025  17.794  0.00  0.00    +0.000 C 
ATOM     11  C   UNL     1       2.749   5.573  19.219  0.00  0.00    +0.000 C 
ATOM     12  C   UNL     1       2.322   4.554  20.275  0.00  0.00    +0.000 C 
ATOM     13  C   UNL     1       3.076   3.219  20.249  0.00  0.00    +0.000 C 
ATOM     14  C   UNL     1       2.800   2.383  18.994  0.00  0.00    +0.000 C 
ATOM     15  C   UNL     1       3.705   2.717  17.800  0.00  0.00    +0.000 C 
ENDBRANCH   6   9
BRANCH   1  19
ATOM     16  C   UNL     1       8.262   9.232  17.952  0.00  0.00    +0.000 C 
ATOM     17  C   UNL     1       7.483   7.968  18.085  0.00  0.00    +0.000 C 
ATOM     18  C   UNL     1       8.052   6.798  18.838  0.00  0.00    +0.000 C 
ATOM     19  C   UNL     1       7.926   6.732  17.329  0.00  0.00    +0.000 C 
ENDBRANCH   1  19
BRANCH   4  20
ATOM     20  C   UNL     1       5.927   3.146  12.890  0.00  0.00    +0.000 C 
ATOM     21  C   UNL     1       5.060   3.039  11.666  0.00  0.00    +0.000 C 
ATOM     22  C   UNL     1       6.517   2.692  11.584  0.00  0.00    +0.000 C 
ENDBRANCH   4  20
TORSDOF 3
ENDMDL
MODEL 8
REMARK VINA RESULT:      -7.4      3.337      4.783
REMARK  Name = 
REMARK  4 active torsions:
REMARK  status: ('A' for Active; 'I' for Inactive)
REMARK    1  A    between atoms: C_1  and  C_2
REMARK    2  A    between atoms: C_4  and  C_5
REMARK    3  A    between atoms: N_8  and  C_9
REMARK    4  A    between atoms: C_13  and  N_14
REMARK                            x       y       z     vdW  Elec       q    Type
REMARK                         _______ _______ _______ _____ _____    ______ ____
ROOT
ATOM      1  C   UNL     1       4.206   6.523  17.264  0.00  0.00    +0.000 A 
ATOM      2  N   UNL     1       3.799   7.804  17.348  0.00  0.00    +0.000 NA
ATOM      3  C   UNL     1       2.696   8.052  18.061  0.00  0.00    +0.000 A 
ATOM      4  N   UNL     1       2.300   9.401  18.169  0.00  0.00    +0.000 N 
ATOM      5  C   UNL     1       1.999   7.049  18.693  0.00  0.00    +0.000 A 
ATOM      6  C   UNL     1       2.428   5.747  18.535  0.00  0.00    +0.000 A 
ATOM      7  N   UNL     1       3.544   5.492  17.830  0.00  0.00    +0.000 NA
ATOM      8  H   UNL     1       2.911   9.922  17.545  0.00  0.00    +0.000 HD
ENDROOT
BRANCH   6   9
ATOM      9  N   UNL     1       1.746   4.691  19.135  0.00  0.00    +0.000 N 
ATOM     10  C   UNL     1       1.247   4.818  20.499  0.00  0.00    +0.000 C 
ATOM     11  C   UNL     1       2.156   4.026  21.435  0.00  0.00    +0.000 C 
ATOM     12  C   UNL     1       1.933   2.515  21.363  0.00  0.00    +0.000 C 
ATOM     13  C   UNL     1       2.028   1.898  19.963  0.00  0.00    +0.000 C 
ATOM     14  C   UNL     1       0.905   2.343  19.019  0.00  0.00    +0.000 C 
ATOM     15  C   UNL     1       1.191   3.653  18.270  0.00  0.00    +0.000 C 
ENDBRANCH   6   9
BRANCH   1  19
ATOM     16  C   UNL     1       7.457   4.527  16.462  0.00  0.00    +0.000 C 
ATOM     17  C   UNL     1       6.004   4.831  16.325  0.00  0.00    +0.000 C 
ATOM     18  C   UNL     1       5.500   5.636  15.159  0.00  0.00    +0.000 C 
ATOM     19  C   UNL     1       5.510   6.245  16.547  0.00  0.00    +0.000 C 
ENDBRANCH   1  19
BRANCH   4  20
ATOM     20  C   UNL     1       0.882   9.766  18.206  0.00  0.00    +0.000 C 
ATOM     21  C   UNL     1       0.158  10.026  19.498  0.00  0.00    +0.000 C 
ATOM     22  C   UNL     1       0.502  11.169  18.590  0.00  0.00    +0.000 C 
ENDBRANCH   4  20
TORSDOF 3
ENDMDL
MODEL 9
REMARK VINA RESULT:      -7.3      3.376      6.987
REMARK  Name = 
REMARK  4 active torsions:
REMARK  status: ('A' for Active; 'I' for Inactive)
REMARK    1  A    between atoms: C_1  and  C_2
REMARK    2  A    between atoms: C_4  and  C_5
REMARK    3  A    between atoms: N_8  and  C_9
REMARK    4  A    between atoms: C_13  and  N_14
REMARK                            x       y       z     vdW  Elec       q    Type
REMARK                         _______ _______ _______ _____ _____    ______ ____
ROOT
ATOM      1  C   UNL     1       2.263   7.863  19.033  0.00  0.00    +0.000 A 
ATOM      2  N   UNL     1       1.904   6.985  19.990  0.00  0.00    +0.000 NA
ATOM      3  C   UNL     1       2.617   5.858  20.088  0.00  0.00    +0.000 A 
ATOM      4  N   UNL     1       2.252   4.965  21.115  0.00  0.00    +0.000 N 
ATOM      5  C   UNL     1       3.679   5.596  19.255  0.00  0.00    +0.000 A 
ATOM      6  C   UNL     1       3.976   6.504  18.258  0.00  0.00    +0.000 A 
ATOM      7  N   UNL     1       3.271   7.645  18.162  0.00  0.00    +0.000 NA
ATOM      8  H   UNL     1       1.395   5.336  21.517  0.00  0.00    +0.000 HD
ENDROOT
BRANCH   6   9
ATOM      9  N   UNL     1       5.027   6.276  17.372  0.00  0.00    +0.000 N 
ATOM     10  C   UNL     1       4.755   5.864  16.001  0.00  0.00    +0.000 C 
ATOM     11  C   UNL     1       5.054   4.373  15.862  0.00  0.00    +0.000 C 
ATOM     12  C   UNL     1       6.548   4.058  15.791  0.00  0.00    +0.000 C 
ATOM     13  C   UNL     1       7.397   4.615  16.940  0.00  0.00    +0.000 C 
ATOM     14  C   UNL     1       7.483   6.145  16.952  0.00  0.00    +0.000 C 
ATOM     15  C   UNL     1       6.334   6.837  17.699  0.00  0.00    +0.000 C 
ENDBRANCH   6   9
BRANCH   1  19
ATOM     16  C   UNL     1       1.896  11.691  18.398  0.00  0.00    +0.000 C 
ATOM     17  C   UNL     1       1.906  10.259  17.981  0.00  0.00    +0.000 C 
ATOM     18  C   UNL     1       0.616   9.505  17.817  0.00  0.00    +0.000 C 
ATOM     19  C   UNL     1       1.531   9.186  18.982  0.00  0.00    +0.000 C 
ENDBRANCH   1  19
BRANCH   4  20
ATOM     20  C   UNL     1       2.348   3.517  20.918  0.00  0.00    +0.000 C 
ATOM     21  C   UNL     1       1.575   2.542  21.764  0.00  0.00    +0.000 C 
ATOM     22  C   UNL     1       1.170   2.781  20.340  0.00  0.00    +0.000 C 
ENDBRANCH   4  20
TORSDOF 3
ENDMDL
