MODEL 1
REMARK VINA RESULT:      -7.8      0.000      0.000
REMARK  Name = 
REMARK  7 active torsions:
REMARK  status: ('A' for Active; 'I' for Inactive)
REMARK    1  A    between atoms: C_1  and  O_2
REMARK    2  A    between atoms: O_2  and  C_3
REMARK    3  A    between atoms: C_8  and  C_9
REMARK    4  A    between atoms: C_11  and  C_12
REMARK    5  A    between atoms: C_12  and  O_13
REMARK    6  A    between atoms: O_13  and  C_14
REMARK    7  A    between atoms: C_19  and  C_20
REMARK                            x       y       z     vdW  Elec       q    Type
REMARK                         _______ _______ _______ _____ _____    ______ ____
ROOT
ATOM      1  C   UNL     1       7.068   6.080  16.681  0.00  0.00    +0.000 C 
ENDROOT
BRANCH   1   4
ATOM      2  C   UNL     1       4.596   4.784  19.093  0.00  0.00    +0.000 A 
ATOM      3  C   UNL     1       4.805   5.354  17.808  0.00  0.00    +0.000 A 
ATOM      4  C   UNL     1       6.157   5.585  17.737  0.00  0.00    +0.000 A 
ATOM      5  O   UNL     1       6.730   5.222  18.912  0.00  0.00    +0.000 OA
ATOM      6  N   UNL     1       5.765   4.719  19.758  0.00  0.00    +0.000 NA
BRANCH   2  12
ATOM      7  C   UNL     1       3.106   2.869  19.821  0.00  0.00    +0.000 A 
ATOM      8  C   UNL     1       1.920   2.445  20.443  0.00  0.00    +0.000 A 
ATOM      9  C   UNL     1       0.969   3.369  20.875  0.00  0.00    +0.000 A 
ATOM     10  C   UNL     1       1.197   4.729  20.707  0.00  0.00    +0.000 A 
ATOM     11  C   UNL     1       2.386   5.162  20.121  0.00  0.00    +0.000 A 
ATOM     12  C   UNL     1       3.362   4.247  19.677  0.00  0.00    +0.000 A 
BRANCH   7  14
ATOM     13  C   UNL     1       3.741   1.358  18.117  0.00  0.00    +0.000 C 
ATOM     14  O   UNL     1       4.047   1.976  19.366  0.00  0.00    +0.000 OA
ENDBRANCH   7  14
ENDBRANCH   2  12
ENDBRANCH   1   4
BRANCH   1  15
ATOM     15  O   UNL     1       7.622   4.928  16.048  0.00  0.00    +0.000 OA
BRANCH  15  16
ATOM     16  C   UNL     1       7.440   4.802  14.696  0.00  0.00    +0.000 A 
ATOM     17  C   UNL     1       8.253   5.652  13.940  0.00  0.00    +0.000 A 
ATOM     18  C   UNL     1       8.172   5.653  12.551  0.00  0.00    +0.000 A 
ATOM     19  C   UNL     1       7.273   4.802  11.911  0.00  0.00    +0.000 A 
ATOM     20  F   UNL     1       7.227   4.845  10.570  0.00  0.00    +0.000 F 
ATOM     21  C   UNL     1       6.449   3.939  12.638  0.00  0.00    +0.000 A 
ATOM     22  C   UNL     1       6.547   3.945  14.037  0.00  0.00    +0.000 A 
ATOM     23  F   UNL     1       5.772   3.122  14.759  0.00  0.00    +0.000 F 
BRANCH  21  24
ATOM     24  C   UNL     1       5.475   3.030  11.976  0.00  0.00    +0.000 C 
ATOM     25  N   UNL     1       5.880   1.763  11.667  0.00  0.00    +0.000 N 
ATOM     26  O   UNL     1       4.334   3.379  11.695  0.00  0.00    +0.000 OA
ATOM     27  H   UNL     1       6.804   1.400  11.870  0.00  0.00    +0.000 HD
ATOM     28  H   UNL     1       5.209   1.152  11.218  0.00  0.00    +0.000 HD
ENDBRANCH  21  24
ENDBRANCH  15  16
ENDBRANCH   1  15
TORSDOF 6
ENDMDL
MODEL 2
REMARK VINA RESULT:      -7.7      1.119      1.846
REMARK  Name = 
REMARK  7 active torsions:
REMARK  status: ('A' for Active; 'I' for Inactive)
REMARK    1  A    between atoms: C_1  and  O_2
REMARK    2  A    between atoms: O_2  and  C_3
REMARK    3  A    between atoms: C_8  and  C_9
REMARK    4  A    between atoms: C_11  and  C_12
REMARK    5  A    between atoms: C_12  and  O_13
REMARK    6  A    between atoms: O_13  and  C_14
REMARK    7  A    between atoms: C_19  and  C_20
REMARK                            x       y       z     vdW  Elec       q    Type
REMARK                         _______ _______ _______ _____ _____    ______ ____
ROOT
ATOM      1  C   UNL     1       6.940   6.020  16.739  0.00  0.00    +0.000 C 
ENDROOT
BRANCH   1   4
ATOM      2  C   UNL     1       4.269   4.328  18.638  0.00  0.00    +0.000 A 
ATOM      3  C   UNL     1       4.580   5.299  17.648  0.00  0.00    +0.000 A 
ATOM      4  C   UNL     1       5.952   5.318  17.587  0.00  0.00    +0.000 A 
ATOM      5  O   UNL     1       6.447   4.450  18.505  0.00  0.00    +0.000 OA
ATOM      6  N   UNL     1       5.405   3.828  19.159  0.00  0.00    +0.000 NA
BRANCH   2  12
ATOM      7  C   UNL     1       2.128   4.476  19.983  0.00  0.00    +0.000 A 
ATOM      8  C   UNL     1       0.863   3.944  20.282  0.00  0.00    +0.000 A 
ATOM      9  C   UNL     1       0.437   2.746  19.708  0.00  0.00    +0.000 A 
ATOM     10  C   UNL     1       1.262   2.072  18.817  0.00  0.00    +0.000 A 
ATOM     11  C   UNL     1       2.507   2.608  18.488  0.00  0.00    +0.000 A 
ATOM     12  C   UNL     1       2.957   3.818  19.053  0.00  0.00    +0.000 A 
BRANCH   7  14
ATOM     13  C   UNL     1       1.644   6.720  20.546  0.00  0.00    +0.000 C 
ATOM     14  O   UNL     1       2.578   5.643  20.554  0.00  0.00    +0.000 OA
ENDBRANCH   7  14
ENDBRANCH   2  12
ENDBRANCH   1   4
BRANCH   1  15
ATOM     15  O   UNL     1       7.692   5.011  16.067  0.00  0.00    +0.000 OA
BRANCH  15  16
ATOM     16  C   UNL     1       7.493   4.868  14.720  0.00  0.00    +0.000 A 
ATOM     17  C   UNL     1       8.301   5.704  13.943  0.00  0.00    +0.000 A 
ATOM     18  C   UNL     1       8.203   5.687  12.555  0.00  0.00    +0.000 A 
ATOM     19  C   UNL     1       7.292   4.832  11.937  0.00  0.00    +0.000 A 
ATOM     20  F   UNL     1       7.231   4.857  10.596  0.00  0.00    +0.000 F 
ATOM     21  C   UNL     1       6.472   3.983  12.685  0.00  0.00    +0.000 A 
ATOM     22  C   UNL     1       6.588   4.007  14.083  0.00  0.00    +0.000 A 
ATOM     23  F   UNL     1       5.817   3.198  14.825  0.00  0.00    +0.000 F 
BRANCH  21  24
ATOM     24  C   UNL     1       5.486   3.071  12.047  0.00  0.00    +0.000 C 
ATOM     25  N   UNL     1       5.885   1.802  11.738  0.00  0.00    +0.000 N 
ATOM     26  O   UNL     1       4.340   3.418  11.786  0.00  0.00    +0.000 OA
ATOM     27  H   UNL     1       6.812   1.440  11.926  0.00  0.00    +0.000 HD
ATOM     28  H   UNL     1       5.205   1.189  11.305  0.00  0.00    +0.000 HD
ENDBRANCH  21  24
ENDBRANCH  15  16
ENDBRANCH   1  15
TORSDOF 6
ENDMDL
MODEL 3
REMARK VINA RESULT:      -7.7      5.790      7.701
REMARK  Name = 
REMARK  7 active torsions:
REMARK  status: ('A' for Active; 'I' for Inactive)
REMARK    1  A    between atoms: C_1  and  O_2
REMARK    2  A    between atoms: O_2  and  C_3
REMARK    3  A    between atoms: C_8  and  C_9
REMARK    4  A    between atoms: C_11  and  C_12
REMARK    5  A    between atoms: C_12  and  O_13
REMARK    6  A    between atoms: O_13  and  C_14
REMARK    7  A    between atoms: C_19  and  C_20
REMARK                            x       y       z     vdW  Elec       q    Type
REMARK                         _______ _______ _______ _____ _____    ______ ____
ROOT
ATOM      1  C   UNL     1       8.123   8.083  17.880  0.00  0.00    +0.000 C 
ENDROOT
BRANCH   1   4
ATOM      2  C   UNL     1       5.224   5.875  17.314  0.00  0.00    +0.000 A 
ATOM      3  C   UNL     1       6.233   6.285  18.224  0.00  0.00    +0.000 A 
ATOM      4  C   UNL     1       6.982   7.207  17.533  0.00  0.00    +0.000 A 
ATOM      5  O   UNL     1       6.491   7.320  16.274  0.00  0.00    +0.000 OA
ATOM      6  N   UNL     1       5.394   6.497  16.132  0.00  0.00    +0.000 NA
BRANCH   2  12
ATOM      7  C   UNL     1       2.812   5.428  17.948  0.00  0.00    +0.000 A 
ATOM      8  C   UNL     1       1.762   4.506  18.086  0.00  0.00    +0.000 A 
ATOM      9  C   UNL     1       1.974   3.143  17.875  0.00  0.00    +0.000 A 
ATOM     10  C   UNL     1       3.233   2.687  17.506  0.00  0.00    +0.000 A 
ATOM     11  C   UNL     1       4.275   3.598  17.333  0.00  0.00    +0.000 A 
ATOM     12  C   UNL     1       4.084   4.978  17.540  0.00  0.00    +0.000 A 
BRANCH   7  14
ATOM     13  C   UNL     1       2.402   7.131  19.534  0.00  0.00    +0.000 C 
ATOM     14  O   UNL     1       2.633   6.772  18.174  0.00  0.00    +0.000 OA
ENDBRANCH   7  14
ENDBRANCH   2  12
ENDBRANCH   1   4
BRANCH   1  15
ATOM     15  O   UNL     1       7.654   9.427  17.770  0.00  0.00    +0.000 OA
BRANCH  15  16
ATOM     16  C   UNL     1       8.462  10.419  18.257  0.00  0.00    +0.000 A 
ATOM     17  C   UNL     1       9.308   9.997  19.287  0.00  0.00    +0.000 A 
ATOM     18  C   UNL     1      10.179  10.895  19.897  0.00  0.00    +0.000 A 
ATOM     19  C   UNL     1      10.206  12.224  19.477  0.00  0.00    +0.000 A 
ATOM     20  F   UNL     1      11.058  13.053  20.100  0.00  0.00    +0.000 F 
ATOM     21  C   UNL     1       9.375  12.676  18.448  0.00  0.00    +0.000 A 
ATOM     22  C   UNL     1       8.508  11.757  17.840  0.00  0.00    +0.000 A 
ATOM     23  F   UNL     1       7.704  12.163  16.845  0.00  0.00    +0.000 F 
BRANCH  21  24
ATOM     24  C   UNL     1       9.380  14.092  17.992  0.00  0.00    +0.000 C 
ATOM     25  N   UNL     1      10.348  14.484  17.111  0.00  0.00    +0.000 N 
ATOM     26  O   UNL     1       8.557  14.912  18.380  0.00  0.00    +0.000 OA
ATOM     27  H   UNL     1      11.060  13.865  16.742  0.00  0.00    +0.000 HD
ATOM     28  H   UNL     1      10.341  15.449  16.807  0.00  0.00    +0.000 HD
ENDBRANCH  21  24
ENDBRANCH  15  16
ENDBRANCH   1  15
TORSDOF 6
ENDMDL
MODEL 4
REMARK VINA RESULT:      -7.7      1.153      1.163
REMARK  Name = 
REMARK  7 active torsions:
REMARK  status: ('A' for Active; 'I' for Inactive)
REMARK    1  A    between atoms: C_1  and  O_2
REMARK    2  A    between atoms: O_2  and  C_3
REMARK    3  A    between atoms: C_8  and  C_9
REMARK    4  A    between atoms: C_11  and  C_12
REMARK    5  A    between atoms: C_12  and  O_13
REMARK    6  A    between atoms: O_13  and  C_14
REMARK    7  A    between atoms: C_19  and  C_20
REMARK                            x       y       z     vdW  Elec       q    Type
REMARK                         _______ _______ _______ _____ _____    ______ ____
ROOT
ATOM      1  C   UNL     1       7.069   6.118  16.733  0.00  0.00    +0.000 C 
ENDROOT
BRANCH   1   4
ATOM      2  C   UNL     1       3.790   5.132  18.102  0.00  0.00    +0.000 A 
ATOM      3  C   UNL     1       5.162   4.792  17.967  0.00  0.00    +0.000 A 
ATOM      4  C   UNL     1       5.703   5.792  17.196  0.00  0.00    +0.000 A 
ATOM      5  O   UNL     1       4.720   6.661  16.848  0.00  0.00    +0.000 OA
ATOM      6  N   UNL     1       3.529   6.258  17.412  0.00  0.00    +0.000 NA
BRANCH   2  12
ATOM      7  C   UNL     1       2.312   3.156  18.673  0.00  0.00    +0.000 A 
ATOM      8  C   UNL     1       1.348   2.588  19.523  0.00  0.00    +0.000 A 
ATOM      9  C   UNL     1       0.781   3.331  20.559  0.00  0.00    +0.000 A 
ATOM     10  C   UNL     1       1.181   4.644  20.770  0.00  0.00    +0.000 A 
ATOM     11  C   UNL     1       2.161   5.207  19.953  0.00  0.00    +0.000 A 
ATOM     12  C   UNL     1       2.749   4.476  18.901  0.00  0.00    +0.000 A 
BRANCH   7  14
ATOM     13  C   UNL     1       3.735   1.386  18.016  0.00  0.00    +0.000 C 
ATOM     14  O   UNL     1       2.867   2.451  17.632  0.00  0.00    +0.000 OA
ENDBRANCH   7  14
ENDBRANCH   2  12
ENDBRANCH   1   4
BRANCH   1  15
ATOM     15  O   UNL     1       7.583   4.939  16.116  0.00  0.00    +0.000 OA
BRANCH  15  16
ATOM     16  C   UNL     1       7.417   4.812  14.762  0.00  0.00    +0.000 A 
ATOM     17  C   UNL     1       8.227   5.672  14.015  0.00  0.00    +0.000 A 
ATOM     18  C   UNL     1       8.160   5.672  12.625  0.00  0.00    +0.000 A 
ATOM     19  C   UNL     1       7.279   4.810  11.975  0.00  0.00    +0.000 A 
ATOM     20  F   UNL     1       7.247   4.853  10.634  0.00  0.00    +0.000 F 
ATOM     21  C   UNL     1       6.458   3.936  12.693  0.00  0.00    +0.000 A 
ATOM     22  C   UNL     1       6.542   3.943  14.093  0.00  0.00    +0.000 A 
ATOM     23  F   UNL     1       5.770   3.110  14.807  0.00  0.00    +0.000 F 
BRANCH  21  24
ATOM     24  C   UNL     1       5.503   3.016  12.021  0.00  0.00    +0.000 C 
ATOM     25  N   UNL     1       5.934   1.761  11.696  0.00  0.00    +0.000 N 
ATOM     26  O   UNL     1       4.355   3.344  11.745  0.00  0.00    +0.000 OA
ATOM     27  H   UNL     1       6.866   1.415  11.894  0.00  0.00    +0.000 HD
ATOM     28  H   UNL     1       5.276   1.142  11.240  0.00  0.00    +0.000 HD
ENDBRANCH  21  24
ENDBRANCH  15  16
ENDBRANCH   1  15
TORSDOF 6
ENDMDL
MODEL 5
REMARK VINA RESULT:      -7.6      4.908      8.115
REMARK  Name = 
REMARK  7 active torsions:
REMARK  status: ('A' for Active; 'I' for Inactive)
REMARK    1  A    between atoms: C_1  and  O_2
REMARK    2  A    between atoms: O_2  and  C_3
REMARK    3  A    between atoms: C_8  and  C_9
REMARK    4  A    between atoms: C_11  and  C_12
REMARK    5  A    between atoms: C_12  and  O_13
REMARK    6  A    between atoms: O_13  and  C_14
REMARK    7  A    between atoms: C_19  and  C_20
REMARK                            x       y       z     vdW  Elec       q    Type
REMARK                         _______ _______ _______ _____ _____    ______ ____
ROOT
ATOM      1  C   UNL     1       7.299   6.656  17.589  0.00  0.00    +0.000 C 
ENDROOT
BRANCH   1   4
ATOM      2  C   UNL     1       8.850   9.893  18.441  0.00  0.00    +0.000 A 
ATOM      3  C   UNL     1       8.838   8.492  18.676  0.00  0.00    +0.000 A 
ATOM      4  C   UNL     1       7.818   8.008  17.894  0.00  0.00    +0.000 A 
ATOM      5  O   UNL     1       7.219   9.046  17.258  0.00  0.00    +0.000 OA
ATOM      6  N   UNL     1       7.859  10.221  17.591  0.00  0.00    +0.000 NA
BRANCH   2  12
ATOM      7  C   UNL     1       9.832  11.340  20.273  0.00  0.00    +0.000 A 
ATOM      8  C   UNL     1      10.802  12.275  20.670  0.00  0.00    +0.000 A 
ATOM      9  C   UNL     1      11.694  12.816  19.743  0.00  0.00    +0.000 A 
ATOM     10  C   UNL     1      11.639  12.419  18.414  0.00  0.00    +0.000 A 
ATOM     11  C   UNL     1      10.700  11.467  18.016  0.00  0.00    +0.000 A 
ATOM     12  C   UNL     1       9.790  10.906  18.934  0.00  0.00    +0.000 A 
BRANCH   7  14
ATOM     13  C   UNL     1       8.457  11.717  22.159  0.00  0.00    +0.000 C 
ATOM     14  O   UNL     1       8.927  10.811  21.163  0.00  0.00    +0.000 OA
ENDBRANCH   7  14
ENDBRANCH   2  12
ENDBRANCH   1   4
BRANCH   1  15
ATOM     15  O   UNL     1       6.137   6.838  16.782  0.00  0.00    +0.000 OA
BRANCH  15  16
ATOM     16  C   UNL     1       4.983   6.222  17.190  0.00  0.00    +0.000 A 
ATOM     17  C   UNL     1       3.990   7.113  17.606  0.00  0.00    +0.000 A 
ATOM     18  C   UNL     1       2.765   6.639  18.066  0.00  0.00    +0.000 A 
ATOM     19  C   UNL     1       2.529   5.266  18.111  0.00  0.00    +0.000 A 
ATOM     20  F   UNL     1       1.335   4.858  18.567  0.00  0.00    +0.000 F 
ATOM     21  C   UNL     1       3.500   4.350  17.698  0.00  0.00    +0.000 A 
ATOM     22  C   UNL     1       4.727   4.844  17.232  0.00  0.00    +0.000 A 
ATOM     23  F   UNL     1       5.675   3.987  16.824  0.00  0.00    +0.000 F 
BRANCH  21  24
ATOM     24  C   UNL     1       3.273   2.880  17.748  0.00  0.00    +0.000 C 
ATOM     25  N   UNL     1       4.081   2.129  18.553  0.00  0.00    +0.000 N 
ATOM     26  O   UNL     1       2.398   2.326  17.093  0.00  0.00    +0.000 OA
ATOM     27  H   UNL     1       4.822   2.514  19.126  0.00  0.00    +0.000 HD
ATOM     28  H   UNL     1       3.917   1.130  18.581  0.00  0.00    +0.000 HD
ENDBRANCH  21  24
ENDBRANCH  15  16
ENDBRANCH   1  15
TORSDOF 6
ENDMDL
MODEL 6
REMARK VINA RESULT:      -7.5      5.785      7.726
REMARK  Name = 
REMARK  7 active torsions:
REMARK  status: ('A' for Active; 'I' for Inactive)
REMARK    1  A    between atoms: C_1  and  O_2
REMARK    2  A    between atoms: O_2  and  C_3
REMARK    3  A    between atoms: C_8  and  C_9
REMARK    4  A    between atoms: C_11  and  C_12
REMARK    5  A    between atoms: C_12  and  O_13
REMARK    6  A    between atoms: O_13  and  C_14
REMARK    7  A    between atoms: C_19  and  C_20
REMARK                            x       y       z     vdW  Elec       q    Type
REMARK                         _______ _______ _______ _____ _____    ______ ____
ROOT
ATOM      1  C   UNL     1       2.141   8.901  17.856  0.00  0.00    +0.000 C 
ENDROOT
BRANCH   1   4
ATOM      2  C   UNL     1      -0.012  11.116  19.871  0.00  0.00    +0.000 A 
ATOM      3  C   UNL     1       0.194   9.799  19.380  0.00  0.00    +0.000 A 
ATOM      4  C   UNL     1       1.322   9.883  18.600  0.00  0.00    +0.000 A 
ATOM      5  O   UNL     1       1.751  11.170  18.580  0.00  0.00    +0.000 OA
ATOM      6  N   UNL     1       0.927  11.942  19.373  0.00  0.00    +0.000 NA
BRANCH   2  12
ATOM      7  C   UNL     1      -0.891  11.435  22.226  0.00  0.00    +0.000 A 
ATOM      8  C   UNL     1      -1.869  11.978  23.075  0.00  0.00    +0.000 A 
ATOM      9  C   UNL     1      -2.984  12.635  22.554  0.00  0.00    +0.000 A 
ATOM     10  C   UNL     1      -3.129  12.771  21.179  0.00  0.00    +0.000 A 
ATOM     11  C   UNL     1      -2.147  12.265  20.328  0.00  0.00    +0.000 A 
ATOM     12  C   UNL     1      -1.011  11.599  20.831  0.00  0.00    +0.000 A 
BRANCH   7  14
ATOM     13  C   UNL     1      -0.071   9.478  23.267  0.00  0.00    +0.000 C 
ATOM     14  O   UNL     1       0.204  10.764  22.715  0.00  0.00    +0.000 OA
ENDBRANCH   7  14
ENDBRANCH   2  12
ENDBRANCH   1   4
BRANCH   1  15
ATOM     15  O   UNL     1       2.212   7.730  18.669  0.00  0.00    +0.000 OA
BRANCH  15  16
ATOM     16  C   UNL     1       3.054   6.730  18.261  0.00  0.00    +0.000 A 
ATOM     17  C   UNL     1       3.982   7.137  17.299  0.00  0.00    +0.000 A 
ATOM     18  C   UNL     1       4.896   6.228  16.773  0.00  0.00    +0.000 A 
ATOM     19  C   UNL     1       4.884   4.905  17.209  0.00  0.00    +0.000 A 
ATOM     20  F   UNL     1       5.781   4.066  16.667  0.00  0.00    +0.000 F 
ATOM     21  C   UNL     1       3.971   4.468  18.172  0.00  0.00    +0.000 A 
ATOM     22  C   UNL     1       3.060   5.396  18.697  0.00  0.00    +0.000 A 
ATOM     23  F   UNL     1       2.176   5.005  19.627  0.00  0.00    +0.000 F 
BRANCH  21  24
ATOM     24  C   UNL     1       3.933   3.057  18.644  0.00  0.00    +0.000 C 
ATOM     25  N   UNL     1       4.892   2.645  19.525  0.00  0.00    +0.000 N 
ATOM     26  O   UNL     1       3.083   2.259  18.268  0.00  0.00    +0.000 OA
ATOM     27  H   UNL     1       5.624   3.245  19.884  0.00  0.00    +0.000 HD
ATOM     28  H   UNL     1       4.856   1.684  19.840  0.00  0.00    +0.000 HD
ENDBRANCH  21  24
ENDBRANCH  15  16
ENDBRANCH   1  15
TORSDOF 6
ENDMDL
MODEL 7
REMARK VINA RESULT:      -7.4      5.110      7.598
REMARK  Name = 
REMARK  7 active torsions:
REMARK  status: ('A' for Active; 'I' for Inactive)
REMARK    1  A    between atoms: C_1  and  O_2
REMARK    2  A    between atoms: O_2  and  C_3
REMARK    3  A    between atoms: C_8  and  C_9
REMARK    4  A    between atoms: C_11  and  C_12
REMARK    5  A    between atoms: C_12  and  O_13
REMARK    6  A    between atoms: O_13  and  C_14
REMARK    7  A    between atoms: C_19  and  C_20
REMARK                            x       y       z     vdW  Elec       q    Type
REMARK                         _______ _______ _______ _____ _____    ______ ____
ROOT
ATOM      1  C   UNL     1       3.991   7.025  18.057  0.00  0.00    +0.000 C 
ENDROOT
BRANCH   1   4
ATOM      2  C   UNL     1       1.103   9.261  18.570  0.00  0.00    +0.000 A 
ATOM      3  C   UNL     1       2.106   8.817  17.667  0.00  0.00    +0.000 A 
ATOM      4  C   UNL     1       2.856   7.915  18.383  0.00  0.00    +0.000 A 
ATOM      5  O   UNL     1       2.372   7.844  19.648  0.00  0.00    +0.000 OA
ATOM      6  N   UNL     1       1.279   8.676  19.770  0.00  0.00    +0.000 NA
BRANCH   2  12
ATOM      7  C   UNL     1      -0.116  11.466  18.830  0.00  0.00    +0.000 A 
ATOM      8  C   UNL     1      -1.218  12.270  18.497  0.00  0.00    +0.000 A 
ATOM      9  C   UNL     1      -2.259  11.770  17.714  0.00  0.00    +0.000 A 
ATOM     10  C   UNL     1      -2.203  10.466  17.238  0.00  0.00    +0.000 A 
ATOM     11  C   UNL     1      -1.098   9.669  17.535  0.00  0.00    +0.000 A 
ATOM     12  C   UNL     1      -0.035  10.153  18.323  0.00  0.00    +0.000 A 
BRANCH   7  14
ATOM     13  C   UNL     1       0.570  12.141  20.988  0.00  0.00    +0.000 C 
ATOM     14  O   UNL     1       0.909  11.929  19.620  0.00  0.00    +0.000 OA
ENDBRANCH   7  14
ENDBRANCH   2  12
ENDBRANCH   1   4
BRANCH   1  15
ATOM     15  O   UNL     1       3.478   6.007  17.198  0.00  0.00    +0.000 OA
BRANCH  15  16
ATOM     16  C   UNL     1       3.105   4.823  17.775  0.00  0.00    +0.000 A 
ATOM     17  C   UNL     1       1.722   4.625  17.803  0.00  0.00    +0.000 A 
ATOM     18  C   UNL     1       1.186   3.474  18.373  0.00  0.00    +0.000 A 
ATOM     19  C   UNL     1       2.035   2.514  18.921  0.00  0.00    +0.000 A 
ATOM     20  F   UNL     1       1.469   1.426  19.465  0.00  0.00    +0.000 F 
ATOM     21  C   UNL     1       3.422   2.682  18.906  0.00  0.00    +0.000 A 
ATOM     22  C   UNL     1       3.947   3.844  18.322  0.00  0.00    +0.000 A 
ATOM     23  F   UNL     1       5.276   4.027  18.289  0.00  0.00    +0.000 F 
BRANCH  21  24
ATOM     24  C   UNL     1       4.346   1.676  19.495  0.00  0.00    +0.000 C 
ATOM     25  N   UNL     1       4.476   0.471  18.865  0.00  0.00    +0.000 N 
ATOM     26  O   UNL     1       4.985   1.887  20.519  0.00  0.00    +0.000 OA
ATOM     27  H   UNL     1       3.985   0.222  18.014  0.00  0.00    +0.000 HD
ATOM     28  H   UNL     1       5.108  -0.207  19.274  0.00  0.00    +0.000 HD
ENDBRANCH  21  24
ENDBRANCH  15  16
ENDBRANCH   1  15
TORSDOF 6
ENDMDL
MODEL 8
REMARK VINA RESULT:      -7.4      6.162      8.875
REMARK  Name = 
REMARK  7 active torsions:
REMARK  status: ('A' for Active; 'I' for Inactive)
REMARK    1  A    between atoms: C_1  and  O_2
REMARK    2  A    between atoms: O_2  and  C_3
REMARK    3  A    between atoms: C_8  and  C_9
REMARK    4  A    between atoms: C_11  and  C_12
REMARK    5  A    between atoms: C_12  and  O_13
REMARK    6  A    between atoms: O_13  and  C_14
REMARK    7  A    between atoms: C_19  and  C_20
REMARK                            x       y       z     vdW  Elec       q    Type
REMARK                         _______ _______ _______ _____ _____    ______ ____
ROOT
ATOM      1  C   UNL     1       1.552   7.865  20.167  0.00  0.00    +0.000 C 
ENDROOT
BRANCH   1   4
ATOM      2  C   UNL     1       0.015  10.586  22.126  0.00  0.00    +0.000 A 
ATOM      3  C   UNL     1       0.239  10.045  20.831  0.00  0.00    +0.000 A 
ATOM      4  C   UNL     1       1.017   8.933  21.040  0.00  0.00    +0.000 A 
ATOM      5  O   UNL     1       1.286   8.824  22.366  0.00  0.00    +0.000 OA
ATOM      6  N   UNL     1       0.662   9.848  23.047  0.00  0.00    +0.000 NA
BRANCH   2  12
ATOM      7  C   UNL     1      -0.464  13.066  22.322  0.00  0.00    +0.000 A 
ATOM      8  C   UNL     1      -1.358  14.088  22.681  0.00  0.00    +0.000 A 
ATOM      9  C   UNL     1      -2.582  13.788  23.280  0.00  0.00    +0.000 A 
ATOM     10  C   UNL     1      -2.936  12.466  23.512  0.00  0.00    +0.000 A 
ATOM     11  C   UNL     1      -2.070  11.442  23.129  0.00  0.00    +0.000 A 
ATOM     12  C   UNL     1      -0.829  11.720  22.521  0.00  0.00    +0.000 A 
BRANCH   7  14
ATOM     13  C   UNL     1       0.702  13.942  20.462  0.00  0.00    +0.000 C 
ATOM     14  O   UNL     1       0.757  13.337  21.752  0.00  0.00    +0.000 OA
ENDBRANCH   7  14
ENDBRANCH   2  12
ENDBRANCH   1   4
BRANCH   1  15
ATOM     15  O   UNL     1       1.680   6.699  20.979  0.00  0.00    +0.000 OA
BRANCH  15  16
ATOM     16  C   UNL     1       1.961   5.517  20.346  0.00  0.00    +0.000 A 
ATOM     17  C   UNL     1       0.981   4.538  20.528  0.00  0.00    +0.000 A 
ATOM     18  C   UNL     1       1.131   3.276  19.959  0.00  0.00    +0.000 A 
ATOM     19  C   UNL     1       2.268   2.989  19.206  0.00  0.00    +0.000 A 
ATOM     20  F   UNL     1       2.370   1.757  18.685  0.00  0.00    +0.000 F 
ATOM     21  C   UNL     1       3.265   3.948  19.004  0.00  0.00    +0.000 A 
ATOM     22  C   UNL     1       3.095   5.216  19.578  0.00  0.00    +0.000 A 
ATOM     23  F   UNL     1       4.034   6.157  19.395  0.00  0.00    +0.000 F 
BRANCH  21  24
ATOM     24  C   UNL     1       4.491   3.659  18.213  0.00  0.00    +0.000 C 
ATOM     25  N   UNL     1       5.666   3.479  18.886  0.00  0.00    +0.000 N 
ATOM     26  O   UNL     1       4.484   3.583  16.990  0.00  0.00    +0.000 OA
ATOM     27  H   UNL     1       5.752   3.523  19.894  0.00  0.00    +0.000 HD
ATOM     28  H   UNL     1       6.494   3.282  18.338  0.00  0.00    +0.000 HD
ENDBRANCH  21  24
ENDBRANCH  15  16
ENDBRANCH   1  15
TORSDOF 6
ENDMDL
MODEL 9
REMARK VINA RESULT:      -7.3      5.271      7.964
REMARK  Name = 
REMARK  7 active torsions:
REMARK  status: ('A' for Active; 'I' for Inactive)
REMARK    1  A    between atoms: C_1  and  O_2
REMARK    2  A    between atoms: O_2  and  C_3
REMARK    3  A    between atoms: C_8  and  C_9
REMARK    4  A    between atoms: C_11  and  C_12
REMARK    5  A    between atoms: C_12  and  O_13
REMARK    6  A    between atoms: O_13  and  C_14
REMARK    7  A    between atoms: C_19  and  C_20
REMARK                            x       y       z     vdW  Elec       q    Type
REMARK                         _______ _______ _______ _____ _____    ______ ____
ROOT
ATOM      1  C   UNL     1       3.076   7.549  17.556  0.00  0.00    +0.000 C 
ENDROOT
BRANCH   1   4
ATOM      2  C   UNL     1       0.767   9.501  19.669  0.00  0.00    +0.000 A 
ATOM      3  C   UNL     1       1.802   8.529  19.639  0.00  0.00    +0.000 A 
ATOM      4  C   UNL     1       2.078   8.343  18.306  0.00  0.00    +0.000 A 
ATOM      5  O   UNL     1       1.240   9.116  17.570  0.00  0.00    +0.000 OA
ATOM      6  N   UNL     1       0.425   9.843  18.412  0.00  0.00    +0.000 NA
BRANCH   2  12
ATOM      7  C   UNL     1      -0.155  11.532  20.869  0.00  0.00    +0.000 A 
ATOM      8  C   UNL     1      -0.800  12.066  21.997  0.00  0.00    +0.000 A 
ATOM      9  C   UNL     1      -1.100  11.261  23.097  0.00  0.00    +0.000 A 
ATOM     10  C   UNL     1      -0.776   9.911  23.077  0.00  0.00    +0.000 A 
ATOM     11  C   UNL     1      -0.165   9.364  21.949  0.00  0.00    +0.000 A 
ATOM     12  C   UNL     1       0.147  10.157  20.826  0.00  0.00    +0.000 A 
BRANCH   7  14
ATOM     13  C   UNL     1      -0.420  13.608  19.770  0.00  0.00    +0.000 C 
ATOM     14  O   UNL     1       0.172  12.310  19.784  0.00  0.00    +0.000 OA
ENDBRANCH   7  14
ENDBRANCH   2  12
ENDBRANCH   1   4
BRANCH   1  15
ATOM     15  O   UNL     1       3.860   6.858  18.528  0.00  0.00    +0.000 OA
BRANCH  15  16
ATOM     16  C   UNL     1       3.622   5.520  18.695  0.00  0.00    +0.000 A 
ATOM     17  C   UNL     1       4.039   4.738  17.614  0.00  0.00    +0.000 A 
ATOM     18  C   UNL     1       3.849   3.359  17.628  0.00  0.00    +0.000 A 
ATOM     19  C   UNL     1       3.240   2.756  18.726  0.00  0.00    +0.000 A 
ATOM     20  F   UNL     1       3.074   1.425  18.689  0.00  0.00    +0.000 F 
ATOM     21  C   UNL     1       2.815   3.510  19.824  0.00  0.00    +0.000 A 
ATOM     22  C   UNL     1       3.018   4.897  19.797  0.00  0.00    +0.000 A 
ATOM     23  F   UNL     1       2.626   5.645  20.840  0.00  0.00    +0.000 F 
BRANCH  21  24
ATOM     24  C   UNL     1       2.152   2.889  21.001  0.00  0.00    +0.000 C 
ATOM     25  N   UNL     1       0.788   2.822  21.014  0.00  0.00    +0.000 N 
ATOM     26  O   UNL     1       2.782   2.444  21.954  0.00  0.00    +0.000 OA
ATOM     27  H   UNL     1       0.199   3.164  20.265  0.00  0.00    +0.000 HD
ATOM     28  H   UNL     1       0.347   2.396  21.820  0.00  0.00    +0.000 HD
ENDBRANCH  21  24
ENDBRANCH  15  16
ENDBRANCH   1  15
TORSDOF 6
ENDMDL
