MODEL 1
REMARK VINA RESULT:      -6.7      0.000      0.000
REMARK  Name = 
REMARK  12 active torsions:
REMARK  status: ('A' for Active; 'I' for Inactive)
REMARK    1  A    between atoms: C_1  and  C_2
REMARK    2  A    between atoms: C_2  and  C_3
REMARK    3  A    between atoms: C_3  and  C_4
REMARK    4  A    between atoms: C_4  and  O_6
REMARK    5  A    between atoms: O_6  and  P_7
REMARK    6  A    between atoms: P_7  and  C_10
REMARK    7  A    between atoms: C_10  and  P_13
REMARK    8  A    between atoms: P_13  and  O_16
REMARK    9  A    between atoms: O_16  and  C_17
REMARK   10  A    between atoms: C_17  and  C_19
REMARK   11  A    between atoms: C_19  and  C_20
REMARK   12  A    between atoms: C_20  and  C_21
REMARK                            x       y       z     vdW  Elec       q    Type
REMARK                         _______ _______ _______ _____ _____    ______ ____
ROOT
ATOM      1  C   UNL     1       6.013   5.635  17.862  0.00  0.00    +0.000 C 
ATOM      2 CL   UNL     1       7.189   5.811  19.181  0.00  0.00    +0.000 Cl
ATOM      3 CL   UNL     1       5.235   7.239  17.487  0.00  0.00    +0.000 Cl
ENDROOT
BRANCH   1   4
ATOM      4  P   UNL     1       6.449   4.689  16.358  0.00  0.00    +0.000 P 
ATOM      5  O   UNL     1       7.912   4.512  16.812  0.00  0.00    +0.000 OA
ATOM      6  O   UNL     1       6.144   5.864  15.395  0.00  0.00    +0.000 OA
BRANCH   4   7
ATOM      7  O   UNL     1       6.862   3.794  14.936  0.00  0.00    +0.000 OA
BRANCH   7   8
ATOM      8  C   UNL     1       6.495   4.267  13.733  0.00  0.00    +0.000 C 
ATOM      9  O   UNL     1       7.326   4.693  12.920  0.00  0.00    +0.000 OA
BRANCH   8  10
ATOM     10  C   UNL     1       5.140   3.746  13.298  0.00  0.00    +0.000 C 
BRANCH  10  12
ATOM     11  C   UNL     1       5.717   2.032  11.509  0.00  0.00    +0.000 C 
ATOM     12  C   UNL     1       4.905   3.261  11.874  0.00  0.00    +0.000 C 
ENDBRANCH  10  12
ENDBRANCH   8  10
ENDBRANCH   7   8
ENDBRANCH   4   7
ENDBRANCH   1   4
BRANCH   1  13
ATOM     13  P   UNL     1       4.405   4.589  18.588  0.00  0.00    +0.000 P 
ATOM     14  O   UNL     1       3.308   4.593  17.562  0.00  0.00    +0.000 OA
ATOM     15  O   UNL     1       5.016   3.295  19.143  0.00  0.00    +0.000 OA
BRANCH  13  16
ATOM     16  O   UNL     1       3.935   5.489  19.864  0.00  0.00    +0.000 OA
BRANCH  16  17
ATOM     17  C   UNL     1       2.636   5.555  20.220  0.00  0.00    +0.000 C 
ATOM     18  O   UNL     1       1.813   6.401  19.890  0.00  0.00    +0.000 OA
BRANCH  17  19
ATOM     19  C   UNL     1       2.172   4.346  21.014  0.00  0.00    +0.000 C 
BRANCH  19  20
ATOM     20  C   UNL     1       1.067   3.511  20.392  0.00  0.00    +0.000 C 
ATOM     21  C   UNL     1       1.591   2.268  19.694  0.00  0.00    +0.000 C 
ENDBRANCH  19  20
ENDBRANCH  17  19
ENDBRANCH  16  17
ENDBRANCH  13  16
ENDBRANCH   1  13
TORSDOF 10
ENDMDL
MODEL 2
REMARK VINA RESULT:      -6.6      2.838      6.575
REMARK  Name = 
REMARK  12 active torsions:
REMARK  status: ('A' for Active; 'I' for Inactive)
REMARK    1  A    between atoms: C_1  and  C_2
REMARK    2  A    between atoms: C_2  and  C_3
REMARK    3  A    between atoms: C_3  and  C_4
REMARK    4  A    between atoms: C_4  and  O_6
REMARK    5  A    between atoms: O_6  and  P_7
REMARK    6  A    between atoms: P_7  and  C_10
REMARK    7  A    between atoms: C_10  and  P_13
REMARK    8  A    between atoms: P_13  and  O_16
REMARK    9  A    between atoms: O_16  and  C_17
REMARK   10  A    between atoms: C_17  and  C_19
REMARK   11  A    between atoms: C_19  and  C_20
REMARK   12  A    between atoms: C_20  and  C_21
REMARK                            x       y       z     vdW  Elec       q    Type
REMARK                         _______ _______ _______ _____ _____    ______ ____
ROOT
ATOM      1  C   UNL     1       6.002   4.673  17.263  0.00  0.00    +0.000 C 
ATOM      2 CL   UNL     1       7.721   4.330  17.544  0.00  0.00    +0.000 Cl
ATOM      3 CL   UNL     1       5.413   3.794  15.780  0.00  0.00    +0.000 Cl
ENDROOT
BRANCH   1   4
ATOM      4  P   UNL     1       4.810   4.601  18.650  0.00  0.00    +0.000 P 
ATOM      5  O   UNL     1       5.933   4.611  19.705  0.00  0.00    +0.000 OA
ATOM      6  O   UNL     1       4.239   3.221  18.235  0.00  0.00    +0.000 OA
BRANCH   4   7
ATOM      7  O   UNL     1       3.683   4.534  19.961  0.00  0.00    +0.000 OA
BRANCH   7   8
ATOM      8  C   UNL     1       2.510   5.180  19.853  0.00  0.00    +0.000 C 
ATOM      9  O   UNL     1       2.339   6.088  19.028  0.00  0.00    +0.000 OA
BRANCH   8  10
ATOM     10  C   UNL     1       1.353   4.372  20.407  0.00  0.00    +0.000 C 
BRANCH  10  12
ATOM     11  C   UNL     1       0.828   2.468  18.804  0.00  0.00    +0.000 C 
ATOM     12  C   UNL     1       1.276   2.866  20.198  0.00  0.00    +0.000 C 
ENDBRANCH  10  12
ENDBRANCH   8  10
ENDBRANCH   7   8
ENDBRANCH   4   7
ENDBRANCH   1   4
BRANCH   1  13
ATOM     13  P   UNL     1       5.840   6.621  16.645  0.00  0.00    +0.000 P 
ATOM     14  O   UNL     1       5.378   6.650  15.216  0.00  0.00    +0.000 OA
ATOM     15  O   UNL     1       5.072   7.314  17.779  0.00  0.00    +0.000 OA
BRANCH  13  16
ATOM     16  O   UNL     1       7.381   7.150  16.710  0.00  0.00    +0.000 OA
BRANCH  16  17
ATOM     17  C   UNL     1       7.866   7.724  17.829  0.00  0.00    +0.000 C 
ATOM     18  O   UNL     1       8.273   7.162  18.841  0.00  0.00    +0.000 OA
BRANCH  17  19
ATOM     19  C   UNL     1       8.020   9.230  17.711  0.00  0.00    +0.000 C 
BRANCH  19  20
ATOM     20  C   UNL     1       8.956   9.895  18.704  0.00  0.00    +0.000 C 
ATOM     21  C   UNL     1       9.656  11.114  18.128  0.00  0.00    +0.000 C 
ENDBRANCH  19  20
ENDBRANCH  17  19
ENDBRANCH  16  17
ENDBRANCH  13  16
ENDBRANCH   1  13
TORSDOF 10
ENDMDL
MODEL 3
REMARK VINA RESULT:      -6.6      1.483      6.593
REMARK  Name = 
REMARK  12 active torsions:
REMARK  status: ('A' for Active; 'I' for Inactive)
REMARK    1  A    between atoms: C_1  and  C_2
REMARK    2  A    between atoms: C_2  and  C_3
REMARK    3  A    between atoms: C_3  and  C_4
REMARK    4  A    between atoms: C_4  and  O_6
REMARK    5  A    between atoms: O_6  and  P_7
REMARK    6  A    between atoms: P_7  and  C_10
REMARK    7  A    between atoms: C_10  and  P_13
REMARK    8  A    between atoms: P_13  and  O_16
REMARK    9  A    between atoms: O_16  and  C_17
REMARK   10  A    between atoms: C_17  and  C_19
REMARK   11  A    between atoms: C_19  and  C_20
REMARK   12  A    between atoms: C_20  and  C_21
REMARK                            x       y       z     vdW  Elec       q    Type
REMARK                         _______ _______ _______ _____ _____    ______ ____
ROOT
ATOM      1  C   UNL     1       6.601   5.521  17.385  0.00  0.00    +0.000 C 
ATOM      2 CL   UNL     1       7.332   7.116  17.114  0.00  0.00    +0.000 Cl
ATOM      3 CL   UNL     1       7.891   4.240  17.491  0.00  0.00    +0.000 Cl
ENDROOT
BRANCH   1   4
ATOM      4  P   UNL     1       5.288   5.311  18.643  0.00  0.00    +0.000 P 
ATOM      5  O   UNL     1       4.617   6.646  18.263  0.00  0.00    +0.000 OA
ATOM      6  O   UNL     1       6.276   5.329  19.838  0.00  0.00    +0.000 OA
BRANCH   4   7
ATOM      7  O   UNL     1       4.048   5.112  19.832  0.00  0.00    +0.000 OA
BRANCH   7   8
ATOM      8  C   UNL     1       3.353   3.963  19.871  0.00  0.00    +0.000 C 
ATOM      9  O   UNL     1       3.915   2.864  19.966  0.00  0.00    +0.000 OA
BRANCH   8  10
ATOM     10  C   UNL     1       1.918   4.172  20.314  0.00  0.00    +0.000 C 
BRANCH  10  12
ATOM     11  C   UNL     1       0.826   2.500  18.738  0.00  0.00    +0.000 C 
ATOM     12  C   UNL     1       0.875   3.076  20.140  0.00  0.00    +0.000 C 
ENDBRANCH  10  12
ENDBRANCH   8  10
ENDBRANCH   7   8
ENDBRANCH   4   7
ENDBRANCH   1   4
BRANCH   1  13
ATOM     13  P   UNL     1       5.647   4.964  15.658  0.00  0.00    +0.000 P 
ATOM     14  O   UNL     1       4.606   3.930  15.979  0.00  0.00    +0.000 OA
ATOM     15  O   UNL     1       5.310   6.293  14.968  0.00  0.00    +0.000 OA
BRANCH  13  16
ATOM     16  O   UNL     1       6.839   4.259  14.797  0.00  0.00    +0.000 OA
BRANCH  16  17
ATOM     17  C   UNL     1       7.388   4.887  13.738  0.00  0.00    +0.000 C 
ATOM     18  O   UNL     1       8.271   5.738  13.749  0.00  0.00    +0.000 OA
BRANCH  17  19
ATOM     19  C   UNL     1       6.908   4.341  12.405  0.00  0.00    +0.000 C 
BRANCH  19  20
ATOM     20  C   UNL     1       5.974   3.145  12.459  0.00  0.00    +0.000 C 
ATOM     21  C   UNL     1       4.647   3.403  11.768  0.00  0.00    +0.000 C 
ENDBRANCH  19  20
ENDBRANCH  17  19
ENDBRANCH  16  17
ENDBRANCH  13  16
ENDBRANCH   1  13
TORSDOF 10
ENDMDL
MODEL 4
REMARK VINA RESULT:      -6.5      1.575      6.464
REMARK  Name = 
REMARK  12 active torsions:
REMARK  status: ('A' for Active; 'I' for Inactive)
REMARK    1  A    between atoms: C_1  and  C_2
REMARK    2  A    between atoms: C_2  and  C_3
REMARK    3  A    between atoms: C_3  and  C_4
REMARK    4  A    between atoms: C_4  and  O_6
REMARK    5  A    between atoms: O_6  and  P_7
REMARK    6  A    between atoms: P_7  and  C_10
REMARK    7  A    between atoms: C_10  and  P_13
REMARK    8  A    between atoms: P_13  and  O_16
REMARK    9  A    between atoms: O_16  and  C_17
REMARK   10  A    between atoms: C_17  and  C_19
REMARK   11  A    between atoms: C_19  and  C_20
REMARK   12  A    between atoms: C_20  and  C_21
REMARK                            x       y       z     vdW  Elec       q    Type
REMARK                         _______ _______ _______ _____ _____    ______ ____
ROOT
ATOM      1  C   UNL     1       5.731   6.107  17.288  0.00  0.00    +0.000 C 
ATOM      2 CL   UNL     1       4.684   7.178  16.335  0.00  0.00    +0.000 Cl
ATOM      3 CL   UNL     1       7.219   6.999  17.841  0.00  0.00    +0.000 Cl
ENDROOT
BRANCH   1   4
ATOM      4  P   UNL     1       5.015   5.044  18.595  0.00  0.00    +0.000 P 
ATOM      5  O   UNL     1       3.757   5.926  18.718  0.00  0.00    +0.000 OA
ATOM      6  O   UNL     1       6.167   5.309  19.597  0.00  0.00    +0.000 OA
BRANCH   4   7
ATOM      7  O   UNL     1       4.339   4.038  19.830  0.00  0.00    +0.000 OA
BRANCH   7   8
ATOM      8  C   UNL     1       4.423   2.703  19.709  0.00  0.00    +0.000 C 
ATOM      9  O   UNL     1       4.693   1.977  20.675  0.00  0.00    +0.000 OA
BRANCH   8  10
ATOM     10  C   UNL     1       3.667   2.185  18.502  0.00  0.00    +0.000 C 
BRANCH  10  12
ATOM     11  C   UNL     1       1.290   2.226  19.406  0.00  0.00    +0.000 C 
ATOM     12  C   UNL     1       2.216   2.575  18.256  0.00  0.00    +0.000 C 
ENDBRANCH  10  12
ENDBRANCH   8  10
ENDBRANCH   7   8
ENDBRANCH   4   7
ENDBRANCH   1   4
BRANCH   1  13
ATOM     13  P   UNL     1       6.558   4.734  16.009  0.00  0.00    +0.000 P 
ATOM     14  O   UNL     1       7.968   4.445  16.439  0.00  0.00    +0.000 OA
ATOM     15  O   UNL     1       5.488   3.641  15.886  0.00  0.00    +0.000 OA
BRANCH  13  16
ATOM     16  O   UNL     1       6.595   5.538  14.591  0.00  0.00    +0.000 OA
BRANCH  16  17
ATOM     17  C   UNL     1       7.338   5.086  13.561  0.00  0.00    +0.000 C 
ATOM     18  O   UNL     1       8.339   5.604  13.077  0.00  0.00    +0.000 OA
BRANCH  17  19
ATOM     19  C   UNL     1       6.912   3.712  13.074  0.00  0.00    +0.000 C 
BRANCH  19  20
ATOM     20  C   UNL     1       6.263   3.651  11.703  0.00  0.00    +0.000 C 
ATOM     21  C   UNL     1       4.792   3.278  11.764  0.00  0.00    +0.000 C 
ENDBRANCH  19  20
ENDBRANCH  17  19
ENDBRANCH  16  17
ENDBRANCH  13  16
ENDBRANCH   1  13
TORSDOF 10
ENDMDL
MODEL 5
REMARK VINA RESULT:      -6.5      1.335      1.768
REMARK  Name = 
REMARK  12 active torsions:
REMARK  status: ('A' for Active; 'I' for Inactive)
REMARK    1  A    between atoms: C_1  and  C_2
REMARK    2  A    between atoms: C_2  and  C_3
REMARK    3  A    between atoms: C_3  and  C_4
REMARK    4  A    between atoms: C_4  and  O_6
REMARK    5  A    between atoms: O_6  and  P_7
REMARK    6  A    between atoms: P_7  and  C_10
REMARK    7  A    between atoms: C_10  and  P_13
REMARK    8  A    between atoms: P_13  and  O_16
REMARK    9  A    between atoms: O_16  and  C_17
REMARK   10  A    between atoms: C_17  and  C_19
REMARK   11  A    between atoms: C_19  and  C_20
REMARK   12  A    between atoms: C_20  and  C_21
REMARK                            x       y       z     vdW  Elec       q    Type
REMARK                         _______ _______ _______ _____ _____    ______ ____
ROOT
ATOM      1  C   UNL     1       6.672   5.857  17.928  0.00  0.00    +0.000 C 
ATOM      2 CL   UNL     1       7.974   5.913  19.133  0.00  0.00    +0.000 Cl
ATOM      3 CL   UNL     1       5.962   7.517  17.682  0.00  0.00    +0.000 Cl
ENDROOT
BRANCH   1   4
ATOM      4  P   UNL     1       6.907   4.947  16.358  0.00  0.00    +0.000 P 
ATOM      5  O   UNL     1       8.068   4.115  16.937  0.00  0.00    +0.000 OA
ATOM      6  O   UNL     1       7.278   6.215  15.549  0.00  0.00    +0.000 OA
BRANCH   4   7
ATOM      7  O   UNL     1       7.129   4.086  14.874  0.00  0.00    +0.000 OA
BRANCH   7   8
ATOM      8  C   UNL     1       6.077   3.897  14.060  0.00  0.00    +0.000 C 
ATOM      9  O   UNL     1       4.956   4.351  14.327  0.00  0.00    +0.000 OA
BRANCH   8  10
ATOM     10  C   UNL     1       6.498   3.585  12.638  0.00  0.00    +0.000 C 
BRANCH  10  12
ATOM     11  C   UNL     1       6.450   1.512  11.163  0.00  0.00    +0.000 C 
ATOM     12  C   UNL     1       5.663   2.666  11.755  0.00  0.00    +0.000 C 
ENDBRANCH  10  12
ENDBRANCH   8  10
ENDBRANCH   7   8
ENDBRANCH   4   7
ENDBRANCH   1   4
BRANCH   1  13
ATOM     13  P   UNL     1       5.077   4.879  18.769  0.00  0.00    +0.000 P 
ATOM     14  O   UNL     1       5.450   3.444  19.011  0.00  0.00    +0.000 OA
ATOM     15  O   UNL     1       4.610   5.815  19.891  0.00  0.00    +0.000 OA
BRANCH  13  16
ATOM     16  O   UNL     1       3.954   4.938  17.588  0.00  0.00    +0.000 OA
BRANCH  16  17
ATOM     17  C   UNL     1       2.731   5.452  17.826  0.00  0.00    +0.000 C 
ATOM     18  O   UNL     1       2.440   6.627  18.029  0.00  0.00    +0.000 OA
BRANCH  17  19
ATOM     19  C   UNL     1       1.615   4.431  17.686  0.00  0.00    +0.000 C 
BRANCH  19  20
ATOM     20  C   UNL     1       1.684   3.223  18.603  0.00  0.00    +0.000 C 
ATOM     21  C   UNL     1       2.365   2.031  17.954  0.00  0.00    +0.000 C 
ENDBRANCH  19  20
ENDBRANCH  17  19
ENDBRANCH  16  17
ENDBRANCH  13  16
ENDBRANCH   1  13
TORSDOF 10
ENDMDL
MODEL 6
REMARK VINA RESULT:      -6.5      0.950      1.124
REMARK  Name = 
REMARK  12 active torsions:
REMARK  status: ('A' for Active; 'I' for Inactive)
REMARK    1  A    between atoms: C_1  and  C_2
REMARK    2  A    between atoms: C_2  and  C_3
REMARK    3  A    between atoms: C_3  and  C_4
REMARK    4  A    between atoms: C_4  and  O_6
REMARK    5  A    between atoms: O_6  and  P_7
REMARK    6  A    between atoms: P_7  and  C_10
REMARK    7  A    between atoms: C_10  and  P_13
REMARK    8  A    between atoms: P_13  and  O_16
REMARK    9  A    between atoms: O_16  and  C_17
REMARK   10  A    between atoms: C_17  and  C_19
REMARK   11  A    between atoms: C_19  and  C_20
REMARK   12  A    between atoms: C_20  and  C_21
REMARK                            x       y       z     vdW  Elec       q    Type
REMARK                         _______ _______ _______ _____ _____    ______ ____
ROOT
ATOM      1  C   UNL     1       5.806   5.560  18.069  0.00  0.00    +0.000 C 
ATOM      2 CL   UNL     1       6.631   5.618  19.640  0.00  0.00    +0.000 Cl
ATOM      3 CL   UNL     1       4.885   7.105  17.779  0.00  0.00    +0.000 Cl
ENDROOT
BRANCH   1   4
ATOM      4  P   UNL     1       6.696   4.974  16.582  0.00  0.00    +0.000 P 
ATOM      5  O   UNL     1       7.867   4.421  17.418  0.00  0.00    +0.000 OA
ATOM      6  O   UNL     1       6.860   6.395  15.984  0.00  0.00    +0.000 OA
BRANCH   4   7
ATOM      7  O   UNL     1       7.537   4.420  15.175  0.00  0.00    +0.000 OA
BRANCH   7   8
ATOM      8  C   UNL     1       7.108   4.801  13.960  0.00  0.00    +0.000 C 
ATOM      9  O   UNL     1       7.845   5.404  13.168  0.00  0.00    +0.000 OA
BRANCH   8  10
ATOM     10  C   UNL     1       5.915   3.992  13.491  0.00  0.00    +0.000 C 
BRANCH  10  12
ATOM     11  C   UNL     1       4.453   3.126  11.597  0.00  0.00    +0.000 C 
ATOM     12  C   UNL     1       5.862   3.417  12.082  0.00  0.00    +0.000 C 
ENDBRANCH  10  12
ENDBRANCH   8  10
ENDBRANCH   7   8
ENDBRANCH   4   7
ENDBRANCH   1   4
BRANCH   1  13
ATOM     13  P   UNL     1       4.264   4.216  18.217  0.00  0.00    +0.000 P 
ATOM     14  O   UNL     1       3.958   3.664  16.854  0.00  0.00    +0.000 OA
ATOM     15  O   UNL     1       4.654   3.324  19.403  0.00  0.00    +0.000 OA
BRANCH  13  16
ATOM     16  O   UNL     1       3.016   5.148  18.700  0.00  0.00    +0.000 OA
BRANCH  16  17
ATOM     17  C   UNL     1       2.258   4.791  19.755  0.00  0.00    +0.000 C 
ATOM     18  O   UNL     1       2.198   5.338  20.851  0.00  0.00    +0.000 OA
BRANCH  17  19
ATOM     19  C   UNL     1       1.297   3.656  19.444  0.00  0.00    +0.000 C 
BRANCH  19  20
ATOM     20  C   UNL     1       1.381   2.434  20.340  0.00  0.00    +0.000 C 
ATOM     21  C   UNL     1       2.079   2.718  21.659  0.00  0.00    +0.000 C 
ENDBRANCH  19  20
ENDBRANCH  17  19
ENDBRANCH  16  17
ENDBRANCH  13  16
ENDBRANCH   1  13
TORSDOF 10
ENDMDL
MODEL 7
REMARK VINA RESULT:      -6.4      1.111      1.264
REMARK  Name = 
REMARK  12 active torsions:
REMARK  status: ('A' for Active; 'I' for Inactive)
REMARK    1  A    between atoms: C_1  and  C_2
REMARK    2  A    between atoms: C_2  and  C_3
REMARK    3  A    between atoms: C_3  and  C_4
REMARK    4  A    between atoms: C_4  and  O_6
REMARK    5  A    between atoms: O_6  and  P_7
REMARK    6  A    between atoms: P_7  and  C_10
REMARK    7  A    between atoms: C_10  and  P_13
REMARK    8  A    between atoms: P_13  and  O_16
REMARK    9  A    between atoms: O_16  and  C_17
REMARK   10  A    between atoms: C_17  and  C_19
REMARK   11  A    between atoms: C_19  and  C_20
REMARK   12  A    between atoms: C_20  and  C_21
REMARK                            x       y       z     vdW  Elec       q    Type
REMARK                         _______ _______ _______ _____ _____    ______ ____
ROOT
ATOM      1  C   UNL     1       6.584   6.046  18.016  0.00  0.00    +0.000 C 
ATOM      2 CL   UNL     1       7.090   5.422  19.598  0.00  0.00    +0.000 Cl
ATOM      3 CL   UNL     1       6.808   7.853  17.944  0.00  0.00    +0.000 Cl
ENDROOT
BRANCH   1   4
ATOM      4  P   UNL     1       7.115   5.205  16.480  0.00  0.00    +0.000 P 
ATOM      5  O   UNL     1       8.016   4.221  17.251  0.00  0.00    +0.000 OA
ATOM      6  O   UNL     1       7.789   6.468  15.888  0.00  0.00    +0.000 OA
BRANCH   4   7
ATOM      7  O   UNL     1       7.617   4.409  15.028  0.00  0.00    +0.000 OA
BRANCH   7   8
ATOM      8  C   UNL     1       7.022   4.726  13.866  0.00  0.00    +0.000 C 
ATOM      9  O   UNL     1       7.611   5.368  12.986  0.00  0.00    +0.000 OA
BRANCH   8  10
ATOM     10  C   UNL     1       5.855   3.812  13.548  0.00  0.00    +0.000 C 
BRANCH  10  12
ATOM     11  C   UNL     1       4.374   3.345  11.533  0.00  0.00    +0.000 C 
ATOM     12  C   UNL     1       5.729   3.144  12.185  0.00  0.00    +0.000 C 
ENDBRANCH  10  12
ENDBRANCH   8  10
ENDBRANCH   7   8
ENDBRANCH   4   7
ENDBRANCH   1   4
BRANCH   1  13
ATOM     13  P   UNL     1       4.540   5.908  17.908  0.00  0.00    +0.000 P 
ATOM     14  O   UNL     1       4.019   6.986  17.002  0.00  0.00    +0.000 OA
ATOM     15  O   UNL     1       4.276   4.417  17.660  0.00  0.00    +0.000 OA
BRANCH  13  16
ATOM     16  O   UNL     1       4.075   6.235  19.436  0.00  0.00    +0.000 OA
BRANCH  16  17
ATOM     17  C   UNL     1       2.769   6.320  19.756  0.00  0.00    +0.000 C 
ATOM     18  O   UNL     1       1.966   7.177  19.400  0.00  0.00    +0.000 OA
BRANCH  17  19
ATOM     19  C   UNL     1       2.265   5.121  20.541  0.00  0.00    +0.000 C 
BRANCH  19  20
ATOM     20  C   UNL     1       1.431   4.111  19.773  0.00  0.00    +0.000 C 
ATOM     21  C   UNL     1       1.062   2.897  20.608  0.00  0.00    +0.000 C 
ENDBRANCH  19  20
ENDBRANCH  17  19
ENDBRANCH  16  17
ENDBRANCH  13  16
ENDBRANCH   1  13
TORSDOF 10
ENDMDL
MODEL 8
REMARK VINA RESULT:      -6.4      1.261      1.399
REMARK  Name = 
REMARK  12 active torsions:
REMARK  status: ('A' for Active; 'I' for Inactive)
REMARK    1  A    between atoms: C_1  and  C_2
REMARK    2  A    between atoms: C_2  and  C_3
REMARK    3  A    between atoms: C_3  and  C_4
REMARK    4  A    between atoms: C_4  and  O_6
REMARK    5  A    between atoms: O_6  and  P_7
REMARK    6  A    between atoms: P_7  and  C_10
REMARK    7  A    between atoms: C_10  and  P_13
REMARK    8  A    between atoms: P_13  and  O_16
REMARK    9  A    between atoms: O_16  and  C_17
REMARK   10  A    between atoms: C_17  and  C_19
REMARK   11  A    between atoms: C_19  and  C_20
REMARK   12  A    between atoms: C_20  and  C_21
REMARK                            x       y       z     vdW  Elec       q    Type
REMARK                         _______ _______ _______ _____ _____    ______ ____
ROOT
ATOM      1  C   UNL     1       6.037   5.872  16.775  0.00  0.00    +0.000 C 
ATOM      2 CL   UNL     1       7.373   6.803  17.483  0.00  0.00    +0.000 Cl
ATOM      3 CL   UNL     1       4.610   6.957  16.449  0.00  0.00    +0.000 Cl
ENDROOT
BRANCH   1   4
ATOM      4  P   UNL     1       6.355   4.690  15.415  0.00  0.00    +0.000 P 
ATOM      5  O   UNL     1       7.714   5.338  15.081  0.00  0.00    +0.000 OA
ATOM      6  O   UNL     1       5.130   5.146  14.583  0.00  0.00    +0.000 OA
BRANCH   4   7
ATOM      7  O   UNL     1       6.657   3.573  14.129  0.00  0.00    +0.000 OA
BRANCH   7   8
ATOM      8  C   UNL     1       6.265   3.885  12.882  0.00  0.00    +0.000 C 
ATOM      9  O   UNL     1       7.077   4.208  12.005  0.00  0.00    +0.000 OA
BRANCH   8  10
ATOM     10  C   UNL     1       4.905   3.306  12.544  0.00  0.00    +0.000 C 
BRANCH  10  12
ATOM     11  C   UNL     1       3.416   3.667  10.514  0.00  0.00    +0.000 C 
ATOM     12  C   UNL     1       4.563   2.883  11.122  0.00  0.00    +0.000 C 
ENDBRANCH  10  12
ENDBRANCH   8  10
ENDBRANCH   7   8
ENDBRANCH   4   7
ENDBRANCH   1   4
BRANCH   1  13
ATOM     13  P   UNL     1       5.270   4.659  18.240  0.00  0.00    +0.000 P 
ATOM     14  O   UNL     1       4.304   3.689  17.623  0.00  0.00    +0.000 OA
ATOM     15  O   UNL     1       6.500   4.209  19.039  0.00  0.00    +0.000 OA
BRANCH  13  16
ATOM     16  O   UNL     1       4.439   5.704  19.177  0.00  0.00    +0.000 OA
BRANCH  16  17
ATOM     17  C   UNL     1       3.121   5.534  19.397  0.00  0.00    +0.000 C 
ATOM     18  O   UNL     1       2.189   5.958  18.722  0.00  0.00    +0.000 OA
BRANCH  17  19
ATOM     19  C   UNL     1       2.824   4.596  20.554  0.00  0.00    +0.000 C 
BRANCH  19  20
ATOM     20  C   UNL     1       1.936   3.403  20.248  0.00  0.00    +0.000 C 
ATOM     21  C   UNL     1       1.355   2.766  21.498  0.00  0.00    +0.000 C 
ENDBRANCH  19  20
ENDBRANCH  17  19
ENDBRANCH  16  17
ENDBRANCH  13  16
ENDBRANCH   1  13
TORSDOF 10
ENDMDL
MODEL 9
REMARK VINA RESULT:      -6.3      2.889      7.125
REMARK  Name = 
REMARK  12 active torsions:
REMARK  status: ('A' for Active; 'I' for Inactive)
REMARK    1  A    between atoms: C_1  and  C_2
REMARK    2  A    between atoms: C_2  and  C_3
REMARK    3  A    between atoms: C_3  and  C_4
REMARK    4  A    between atoms: C_4  and  O_6
REMARK    5  A    between atoms: O_6  and  P_7
REMARK    6  A    between atoms: P_7  and  C_10
REMARK    7  A    between atoms: C_10  and  P_13
REMARK    8  A    between atoms: P_13  and  O_16
REMARK    9  A    between atoms: O_16  and  C_17
REMARK   10  A    between atoms: C_17  and  C_19
REMARK   11  A    between atoms: C_19  and  C_20
REMARK   12  A    between atoms: C_20  and  C_21
REMARK                            x       y       z     vdW  Elec       q    Type
REMARK                         _______ _______ _______ _____ _____    ______ ____
ROOT
ATOM      1  C   UNL     1       4.507   4.987  17.934  0.00  0.00    +0.000 C 
ATOM      2 CL   UNL     1       5.457   4.193  19.206  0.00  0.00    +0.000 Cl
ATOM      3 CL   UNL     1       3.902   3.758  16.733  0.00  0.00    +0.000 Cl
ENDROOT
BRANCH   1   4
ATOM      4  P   UNL     1       3.242   6.234  18.371  0.00  0.00    +0.000 P 
ATOM      5  O   UNL     1       3.477   6.041  19.882  0.00  0.00    +0.000 OA
ATOM      6  O   UNL     1       2.077   5.440  17.729  0.00  0.00    +0.000 OA
BRANCH   4   7
ATOM      7  O   UNL     1       2.046   7.414  18.784  0.00  0.00    +0.000 OA
BRANCH   7   8
ATOM      8  C   UNL     1       2.079   8.619  18.191  0.00  0.00    +0.000 C 
ATOM      9  O   UNL     1       2.674   8.803  17.121  0.00  0.00    +0.000 OA
BRANCH   8  10
ATOM     10  C   UNL     1       0.941   9.513  18.640  0.00  0.00    +0.000 C 
BRANCH  10  12
ATOM     11  C   UNL     1       0.111  11.506  19.987  0.00  0.00    +0.000 C 
ATOM     12  C   UNL     1       1.197  10.946  19.087  0.00  0.00    +0.000 C 
ENDBRANCH  10  12
ENDBRANCH   8  10
ENDBRANCH   7   8
ENDBRANCH   4   7
ENDBRANCH   1   4
BRANCH   1  13
ATOM     13  P   UNL     1       5.800   6.064  16.762  0.00  0.00    +0.000 P 
ATOM     14  O   UNL     1       5.026   6.749  15.673  0.00  0.00    +0.000 OA
ATOM     15  O   UNL     1       6.671   6.830  17.768  0.00  0.00    +0.000 OA
BRANCH  13  16
ATOM     16  O   UNL     1       6.735   4.906  16.096  0.00  0.00    +0.000 OA
BRANCH  16  17
ATOM     17  C   UNL     1       6.978   4.895  14.770  0.00  0.00    +0.000 C 
ATOM     18  O   UNL     1       7.841   5.521  14.163  0.00  0.00    +0.000 OA
BRANCH  17  19
ATOM     19  C   UNL     1       6.142   3.875  14.017  0.00  0.00    +0.000 C 
BRANCH  19  20
ATOM     20  C   UNL     1       6.483   3.669  12.552  0.00  0.00    +0.000 C 
ATOM     21  C   UNL     1       5.473   2.793  11.831  0.00  0.00    +0.000 C 
ENDBRANCH  19  20
ENDBRANCH  17  19
ENDBRANCH  16  17
ENDBRANCH  13  16
ENDBRANCH   1  13
TORSDOF 10
ENDMDL
