MODEL 1
REMARK VINA RESULT:      -7.9      0.000      0.000
REMARK  Name = 
REMARK  14 active torsions:
REMARK  status: ('A' for Active; 'I' for Inactive)
REMARK    1  A    between atoms: C_1  and  C_2
REMARK    2  A    between atoms: C_2  and  O_3
REMARK    3  A    between atoms: O_3  and  C_4
REMARK    4  A    between atoms: C_4  and  C_6
REMARK    5  A    between atoms: C_8  and  C_9
REMARK    6  A    between atoms: C_12  and  C_13
REMARK    7  A    between atoms: N_18  and  C_19
REMARK    8  A    between atoms: C_19  and  C_20
REMARK    9  A    between atoms: C_20  and  N_21
REMARK   10  A    between atoms: N_21  and  C_22
REMARK   11  A    between atoms: N_21  and  C_24
REMARK   12  A    between atoms: C_22  and  C_23
REMARK   13  A    between atoms: C_24  and  C_25
REMARK   14  A    between atoms: C_31  and  C_32
REMARK                            x       y       z     vdW  Elec       q    Type
REMARK                         _______ _______ _______ _____ _____    ______ ____
ROOT
ATOM      1  C   UNL     1       4.814   4.819  16.769  0.00  0.00    +0.000 A 
ATOM      2  C   UNL     1       4.775   3.871  17.769  0.00  0.00    +0.000 A 
ATOM      3  S   UNL     1       3.813   4.430  19.067  0.00  0.00    +0.000 S 
ATOM      4  C   UNL     1       3.542   5.914  18.229  0.00  0.00    +0.000 A 
ATOM      5  N   UNL     1       4.112   5.985  17.037  0.00  0.00    +0.000 NA
ENDROOT
BRANCH   1   8
ATOM      6  C   UNL     1       5.816   3.848  13.234  0.00  0.00    +0.000 A 
ATOM      7  C   UNL     1       5.115   3.943  14.509  0.00  0.00    +0.000 A 
ATOM      8  C   UNL     1       5.536   4.710  15.534  0.00  0.00    +0.000 A 
ATOM      9  C   UNL     1       6.825   5.455  15.332  0.00  0.00    +0.000 A 
ATOM     10  O   UNL     1       7.315   6.203  16.172  0.00  0.00    +0.000 OA
ATOM     11  N   UNL     1       7.448   5.290  14.119  0.00  0.00    +0.000 N 
ATOM     12  C   UNL     1       6.978   4.518  13.076  0.00  0.00    +0.000 A 
ATOM     13  C   UNL     1       7.818   4.548  11.827  0.00  0.00    +0.000 C 
ATOM     14  H   UNL     1       8.310   5.816  14.015  0.00  0.00    +0.000 HD
BRANCH   6  15
ATOM     15  C   UNL     1       5.220   3.097  12.091  0.00  0.00    +0.000 C 
ATOM     16  O   UNL     1       5.632   2.038  11.638  0.00  0.00    +0.000 OA
BRANCH  15  17
ATOM     17  O   UNL     1       4.239   3.849  11.525  0.00  0.00    +0.000 OA
BRANCH  17  19
ATOM     18  C   UNL     1       2.932   4.182   9.565  0.00  0.00    +0.000 C 
ATOM     19  C   UNL     1       3.388   3.166  10.597  0.00  0.00    +0.000 C 
ENDBRANCH  17  19
ENDBRANCH  15  17
ENDBRANCH   6  15
ENDBRANCH   1   8
BRANCH   4  20
ATOM     20  C   UNL     1       2.689   6.966  18.806  0.00  0.00    +0.000 A 
ATOM     21  C   UNL     1       2.200   6.822  20.101  0.00  0.00    +0.000 A 
ATOM     22  C   UNL     1       1.421   7.834  20.629  0.00  0.00    +0.000 A 
ATOM     23  N   UNL     1       1.124   8.971  19.964  0.00  0.00    +0.000 NA
ATOM     24  C   UNL     1       1.611   9.128  18.717  0.00  0.00    +0.000 A 
ATOM     25  N   UNL     1       1.345  10.308  17.994  0.00  0.00    +0.000 N 
ATOM     26  C   UNL     1       2.355   8.127  18.095  0.00  0.00    +0.000 A 
ATOM     27  H   UNL     1       2.154  10.538  17.422  0.00  0.00    +0.000 HD
BRANCH  25  28
ATOM     28  C   UNL     1       1.031  11.456  18.855  0.00  0.00    +0.000 C 
BRANCH  28  29
ATOM     29  C   UNL     1      -0.137  12.316  18.295  0.00  0.00    +0.000 C 
BRANCH  29  30
ATOM     30  N   UNL     1      -1.435  12.244  19.026  0.00  0.00    +0.000 NA
BRANCH  30  31
ATOM     31  C   UNL     1      -2.314  11.170  18.540  0.00  0.00    +0.000 C 
ATOM     32  C   UNL     1      -2.224  10.831  17.054  0.00  0.00    +0.000 C 
ENDBRANCH  30  31
BRANCH  30  33
ATOM     33  C   UNL     1      -1.159  12.177  20.477  0.00  0.00    +0.000 C 
ATOM     34  C   UNL     1      -0.997  13.529  21.164  0.00  0.00    +0.000 C 
ENDBRANCH  30  33
ENDBRANCH  29  30
ENDBRANCH  28  29
ENDBRANCH  25  28
ENDBRANCH   4  20
TORSDOF 10
ENDMDL
MODEL 2
REMARK VINA RESULT:      -7.5      1.038      1.804
REMARK  Name = 
REMARK  14 active torsions:
REMARK  status: ('A' for Active; 'I' for Inactive)
REMARK    1  A    between atoms: C_1  and  C_2
REMARK    2  A    between atoms: C_2  and  O_3
REMARK    3  A    between atoms: O_3  and  C_4
REMARK    4  A    between atoms: C_4  and  C_6
REMARK    5  A    between atoms: C_8  and  C_9
REMARK    6  A    between atoms: C_12  and  C_13
REMARK    7  A    between atoms: N_18  and  C_19
REMARK    8  A    between atoms: C_19  and  C_20
REMARK    9  A    between atoms: C_20  and  N_21
REMARK   10  A    between atoms: N_21  and  C_22
REMARK   11  A    between atoms: N_21  and  C_24
REMARK   12  A    between atoms: C_22  and  C_23
REMARK   13  A    between atoms: C_24  and  C_25
REMARK   14  A    between atoms: C_31  and  C_32
REMARK                            x       y       z     vdW  Elec       q    Type
REMARK                         _______ _______ _______ _____ _____    ______ ____
ROOT
ATOM      1  C   UNL     1       4.869   5.078  16.722  0.00  0.00    +0.000 A 
ATOM      2  C   UNL     1       4.843   4.240  17.817  0.00  0.00    +0.000 A 
ATOM      3  S   UNL     1       3.883   4.924  19.054  0.00  0.00    +0.000 S 
ATOM      4  C   UNL     1       3.595   6.311  18.067  0.00  0.00    +0.000 A 
ATOM      5  N   UNL     1       4.158   6.261  16.871  0.00  0.00    +0.000 NA
ENDROOT
BRANCH   1   8
ATOM      6  C   UNL     1       5.814   3.825  13.261  0.00  0.00    +0.000 A 
ATOM      7  C   UNL     1       5.118   4.045  14.523  0.00  0.00    +0.000 A 
ATOM      8  C   UNL     1       5.584   4.846  15.501  0.00  0.00    +0.000 A 
ATOM      9  C   UNL     1       6.919   5.493  15.261  0.00  0.00    +0.000 A 
ATOM     10  O   UNL     1       7.455   6.260  16.055  0.00  0.00    +0.000 OA
ATOM     11  N   UNL     1       7.533   5.213  14.064  0.00  0.00    +0.000 N 
ATOM     12  C   UNL     1       7.017   4.409  13.068  0.00  0.00    +0.000 A 
ATOM     13  C   UNL     1       7.860   4.307  11.826  0.00  0.00    +0.000 C 
ATOM     14  H   UNL     1       8.427   5.676  13.932  0.00  0.00    +0.000 HD
BRANCH   6  15
ATOM     15  C   UNL     1       5.174   3.043  12.163  0.00  0.00    +0.000 C 
ATOM     16  O   UNL     1       5.623   2.026  11.654  0.00  0.00    +0.000 OA
BRANCH  15  17
ATOM     17  O   UNL     1       4.088   3.722  11.706  0.00  0.00    +0.000 OA
BRANCH  17  19
ATOM     18  C   UNL     1       3.062   4.218   9.618  0.00  0.00    +0.000 C 
ATOM     19  C   UNL     1       3.393   3.118  10.609  0.00  0.00    +0.000 C 
ENDBRANCH  17  19
ENDBRANCH  15  17
ENDBRANCH   6  15
ENDBRANCH   1   8
BRANCH   4  20
ATOM     20  C   UNL     1       2.737   7.410  18.536  0.00  0.00    +0.000 A 
ATOM     21  C   UNL     1       2.416   8.451  17.669  0.00  0.00    +0.000 A 
ATOM     22  C   UNL     1       1.589   9.459  18.126  0.00  0.00    +0.000 A 
ATOM     23  N   UNL     1       1.054   9.481  19.366  0.00  0.00    +0.000 NA
ATOM     24  C   UNL     1       1.343   8.467  20.205  0.00  0.00    +0.000 A 
ATOM     25  N   UNL     1       0.790   8.437  21.500  0.00  0.00    +0.000 N 
ATOM     26  C   UNL     1       2.215   7.444  19.837  0.00  0.00    +0.000 A 
ATOM     27  H   UNL     1       0.601   7.472  21.760  0.00  0.00    +0.000 HD
BRANCH  25  28
ATOM     28  C   UNL     1      -0.455   9.210  21.616  0.00  0.00    +0.000 C 
BRANCH  28  29
ATOM     29  C   UNL     1      -0.245  10.565  22.349  0.00  0.00    +0.000 C 
BRANCH  29  30
ATOM     30  N   UNL     1      -0.433  11.803  21.540  0.00  0.00    +0.000 NA
BRANCH  30  31
ATOM     31  C   UNL     1      -1.560  11.714  20.598  0.00  0.00    +0.000 C 
ATOM     32  C   UNL     1      -1.331  12.282  19.200  0.00  0.00    +0.000 C 
ENDBRANCH  30  31
BRANCH  30  33
ATOM     33  C   UNL     1      -0.511  12.961  22.455  0.00  0.00    +0.000 C 
ATOM     34  C   UNL     1       0.314  14.173  22.031  0.00  0.00    +0.000 C 
ENDBRANCH  30  33
ENDBRANCH  29  30
ENDBRANCH  28  29
ENDBRANCH  25  28
ENDBRANCH   4  20
TORSDOF 10
ENDMDL
MODEL 3
REMARK VINA RESULT:      -7.4      0.985      1.936
REMARK  Name = 
REMARK  14 active torsions:
REMARK  status: ('A' for Active; 'I' for Inactive)
REMARK    1  A    between atoms: C_1  and  C_2
REMARK    2  A    between atoms: C_2  and  O_3
REMARK    3  A    between atoms: O_3  and  C_4
REMARK    4  A    between atoms: C_4  and  C_6
REMARK    5  A    between atoms: C_8  and  C_9
REMARK    6  A    between atoms: C_12  and  C_13
REMARK    7  A    between atoms: N_18  and  C_19
REMARK    8  A    between atoms: C_19  and  C_20
REMARK    9  A    between atoms: C_20  and  N_21
REMARK   10  A    between atoms: N_21  and  C_22
REMARK   11  A    between atoms: N_21  and  C_24
REMARK   12  A    between atoms: C_22  and  C_23
REMARK   13  A    between atoms: C_24  and  C_25
REMARK   14  A    between atoms: C_31  and  C_32
REMARK                            x       y       z     vdW  Elec       q    Type
REMARK                         _______ _______ _______ _____ _____    ______ ____
ROOT
ATOM      1  C   UNL     1       4.790   5.116  17.070  0.00  0.00    +0.000 A 
ATOM      2  C   UNL     1       4.753   4.200  18.099  0.00  0.00    +0.000 A 
ATOM      3  S   UNL     1       3.739   4.766  19.352  0.00  0.00    +0.000 S 
ATOM      4  C   UNL     1       3.444   6.215  18.460  0.00  0.00    +0.000 A 
ATOM      5  N   UNL     1       4.044   6.267  17.283  0.00  0.00    +0.000 NA
ENDROOT
BRANCH   1   8
ATOM      6  C   UNL     1       5.871   4.151  13.557  0.00  0.00    +0.000 A 
ATOM      7  C   UNL     1       5.131   4.260  14.809  0.00  0.00    +0.000 A 
ATOM      8  C   UNL     1       5.548   4.993  15.859  0.00  0.00    +0.000 A 
ATOM      9  C   UNL     1       6.874   5.685  15.712  0.00  0.00    +0.000 A 
ATOM     10  O   UNL     1       7.367   6.400  16.579  0.00  0.00    +0.000 OA
ATOM     11  N   UNL     1       7.531   5.510  14.518  0.00  0.00    +0.000 N 
ATOM     12  C   UNL     1       7.065   4.773  13.448  0.00  0.00    +0.000 A 
ATOM     13  C   UNL     1       7.948   4.784  12.230  0.00  0.00    +0.000 C 
ATOM     14  H   UNL     1       8.417   6.000  14.451  0.00  0.00    +0.000 HD
BRANCH   6  15
ATOM     15  C   UNL     1       5.283   3.442  12.383  0.00  0.00    +0.000 C 
ATOM     16  O   UNL     1       4.497   3.922  11.578  0.00  0.00    +0.000 OA
BRANCH  15  17
ATOM     17  O   UNL     1       5.633   2.129  12.434  0.00  0.00    +0.000 OA
BRANCH  17  19
ATOM     18  C   UNL     1       7.419   1.708  10.920  0.00  0.00    +0.000 C 
ATOM     19  C   UNL     1       5.935   1.517  11.175  0.00  0.00    +0.000 C 
ENDBRANCH  17  19
ENDBRANCH  15  17
ENDBRANCH   6  15
ENDBRANCH   1   8
BRANCH   4  20
ATOM     20  C   UNL     1       2.542   7.255  18.981  0.00  0.00    +0.000 A 
ATOM     21  C   UNL     1       2.087   7.177  20.295  0.00  0.00    +0.000 A 
ATOM     22  C   UNL     1       1.261   8.179  20.766  0.00  0.00    +0.000 A 
ATOM     23  N   UNL     1       0.885   9.246  20.030  0.00  0.00    +0.000 NA
ATOM     24  C   UNL     1       1.338   9.340  18.764  0.00  0.00    +0.000 A 
ATOM     25  N   UNL     1       0.990  10.447  17.965  0.00  0.00    +0.000 N 
ATOM     26  C   UNL     1       2.127   8.341  18.197  0.00  0.00    +0.000 A 
ATOM     27  H   UNL     1       1.773  10.682  17.360  0.00  0.00    +0.000 HD
BRANCH  25  28
ATOM     28  C   UNL     1       0.626  11.635  18.750  0.00  0.00    +0.000 C 
BRANCH  28  29
ATOM     29  C   UNL     1      -0.788  12.173  18.390  0.00  0.00    +0.000 C 
BRANCH  29  30
ATOM     30  N   UNL     1      -1.938  11.595  19.142  0.00  0.00    +0.000 NA
BRANCH  30  31
ATOM     31  C   UNL     1      -2.476  12.503  20.166  0.00  0.00    +0.000 C 
ATOM     32  C   UNL     1      -1.805  12.465  21.536  0.00  0.00    +0.000 C 
ENDBRANCH  30  31
BRANCH  30  33
ATOM     33  C   UNL     1      -2.950  11.123  18.172  0.00  0.00    +0.000 C 
ATOM     34  C   UNL     1      -2.394  10.304  17.011  0.00  0.00    +0.000 C 
ENDBRANCH  30  33
ENDBRANCH  29  30
ENDBRANCH  28  29
ENDBRANCH  25  28
ENDBRANCH   4  20
TORSDOF 10
ENDMDL
MODEL 4
REMARK VINA RESULT:      -7.3      1.565      2.058
REMARK  Name = 
REMARK  14 active torsions:
REMARK  status: ('A' for Active; 'I' for Inactive)
REMARK    1  A    between atoms: C_1  and  C_2
REMARK    2  A    between atoms: C_2  and  O_3
REMARK    3  A    between atoms: O_3  and  C_4
REMARK    4  A    between atoms: C_4  and  C_6
REMARK    5  A    between atoms: C_8  and  C_9
REMARK    6  A    between atoms: C_12  and  C_13
REMARK    7  A    between atoms: N_18  and  C_19
REMARK    8  A    between atoms: C_19  and  C_20
REMARK    9  A    between atoms: C_20  and  N_21
REMARK   10  A    between atoms: N_21  and  C_22
REMARK   11  A    between atoms: N_21  and  C_24
REMARK   12  A    between atoms: C_22  and  C_23
REMARK   13  A    between atoms: C_24  and  C_25
REMARK   14  A    between atoms: C_31  and  C_32
REMARK                            x       y       z     vdW  Elec       q    Type
REMARK                         _______ _______ _______ _____ _____    ______ ____
ROOT
ATOM      1  C   UNL     1       4.482   5.071  17.011  0.00  0.00    +0.000 A 
ATOM      2  C   UNL     1       4.109   4.016  17.816  0.00  0.00    +0.000 A 
ATOM      3  S   UNL     1       3.012   4.552  19.012  0.00  0.00    +0.000 S 
ATOM      4  C   UNL     1       3.135   6.163  18.405  0.00  0.00    +0.000 A 
ATOM      5  N   UNL     1       3.927   6.296  17.354  0.00  0.00    +0.000 NA
ENDROOT
BRANCH   1   8
ATOM      6  C   UNL     1       6.110   4.165  13.699  0.00  0.00    +0.000 A 
ATOM      7  C   UNL     1       5.204   4.216  14.841  0.00  0.00    +0.000 A 
ATOM      8  C   UNL     1       5.402   5.008  15.913  0.00  0.00    +0.000 A 
ATOM      9  C   UNL     1       6.658   5.834  15.916  0.00  0.00    +0.000 A 
ATOM     10  O   UNL     1       6.955   6.612  16.817  0.00  0.00    +0.000 OA
ATOM     11  N   UNL     1       7.480   5.709  14.823  0.00  0.00    +0.000 N 
ATOM     12  C   UNL     1       7.237   4.908  13.726  0.00  0.00    +0.000 A 
ATOM     13  C   UNL     1       8.267   4.991  12.632  0.00  0.00    +0.000 C 
ATOM     14  H   UNL     1       8.312   6.288  14.856  0.00  0.00    +0.000 HD
BRANCH   6  15
ATOM     15  C   UNL     1       5.758   3.377  12.482  0.00  0.00    +0.000 C 
ATOM     16  O   UNL     1       6.545   2.762  11.775  0.00  0.00    +0.000 OA
BRANCH  15  17
ATOM     17  O   UNL     1       4.445   3.574  12.186  0.00  0.00    +0.000 OA
BRANCH  17  19
ATOM     18  C   UNL     1       3.214   3.928  10.181  0.00  0.00    +0.000 C 
ATOM     19  C   UNL     1       3.964   2.905  11.015  0.00  0.00    +0.000 C 
ENDBRANCH  17  19
ENDBRANCH  15  17
ENDBRANCH   6  15
ENDBRANCH   1   8
BRANCH   4  20
ATOM     20  C   UNL     1       2.356   7.260  19.004  0.00  0.00    +0.000 A 
ATOM     21  C   UNL     1       1.970   7.181  20.339  0.00  0.00    +0.000 A 
ATOM     22  C   UNL     1       1.261   8.234  20.883  0.00  0.00    +0.000 A 
ATOM     23  N   UNL     1       0.937   9.351  20.196  0.00  0.00    +0.000 NA
ATOM     24  C   UNL     1       1.326   9.444  18.909  0.00  0.00    +0.000 A 
ATOM     25  N   UNL     1       1.030  10.600  18.160  0.00  0.00    +0.000 N 
ATOM     26  C   UNL     1       1.993   8.400  18.273  0.00  0.00    +0.000 A 
ATOM     27  H   UNL     1       1.795  10.786  17.517  0.00  0.00    +0.000 HD
BRANCH  25  28
ATOM     28  C   UNL     1       0.814  11.790  18.994  0.00  0.00    +0.000 C 
BRANCH  28  29
ATOM     29  C   UNL     1       1.494  13.059  18.406  0.00  0.00    +0.000 C 
BRANCH  29  30
ATOM     30  N   UNL     1       1.845  14.141  19.369  0.00  0.00    +0.000 NA
BRANCH  30  31
ATOM     31  C   UNL     1       1.955  15.465  18.737  0.00  0.00    +0.000 C 
ATOM     32  C   UNL     1       3.199  15.719  17.891  0.00  0.00    +0.000 C 
ENDBRANCH  30  31
BRANCH  30  33
ATOM     33  C   UNL     1       0.893  14.097  20.500  0.00  0.00    +0.000 C 
ATOM     34  C   UNL     1       1.323  14.887  21.733  0.00  0.00    +0.000 C 
ENDBRANCH  30  33
ENDBRANCH  29  30
ENDBRANCH  28  29
ENDBRANCH  25  28
ENDBRANCH   4  20
TORSDOF 10
ENDMDL
MODEL 5
REMARK VINA RESULT:      -7.2      1.009      1.508
REMARK  Name = 
REMARK  14 active torsions:
REMARK  status: ('A' for Active; 'I' for Inactive)
REMARK    1  A    between atoms: C_1  and  C_2
REMARK    2  A    between atoms: C_2  and  O_3
REMARK    3  A    between atoms: O_3  and  C_4
REMARK    4  A    between atoms: C_4  and  C_6
REMARK    5  A    between atoms: C_8  and  C_9
REMARK    6  A    between atoms: C_12  and  C_13
REMARK    7  A    between atoms: N_18  and  C_19
REMARK    8  A    between atoms: C_19  and  C_20
REMARK    9  A    between atoms: C_20  and  N_21
REMARK   10  A    between atoms: N_21  and  C_22
REMARK   11  A    between atoms: N_21  and  C_24
REMARK   12  A    between atoms: C_22  and  C_23
REMARK   13  A    between atoms: C_24  and  C_25
REMARK   14  A    between atoms: C_31  and  C_32
REMARK                            x       y       z     vdW  Elec       q    Type
REMARK                         _______ _______ _______ _____ _____    ______ ____
ROOT
ATOM      1  C   UNL     1       4.854   4.883  16.887  0.00  0.00    +0.000 A 
ATOM      2  C   UNL     1       4.843   3.944  17.897  0.00  0.00    +0.000 A 
ATOM      3  S   UNL     1       3.873   4.491  19.194  0.00  0.00    +0.000 S 
ATOM      4  C   UNL     1       3.562   5.961  18.342  0.00  0.00    +0.000 A 
ATOM      5  N   UNL     1       4.125   6.034  17.148  0.00  0.00    +0.000 NA
ENDROOT
BRANCH   1   8
ATOM      6  C   UNL     1       5.835   3.950  13.336  0.00  0.00    +0.000 A 
ATOM      7  C   UNL     1       5.137   4.038  14.613  0.00  0.00    +0.000 A 
ATOM      8  C   UNL     1       5.573   4.780  15.650  0.00  0.00    +0.000 A 
ATOM      9  C   UNL     1       6.875   5.504  15.459  0.00  0.00    +0.000 A 
ATOM     10  O   UNL     1       7.380   6.230  16.309  0.00  0.00    +0.000 OA
ATOM     11  N   UNL     1       7.494   5.347  14.242  0.00  0.00    +0.000 N 
ATOM     12  C   UNL     1       7.009   4.601  13.188  0.00  0.00    +0.000 A 
ATOM     13  C   UNL     1       7.849   4.635  11.939  0.00  0.00    +0.000 C 
ATOM     14  H   UNL     1       8.365   5.859  14.146  0.00  0.00    +0.000 HD
BRANCH   6  15
ATOM     15  C   UNL     1       5.225   3.228  12.182  0.00  0.00    +0.000 C 
ATOM     16  O   UNL     1       4.437   3.704  11.377  0.00  0.00    +0.000 OA
BRANCH  15  17
ATOM     17  O   UNL     1       5.557   1.911  12.253  0.00  0.00    +0.000 OA
BRANCH  17  19
ATOM     18  C   UNL     1       6.195  -0.140  11.231  0.00  0.00    +0.000 C 
ATOM     19  C   UNL     1       6.212   1.372  11.099  0.00  0.00    +0.000 C 
ENDBRANCH  17  19
ENDBRANCH  15  17
ENDBRANCH   6  15
ENDBRANCH   1   8
BRANCH   4  20
ATOM     20  C   UNL     1       2.686   6.997  18.914  0.00  0.00    +0.000 A 
ATOM     21  C   UNL     1       2.240   6.874  20.227  0.00  0.00    +0.000 A 
ATOM     22  C   UNL     1       1.438   7.871  20.747  0.00  0.00    +0.000 A 
ATOM     23  N   UNL     1       1.078   8.975  20.058  0.00  0.00    +0.000 NA
ATOM     24  C   UNL     1       1.523   9.112  18.794  0.00  0.00    +0.000 A 
ATOM     25  N   UNL     1       1.190  10.259  18.044  0.00  0.00    +0.000 N 
ATOM     26  C   UNL     1       2.287   8.122  18.179  0.00  0.00    +0.000 A 
ATOM     27  H   UNL     1       1.973  10.502  17.443  0.00  0.00    +0.000 HD
BRANCH  25  28
ATOM     28  C   UNL     1       0.857  11.420  18.880  0.00  0.00    +0.000 C 
BRANCH  28  29
ATOM     29  C   UNL     1      -0.630  11.418  19.334  0.00  0.00    +0.000 C 
BRANCH  29  30
ATOM     30  N   UNL     1      -1.661  11.426  18.256  0.00  0.00    +0.000 NA
BRANCH  30  31
ATOM     31  C   UNL     1      -1.855  10.109  17.631  0.00  0.00    +0.000 C 
ATOM     32  C   UNL     1      -3.217   9.847  16.994  0.00  0.00    +0.000 C 
ENDBRANCH  30  31
BRANCH  30  33
ATOM     33  C   UNL     1      -2.904  12.020  18.793  0.00  0.00    +0.000 C 
ATOM     34  C   UNL     1      -2.793  12.570  20.212  0.00  0.00    +0.000 C 
ENDBRANCH  30  33
ENDBRANCH  29  30
ENDBRANCH  28  29
ENDBRANCH  25  28
ENDBRANCH   4  20
TORSDOF 10
ENDMDL
MODEL 6
REMARK VINA RESULT:      -7.2      1.068      1.174
REMARK  Name = 
REMARK  14 active torsions:
REMARK  status: ('A' for Active; 'I' for Inactive)
REMARK    1  A    between atoms: C_1  and  C_2
REMARK    2  A    between atoms: C_2  and  O_3
REMARK    3  A    between atoms: O_3  and  C_4
REMARK    4  A    between atoms: C_4  and  C_6
REMARK    5  A    between atoms: C_8  and  C_9
REMARK    6  A    between atoms: C_12  and  C_13
REMARK    7  A    between atoms: N_18  and  C_19
REMARK    8  A    between atoms: C_19  and  C_20
REMARK    9  A    between atoms: C_20  and  N_21
REMARK   10  A    between atoms: N_21  and  C_22
REMARK   11  A    between atoms: N_21  and  C_24
REMARK   12  A    between atoms: C_22  and  C_23
REMARK   13  A    between atoms: C_24  and  C_25
REMARK   14  A    between atoms: C_31  and  C_32
REMARK                            x       y       z     vdW  Elec       q    Type
REMARK                         _______ _______ _______ _____ _____    ______ ____
ROOT
ATOM      1  C   UNL     1       4.576   4.498  17.088  0.00  0.00    +0.000 A 
ATOM      2  C   UNL     1       4.307   3.339  17.784  0.00  0.00    +0.000 A 
ATOM      3  S   UNL     1       3.237   3.666  19.076  0.00  0.00    +0.000 S 
ATOM      4  C   UNL     1       3.231   5.339  18.648  0.00  0.00    +0.000 A 
ATOM      5  N   UNL     1       3.962   5.638  17.587  0.00  0.00    +0.000 NA
ENDROOT
BRANCH   1   8
ATOM      6  C   UNL     1       6.106   4.057  13.638  0.00  0.00    +0.000 A 
ATOM      7  C   UNL     1       5.254   3.923  14.813  0.00  0.00    +0.000 A 
ATOM      8  C   UNL     1       5.445   4.616  15.953  0.00  0.00    +0.000 A 
ATOM      9  C   UNL     1       6.636   5.532  15.993  0.00  0.00    +0.000 A 
ATOM     10  O   UNL     1       6.919   6.237  16.956  0.00  0.00    +0.000 OA
ATOM     11  N   UNL     1       7.413   5.581  14.861  0.00  0.00    +0.000 N 
ATOM     12  C   UNL     1       7.177   4.878  13.697  0.00  0.00    +0.000 A 
ATOM     13  C   UNL     1       8.145   5.149  12.577  0.00  0.00    +0.000 C 
ATOM     14  H   UNL     1       8.201   6.217  14.920  0.00  0.00    +0.000 HD
BRANCH   6  15
ATOM     15  C   UNL     1       5.755   3.370  12.360  0.00  0.00    +0.000 C 
ATOM     16  O   UNL     1       6.481   2.609  11.735  0.00  0.00    +0.000 OA
BRANCH  15  17
ATOM     17  O   UNL     1       4.561   3.841  11.914  0.00  0.00    +0.000 OA
BRANCH  17  19
ATOM     18  C   UNL     1       3.166   3.857   9.986  0.00  0.00    +0.000 C 
ATOM     19  C   UNL     1       3.846   2.978  11.021  0.00  0.00    +0.000 C 
ENDBRANCH  17  19
ENDBRANCH  15  17
ENDBRANCH   6  15
ENDBRANCH   1   8
BRANCH   4  20
ATOM     20  C   UNL     1       2.415   6.309  19.396  0.00  0.00    +0.000 A 
ATOM     21  C   UNL     1       1.813   5.927  20.592  0.00  0.00    +0.000 A 
ATOM     22  C   UNL     1       1.072   6.863  21.286  0.00  0.00    +0.000 A 
ATOM     23  N   UNL     1       0.915   8.141  20.880  0.00  0.00    +0.000 NA
ATOM     24  C   UNL     1       1.510   8.525  19.734  0.00  0.00    +0.000 A 
ATOM     25  N   UNL     1       1.391   9.855  19.283  0.00  0.00    +0.000 N 
ATOM     26  C   UNL     1       2.226   7.624  18.948  0.00  0.00    +0.000 A 
ATOM     27  H   UNL     1       2.259  10.132  18.830  0.00  0.00    +0.000 HD
BRANCH  25  28
ATOM     28  C   UNL     1       1.096  10.808  20.362  0.00  0.00    +0.000 C 
BRANCH  28  29
ATOM     29  C   UNL     1      -0.242  11.567  20.133  0.00  0.00    +0.000 C 
BRANCH  29  30
ATOM     30  N   UNL     1      -0.252  12.601  19.059  0.00  0.00    +0.000 NA
BRANCH  30  31
ATOM     31  C   UNL     1      -1.361  12.436  18.107  0.00  0.00    +0.000 C 
ATOM     32  C   UNL     1      -1.789  11.004  17.796  0.00  0.00    +0.000 C 
ENDBRANCH  30  31
BRANCH  30  33
ATOM     33  C   UNL     1      -0.200  13.938  19.688  0.00  0.00    +0.000 C 
ATOM     34  C   UNL     1      -0.204  15.109  18.710  0.00  0.00    +0.000 C 
ENDBRANCH  30  33
ENDBRANCH  29  30
ENDBRANCH  28  29
ENDBRANCH  25  28
ENDBRANCH   4  20
TORSDOF 10
ENDMDL
MODEL 7
REMARK VINA RESULT:      -7.1      1.661      2.431
REMARK  Name = 
REMARK  14 active torsions:
REMARK  status: ('A' for Active; 'I' for Inactive)
REMARK    1  A    between atoms: C_1  and  C_2
REMARK    2  A    between atoms: C_2  and  O_3
REMARK    3  A    between atoms: O_3  and  C_4
REMARK    4  A    between atoms: C_4  and  C_6
REMARK    5  A    between atoms: C_8  and  C_9
REMARK    6  A    between atoms: C_12  and  C_13
REMARK    7  A    between atoms: N_18  and  C_19
REMARK    8  A    between atoms: C_19  and  C_20
REMARK    9  A    between atoms: C_20  and  N_21
REMARK   10  A    between atoms: N_21  and  C_22
REMARK   11  A    between atoms: N_21  and  C_24
REMARK   12  A    between atoms: C_22  and  C_23
REMARK   13  A    between atoms: C_24  and  C_25
REMARK   14  A    between atoms: C_31  and  C_32
REMARK                            x       y       z     vdW  Elec       q    Type
REMARK                         _______ _______ _______ _____ _____    ______ ____
ROOT
ATOM      1  C   UNL     1       4.762   5.027  17.081  0.00  0.00    +0.000 A 
ATOM      2  C   UNL     1       4.696   4.079  18.080  0.00  0.00    +0.000 A 
ATOM      3  S   UNL     1       3.687   4.630  19.344  0.00  0.00    +0.000 S 
ATOM      4  C   UNL     1       3.434   6.113  18.497  0.00  0.00    +0.000 A 
ATOM      5  N   UNL     1       4.043   6.189  17.326  0.00  0.00    +0.000 NA
ENDROOT
BRANCH   1   8
ATOM      6  C   UNL     1       5.868   4.106  13.564  0.00  0.00    +0.000 A 
ATOM      7  C   UNL     1       5.122   4.194  14.814  0.00  0.00    +0.000 A 
ATOM      8  C   UNL     1       5.526   4.924  15.872  0.00  0.00    +0.000 A 
ATOM      9  C   UNL     1       6.844   5.635  15.735  0.00  0.00    +0.000 A 
ATOM     10  O   UNL     1       7.324   6.349  16.609  0.00  0.00    +0.000 OA
ATOM     11  N   UNL     1       7.507   5.478  14.541  0.00  0.00    +0.000 N 
ATOM     12  C   UNL     1       7.054   4.745  13.464  0.00  0.00    +0.000 A 
ATOM     13  C   UNL     1       7.940   4.777  12.249  0.00  0.00    +0.000 C 
ATOM     14  H   UNL     1       8.386   5.981  14.482  0.00  0.00    +0.000 HD
BRANCH   6  15
ATOM     15  C   UNL     1       5.293   3.399  12.382  0.00  0.00    +0.000 C 
ATOM     16  O   UNL     1       4.497   3.872  11.583  0.00  0.00    +0.000 OA
BRANCH  15  17
ATOM     17  O   UNL     1       5.669   2.093  12.418  0.00  0.00    +0.000 OA
BRANCH  17  19
ATOM     18  C   UNL     1       7.384   1.587  10.848  0.00  0.00    +0.000 C 
ATOM     19  C   UNL     1       5.900   1.477  11.145  0.00  0.00    +0.000 C 
ENDBRANCH  17  19
ENDBRANCH  15  17
ENDBRANCH   6  15
ENDBRANCH   1   8
BRANCH   4  20
ATOM     20  C   UNL     1       2.554   7.158  19.046  0.00  0.00    +0.000 A 
ATOM     21  C   UNL     1       2.046   7.025  20.335  0.00  0.00    +0.000 A 
ATOM     22  C   UNL     1       1.242   8.030  20.835  0.00  0.00    +0.000 A 
ATOM     23  N   UNL     1       0.937   9.152  20.149  0.00  0.00    +0.000 NA
ATOM     24  C   UNL     1       1.441   9.299  18.908  0.00  0.00    +0.000 A 
ATOM     25  N   UNL     1       1.166  10.464  18.163  0.00  0.00    +0.000 N 
ATOM     26  C   UNL     1       2.212   8.303  18.312  0.00  0.00    +0.000 A 
ATOM     27  H   UNL     1       1.981  10.700  17.601  0.00  0.00    +0.000 HD
BRANCH  25  28
ATOM     28  C   UNL     1       0.819  11.619  19.002  0.00  0.00    +0.000 C 
BRANCH  28  29
ATOM     29  C   UNL     1       1.346  12.959  18.415  0.00  0.00    +0.000 C 
BRANCH  29  30
ATOM     30  N   UNL     1       2.478  13.609  19.134  0.00  0.00    +0.000 NA
BRANCH  30  31
ATOM     31  C   UNL     1       2.639  15.031  18.794  0.00  0.00    +0.000 C 
ATOM     32  C   UNL     1       3.697  15.369  17.747  0.00  0.00    +0.000 C 
ENDBRANCH  30  31
BRANCH  30  33
ATOM     33  C   UNL     1       2.327  13.356  20.583  0.00  0.00    +0.000 C 
ATOM     34  C   UNL     1       1.754  14.522  21.383  0.00  0.00    +0.000 C 
ENDBRANCH  30  33
ENDBRANCH  29  30
ENDBRANCH  28  29
ENDBRANCH  25  28
ENDBRANCH   4  20
TORSDOF 10
ENDMDL
MODEL 8
REMARK VINA RESULT:      -7.1      1.144      1.744
REMARK  Name = 
REMARK  14 active torsions:
REMARK  status: ('A' for Active; 'I' for Inactive)
REMARK    1  A    between atoms: C_1  and  C_2
REMARK    2  A    between atoms: C_2  and  O_3
REMARK    3  A    between atoms: O_3  and  C_4
REMARK    4  A    between atoms: C_4  and  C_6
REMARK    5  A    between atoms: C_8  and  C_9
REMARK    6  A    between atoms: C_12  and  C_13
REMARK    7  A    between atoms: N_18  and  C_19
REMARK    8  A    between atoms: C_19  and  C_20
REMARK    9  A    between atoms: C_20  and  N_21
REMARK   10  A    between atoms: N_21  and  C_22
REMARK   11  A    between atoms: N_21  and  C_24
REMARK   12  A    between atoms: C_22  and  C_23
REMARK   13  A    between atoms: C_24  and  C_25
REMARK   14  A    between atoms: C_31  and  C_32
REMARK                            x       y       z     vdW  Elec       q    Type
REMARK                         _______ _______ _______ _____ _____    ______ ____
ROOT
ATOM      1  C   UNL     1       4.795   4.909  16.978  0.00  0.00    +0.000 A 
ATOM      2  C   UNL     1       4.705   3.933  17.948  0.00  0.00    +0.000 A 
ATOM      3  S   UNL     1       3.697   4.464  19.221  0.00  0.00    +0.000 S 
ATOM      4  C   UNL     1       3.475   5.976  18.417  0.00  0.00    +0.000 A 
ATOM      5  N   UNL     1       4.094   6.075  17.252  0.00  0.00    +0.000 NA
ENDROOT
BRANCH   1   8
ATOM      6  C   UNL     1       5.949   4.001  13.473  0.00  0.00    +0.000 A 
ATOM      7  C   UNL     1       5.198   4.068  14.721  0.00  0.00    +0.000 A 
ATOM      8  C   UNL     1       5.565   4.829  15.771  0.00  0.00    +0.000 A 
ATOM      9  C   UNL     1       6.847   5.599  15.628  0.00  0.00    +0.000 A 
ATOM     10  O   UNL     1       7.291   6.346  16.494  0.00  0.00    +0.000 OA
ATOM     11  N   UNL     1       7.519   5.461  14.437  0.00  0.00    +0.000 N 
ATOM     12  C   UNL     1       7.104   4.694  13.368  0.00  0.00    +0.000 A 
ATOM     13  C   UNL     1       7.990   4.754  12.154  0.00  0.00    +0.000 C 
ATOM     14  H   UNL     1       8.375   6.003  14.373  0.00  0.00    +0.000 HD
BRANCH   6  15
ATOM     15  C   UNL     1       5.411   3.253  12.299  0.00  0.00    +0.000 C 
ATOM     16  O   UNL     1       4.393   3.529  11.681  0.00  0.00    +0.000 OA
BRANCH  15  17
ATOM     17  O   UNL     1       6.144   2.123  12.116  0.00  0.00    +0.000 OA
BRANCH  17  19
ATOM     18  C   UNL     1       6.203  -0.119  11.321  0.00  0.00    +0.000 C 
ATOM     19  C   UNL     1       5.748   1.297  11.015  0.00  0.00    +0.000 C 
ENDBRANCH  17  19
ENDBRANCH  15  17
ENDBRANCH   6  15
ENDBRANCH   1   8
BRANCH   4  20
ATOM     20  C   UNL     1       2.610   7.020  18.990  0.00  0.00    +0.000 A 
ATOM     21  C   UNL     1       2.182   6.911  20.311  0.00  0.00    +0.000 A 
ATOM     22  C   UNL     1       1.390   7.915  20.832  0.00  0.00    +0.000 A 
ATOM     23  N   UNL     1       1.023   9.014  20.138  0.00  0.00    +0.000 NA
ATOM     24  C   UNL     1       1.450   9.137  18.865  0.00  0.00    +0.000 A 
ATOM     25  N   UNL     1       1.110  10.276  18.109  0.00  0.00    +0.000 N 
ATOM     26  C   UNL     1       2.203   8.139  18.250  0.00  0.00    +0.000 A 
ATOM     27  H   UNL     1       1.885  10.512  17.494  0.00  0.00    +0.000 HD
BRANCH  25  28
ATOM     28  C   UNL     1       0.791  11.447  18.938  0.00  0.00    +0.000 C 
BRANCH  28  29
ATOM     29  C   UNL     1      -0.715  11.514  19.317  0.00  0.00    +0.000 C 
BRANCH  29  30
ATOM     30  N   UNL     1      -1.400  12.823  19.119  0.00  0.00    +0.000 NA
BRANCH  30  31
ATOM     31  C   UNL     1      -2.295  13.182  20.230  0.00  0.00    +0.000 C 
ATOM     32  C   UNL     1      -2.098  12.424  21.540  0.00  0.00    +0.000 C 
ENDBRANCH  30  31
BRANCH  30  33
ATOM     33  C   UNL     1      -0.381  13.851  18.818  0.00  0.00    +0.000 C 
ATOM     34  C   UNL     1      -0.534  15.155  19.595  0.00  0.00    +0.000 C 
ENDBRANCH  30  33
ENDBRANCH  29  30
ENDBRANCH  28  29
ENDBRANCH  25  28
ENDBRANCH   4  20
TORSDOF 10
ENDMDL
MODEL 9
REMARK VINA RESULT:      -7.1      5.181     11.398
REMARK  Name = 
REMARK  14 active torsions:
REMARK  status: ('A' for Active; 'I' for Inactive)
REMARK    1  A    between atoms: C_1  and  C_2
REMARK    2  A    between atoms: C_2  and  O_3
REMARK    3  A    between atoms: O_3  and  C_4
REMARK    4  A    between atoms: C_4  and  C_6
REMARK    5  A    between atoms: C_8  and  C_9
REMARK    6  A    between atoms: C_12  and  C_13
REMARK    7  A    between atoms: N_18  and  C_19
REMARK    8  A    between atoms: C_19  and  C_20
REMARK    9  A    between atoms: C_20  and  N_21
REMARK   10  A    between atoms: N_21  and  C_22
REMARK   11  A    between atoms: N_21  and  C_24
REMARK   12  A    between atoms: C_22  and  C_23
REMARK   13  A    between atoms: C_24  and  C_25
REMARK   14  A    between atoms: C_31  and  C_32
REMARK                            x       y       z     vdW  Elec       q    Type
REMARK                         _______ _______ _______ _____ _____    ______ ____
ROOT
ATOM      1  C   UNL     1      -1.119  11.394  18.527  0.00  0.00    +0.000 A 
ATOM      2  C   UNL     1      -0.116  12.340  18.521  0.00  0.00    +0.000 A 
ATOM      3  S   UNL     1       1.392  11.595  18.823  0.00  0.00    +0.000 S 
ATOM      4  C   UNL     1       0.606  10.066  18.981  0.00  0.00    +0.000 A 
ATOM      5  N   UNL     1      -0.703  10.098  18.794  0.00  0.00    +0.000 NA
ENDROOT
BRANCH   1   8
ATOM      6  C   UNL     1      -4.760  12.293  19.143  0.00  0.00    +0.000 A 
ATOM      7  C   UNL     1      -3.345  11.996  19.332  0.00  0.00    +0.000 A 
ATOM      8  C   UNL     1      -2.517  11.648  18.328  0.00  0.00    +0.000 A 
ATOM      9  C   UNL     1      -3.131  11.525  16.962  0.00  0.00    +0.000 A 
ATOM     10  O   UNL     1      -2.493  11.236  15.954  0.00  0.00    +0.000 OA
ATOM     11  N   UNL     1      -4.476  11.786  16.865  0.00  0.00    +0.000 N 
ATOM     12  C   UNL     1      -5.295  12.167  17.909  0.00  0.00    +0.000 A 
ATOM     13  C   UNL     1      -6.724  12.450  17.532  0.00  0.00    +0.000 C 
ATOM     14  H   UNL     1      -4.853  11.703  15.927  0.00  0.00    +0.000 HD
BRANCH   6  15
ATOM     15  C   UNL     1      -5.588  12.812  20.271  0.00  0.00    +0.000 C 
ATOM     16  O   UNL     1      -5.663  13.981  20.624  0.00  0.00    +0.000 OA
BRANCH  15  17
ATOM     17  O   UNL     1      -6.126  11.764  20.949  0.00  0.00    +0.000 OA
BRANCH  17  19
ATOM     18  C   UNL     1      -7.755  12.005  22.667  0.00  0.00    +0.000 C 
ATOM     19  C   UNL     1      -7.539  11.829  21.175  0.00  0.00    +0.000 C 
ENDBRANCH  17  19
ENDBRANCH  15  17
ENDBRANCH   6  15
ENDBRANCH   1   8
BRANCH   4  20
ATOM     20  C   UNL     1       1.379   8.840  19.243  0.00  0.00    +0.000 A 
ATOM     21  C   UNL     1       1.300   8.231  20.493  0.00  0.00    +0.000 A 
ATOM     22  C   UNL     1       2.015   7.069  20.707  0.00  0.00    +0.000 A 
ATOM     23  N   UNL     1       2.774   6.475  19.761  0.00  0.00    +0.000 NA
ATOM     24  C   UNL     1       2.840   7.047  18.542  0.00  0.00    +0.000 A 
ATOM     25  N   UNL     1       3.602   6.450  17.518  0.00  0.00    +0.000 N 
ATOM     26  C   UNL     1       2.193   8.250  18.267  0.00  0.00    +0.000 A 
ATOM     27  H   UNL     1       3.137   6.600  16.626  0.00  0.00    +0.000 HD
BRANCH  25  28
ATOM     28  C   UNL     1       3.801   5.007  17.711  0.00  0.00    +0.000 C 
BRANCH  28  29
ATOM     29  C   UNL     1       4.636   4.366  16.567  0.00  0.00    +0.000 C 
BRANCH  29  30
ATOM     30  N   UNL     1       6.118   4.370  16.733  0.00  0.00    +0.000 NA
BRANCH  30  31
ATOM     31  C   UNL     1       6.801   5.292  15.813  0.00  0.00    +0.000 C 
ATOM     32  C   UNL     1       6.899   4.855  14.354  0.00  0.00    +0.000 C 
ENDBRANCH  30  31
BRANCH  30  33
ATOM     33  C   UNL     1       6.435   4.606  18.158  0.00  0.00    +0.000 C 
ATOM     34  C   UNL     1       7.504   5.664  18.412  0.00  0.00    +0.000 C 
ENDBRANCH  30  33
ENDBRANCH  29  30
ENDBRANCH  28  29
ENDBRANCH  25  28
ENDBRANCH   4  20
TORSDOF 10
ENDMDL
