MODEL 1
REMARK VINA RESULT:      -6.0      0.000      0.000
REMARK  Name = 
REMARK  15 active torsions:
REMARK  status: ('A' for Active; 'I' for Inactive)
REMARK    1  A    between atoms: C_1  and  C_2
REMARK    2  A    between atoms: C_2  and  C_3
REMARK    3  A    between atoms: C_4  and  C_5
REMARK    4  A    between atoms: C_5  and  C_6
REMARK    5  A    between atoms: C_6  and  C_7
REMARK    6  A    between atoms: C_7  and  C_8
REMARK    7  A    between atoms: C_7  and  C_9
REMARK    8  A    between atoms: C_9  and  C_10
REMARK    9  A    between atoms: C_10  and  O_11
REMARK   10  A    between atoms: O_11  and  P_12
REMARK   11  A    between atoms: P_12  and  O_14
REMARK   12  A    between atoms: P_12  and  C_15
REMARK   13  A    between atoms: C_15  and  P_16
REMARK   14  A    between atoms: P_16  and  O_18
REMARK   15  A    between atoms: P_16  and  O_19
REMARK                            x       y       z     vdW  Elec       q    Type
REMARK                         _______ _______ _______ _____ _____    ______ ____
ROOT
ATOM      1  O   UNL     1       5.304   3.131  19.646  0.00  0.00    +0.000 OA
ENDROOT
BRANCH   1   2
ATOM      2  P   UNL     1       5.193   4.533  18.639  0.00  0.00    +0.000 P 
ATOM      3  O   UNL     1       6.390   5.168  19.349  0.00  0.00    +0.000 OA
BRANCH   2   4
ATOM      4  O   UNL     1       5.888   3.637  17.452  0.00  0.00    +0.000 OA
ATOM      5  H   UNL     1       5.355   3.757  16.638  0.00  0.00    +0.000 HD
ENDBRANCH   2   4
BRANCH   2   6
ATOM      6  C   UNL     1       5.073   6.016  17.574  0.00  0.00    +0.000 C 
BRANCH   6   7
ATOM      7  P   UNL     1       5.879   5.678  15.965  0.00  0.00    +0.000 P 
ATOM      8  O   UNL     1       5.222   6.912  15.333  0.00  0.00    +0.000 OA
BRANCH   7   9
ATOM      9  O   UNL     1       7.308   6.258  16.519  0.00  0.00    +0.000 OA
ATOM     10  H   UNL     1       7.743   5.609  17.097  0.00  0.00    +0.000 HD
ENDBRANCH   7   9
BRANCH   7  11
ATOM     11  O   UNL     1       6.640   5.359  14.446  0.00  0.00    +0.000 OA
ATOM     12  H   UNL     1       7.452   5.906  14.457  0.00  0.00    +0.000 HD
ENDBRANCH   7  11
ENDBRANCH   6   7
ENDBRANCH   2   6
ENDBRANCH   1   2
BRANCH   1  13
ATOM     13  C   UNL     1       4.033   2.535  19.873  0.00  0.00    +0.000 C 
BRANCH  13  14
ATOM     14  C   UNL     1       2.890   3.364  19.286  0.00  0.00    +0.000 C 
BRANCH  14  15
ATOM     15  C   UNL     1       1.655   3.340  20.223  0.00  0.00    +0.000 C 
ATOM     16  C   UNL     1       2.009   2.664  21.555  0.00  0.00    +0.000 C 
BRANCH  15  17
ATOM     17  C   UNL     1       1.079   4.759  20.435  0.00  0.00    +0.000 C 
BRANCH  17  18
ATOM     18  C   UNL     1       2.189   5.797  20.660  0.00  0.00    +0.000 C 
BRANCH  18  22
ATOM     19  C   UNL     1       1.498   9.243  18.991  0.00  0.00    +0.000 C 
ATOM     20  C   UNL     1       1.560   8.148  20.024  0.00  0.00    +0.000 C 
ATOM     21  C   UNL     1       1.006   8.451  21.381  0.00  0.00    +0.000 C 
ATOM     22  C   UNL     1       2.129   6.957  19.713  0.00  0.00    +0.000 C 
ENDBRANCH  18  22
ENDBRANCH  17  18
ENDBRANCH  15  17
ENDBRANCH  14  15
ENDBRANCH  13  14
ENDBRANCH   1  13
TORSDOF 12
ENDMDL
MODEL 2
REMARK VINA RESULT:      -5.8      1.465      1.805
REMARK  Name = 
REMARK  15 active torsions:
REMARK  status: ('A' for Active; 'I' for Inactive)
REMARK    1  A    between atoms: C_1  and  C_2
REMARK    2  A    between atoms: C_2  and  C_3
REMARK    3  A    between atoms: C_4  and  C_5
REMARK    4  A    between atoms: C_5  and  C_6
REMARK    5  A    between atoms: C_6  and  C_7
REMARK    6  A    between atoms: C_7  and  C_8
REMARK    7  A    between atoms: C_7  and  C_9
REMARK    8  A    between atoms: C_9  and  C_10
REMARK    9  A    between atoms: C_10  and  O_11
REMARK   10  A    between atoms: O_11  and  P_12
REMARK   11  A    between atoms: P_12  and  O_14
REMARK   12  A    between atoms: P_12  and  C_15
REMARK   13  A    between atoms: C_15  and  P_16
REMARK   14  A    between atoms: P_16  and  O_18
REMARK   15  A    between atoms: P_16  and  O_19
REMARK                            x       y       z     vdW  Elec       q    Type
REMARK                         _______ _______ _______ _____ _____    ______ ____
ROOT
ATOM      1  O   UNL     1       5.537   3.646  19.478  0.00  0.00    +0.000 OA
ENDROOT
BRANCH   1   2
ATOM      2  P   UNL     1       5.725   4.627  18.065  0.00  0.00    +0.000 P 
ATOM      3  O   UNL     1       5.680   5.900  18.914  0.00  0.00    +0.000 OA
BRANCH   2   4
ATOM      4  O   UNL     1       7.314   4.214  18.088  0.00  0.00    +0.000 OA
ATOM      5  H   UNL     1       7.835   5.036  17.973  0.00  0.00    +0.000 HD
ENDBRANCH   2   4
BRANCH   2   6
ATOM      6  C   UNL     1       5.922   5.664  16.571  0.00  0.00    +0.000 C 
BRANCH   6   7
ATOM      7  P   UNL     1       6.155   4.587  15.109  0.00  0.00    +0.000 P 
ATOM      8  O   UNL     1       7.679   4.753  15.182  0.00  0.00    +0.000 OA
BRANCH   7   9
ATOM      9  O   UNL     1       5.881   3.246  16.009  0.00  0.00    +0.000 OA
ATOM     10  H   UNL     1       6.370   2.485  15.653  0.00  0.00    +0.000 HD
ENDBRANCH   7   9
BRANCH   7  11
ATOM     11  O   UNL     1       6.376   3.570  13.728  0.00  0.00    +0.000 OA
ATOM     12  H   UNL     1       5.512   3.590  13.267  0.00  0.00    +0.000 HD
ENDBRANCH   7  11
ENDBRANCH   6   7
ENDBRANCH   2   6
ENDBRANCH   1   2
BRANCH   1  13
ATOM     13  C   UNL     1       4.525   2.662  19.312  0.00  0.00    +0.000 C 
BRANCH  13  14
ATOM     14  C   UNL     1       3.784   2.364  20.615  0.00  0.00    +0.000 C 
BRANCH  14  15
ATOM     15  C   UNL     1       2.331   2.900  20.557  0.00  0.00    +0.000 C 
ATOM     16  C   UNL     1       1.558   2.484  21.816  0.00  0.00    +0.000 C 
BRANCH  15  17
ATOM     17  C   UNL     1       2.302   4.432  20.347  0.00  0.00    +0.000 C 
BRANCH  17  18
ATOM     18  C   UNL     1       1.540   4.818  19.070  0.00  0.00    +0.000 C 
BRANCH  18  22
ATOM     19  C   UNL     1       3.089   8.101  17.669  0.00  0.00    +0.000 C 
ATOM     20  C   UNL     1       2.405   7.133  18.599  0.00  0.00    +0.000 C 
ATOM     21  C   UNL     1       1.953   7.657  19.926  0.00  0.00    +0.000 C 
ATOM     22  C   UNL     1       2.251   5.837  18.231  0.00  0.00    +0.000 C 
ENDBRANCH  18  22
ENDBRANCH  17  18
ENDBRANCH  15  17
ENDBRANCH  14  15
ENDBRANCH  13  14
ENDBRANCH   1  13
TORSDOF 12
ENDMDL
MODEL 3
REMARK VINA RESULT:      -5.8      1.053      1.440
REMARK  Name = 
REMARK  15 active torsions:
REMARK  status: ('A' for Active; 'I' for Inactive)
REMARK    1  A    between atoms: C_1  and  C_2
REMARK    2  A    between atoms: C_2  and  C_3
REMARK    3  A    between atoms: C_4  and  C_5
REMARK    4  A    between atoms: C_5  and  C_6
REMARK    5  A    between atoms: C_6  and  C_7
REMARK    6  A    between atoms: C_7  and  C_8
REMARK    7  A    between atoms: C_7  and  C_9
REMARK    8  A    between atoms: C_9  and  C_10
REMARK    9  A    between atoms: C_10  and  O_11
REMARK   10  A    between atoms: O_11  and  P_12
REMARK   11  A    between atoms: P_12  and  O_14
REMARK   12  A    between atoms: P_12  and  C_15
REMARK   13  A    between atoms: C_15  and  P_16
REMARK   14  A    between atoms: P_16  and  O_18
REMARK   15  A    between atoms: P_16  and  O_19
REMARK                            x       y       z     vdW  Elec       q    Type
REMARK                         _______ _______ _______ _____ _____    ______ ____
ROOT
ATOM      1  O   UNL     1       4.206   2.593  18.902  0.00  0.00    +0.000 OA
ENDROOT
BRANCH   1   2
ATOM      2  P   UNL     1       4.806   4.145  18.429  0.00  0.00    +0.000 P 
ATOM      3  O   UNL     1       5.969   4.024  19.417  0.00  0.00    +0.000 OA
BRANCH   2   4
ATOM      4  O   UNL     1       5.384   3.419  17.074  0.00  0.00    +0.000 OA
ATOM      5  H   UNL     1       4.682   3.465  16.391  0.00  0.00    +0.000 HD
ENDBRANCH   2   4
BRANCH   2   6
ATOM      6  C   UNL     1       5.440   5.787  17.928  0.00  0.00    +0.000 C 
BRANCH   6   7
ATOM      7  P   UNL     1       6.572   5.595  16.503  0.00  0.00    +0.000 P 
ATOM      8  O   UNL     1       6.892   7.096  16.505  0.00  0.00    +0.000 OA
BRANCH   7   9
ATOM      9  O   UNL     1       7.736   4.964  17.467  0.00  0.00    +0.000 OA
ATOM     10  H   UNL     1       8.248   5.669  17.898  0.00  0.00    +0.000 HD
ENDBRANCH   7   9
BRANCH   7  11
ATOM     11  O   UNL     1       7.642   5.414  15.156  0.00  0.00    +0.000 OA
ATOM     12  H   UNL     1       7.052   5.239  14.395  0.00  0.00    +0.000 HD
ENDBRANCH   7  11
ENDBRANCH   6   7
ENDBRANCH   2   6
ENDBRANCH   1   2
BRANCH   1  13
ATOM     13  C   UNL     1       2.787   2.528  18.835  0.00  0.00    +0.000 C 
BRANCH  13  14
ATOM     14  C   UNL     1       2.135   3.905  18.960  0.00  0.00    +0.000 C 
BRANCH  14  15
ATOM     15  C   UNL     1       1.304   4.004  20.264  0.00  0.00    +0.000 C 
ATOM     16  C   UNL     1       1.942   3.152  21.370  0.00  0.00    +0.000 C 
BRANCH  15  17
ATOM     17  C   UNL     1       1.121   5.474  20.707  0.00  0.00    +0.000 C 
BRANCH  17  18
ATOM     18  C   UNL     1       2.236   6.377  20.160  0.00  0.00    +0.000 C 
BRANCH  18  22
ATOM     19  C   UNL     1       1.512   9.941  18.776  0.00  0.00    +0.000 C 
ATOM     20  C   UNL     1       1.896   8.485  18.830  0.00  0.00    +0.000 C 
ATOM     21  C   UNL     1       2.311   7.835  17.547  0.00  0.00    +0.000 C 
ATOM     22  C   UNL     1       1.827   7.812  20.004  0.00  0.00    +0.000 C 
ENDBRANCH  18  22
ENDBRANCH  17  18
ENDBRANCH  15  17
ENDBRANCH  14  15
ENDBRANCH  13  14
ENDBRANCH   1  13
TORSDOF 12
ENDMDL
MODEL 4
REMARK VINA RESULT:      -5.8      1.674      2.258
REMARK  Name = 
REMARK  15 active torsions:
REMARK  status: ('A' for Active; 'I' for Inactive)
REMARK    1  A    between atoms: C_1  and  C_2
REMARK    2  A    between atoms: C_2  and  C_3
REMARK    3  A    between atoms: C_4  and  C_5
REMARK    4  A    between atoms: C_5  and  C_6
REMARK    5  A    between atoms: C_6  and  C_7
REMARK    6  A    between atoms: C_7  and  C_8
REMARK    7  A    between atoms: C_7  and  C_9
REMARK    8  A    between atoms: C_9  and  C_10
REMARK    9  A    between atoms: C_10  and  O_11
REMARK   10  A    between atoms: O_11  and  P_12
REMARK   11  A    between atoms: P_12  and  O_14
REMARK   12  A    between atoms: P_12  and  C_15
REMARK   13  A    between atoms: C_15  and  P_16
REMARK   14  A    between atoms: P_16  and  O_18
REMARK   15  A    between atoms: P_16  and  O_19
REMARK                            x       y       z     vdW  Elec       q    Type
REMARK                         _______ _______ _______ _____ _____    ______ ____
ROOT
ATOM      1  O   UNL     1       5.805   3.834  19.288  0.00  0.00    +0.000 OA
ENDROOT
BRANCH   1   2
ATOM      2  P   UNL     1       6.410   4.724  17.933  0.00  0.00    +0.000 P 
ATOM      3  O   UNL     1       6.509   5.994  18.780  0.00  0.00    +0.000 OA
BRANCH   2   4
ATOM      4  O   UNL     1       7.851   3.983  18.192  0.00  0.00    +0.000 OA
ATOM      5  H   UNL     1       8.222   3.742  17.316  0.00  0.00    +0.000 HD
ENDBRANCH   2   4
BRANCH   2   6
ATOM      6  C   UNL     1       7.047   5.664  16.499  0.00  0.00    +0.000 C 
BRANCH   6   7
ATOM      7  P   UNL     1       6.566   4.814  14.950  0.00  0.00    +0.000 P 
ATOM      8  O   UNL     1       6.126   3.566  15.727  0.00  0.00    +0.000 OA
BRANCH   7   9
ATOM      9  O   UNL     1       5.191   5.697  14.850  0.00  0.00    +0.000 OA
ATOM     10  H   UNL     1       5.234   6.472  15.436  0.00  0.00    +0.000 HD
ENDBRANCH   7   9
BRANCH   7  11
ATOM     11  O   UNL     1       6.112   4.009  13.488  0.00  0.00    +0.000 OA
ATOM     12  H   UNL     1       5.801   4.727  12.899  0.00  0.00    +0.000 HD
ENDBRANCH   7  11
ENDBRANCH   6   7
ENDBRANCH   2   6
ENDBRANCH   1   2
BRANCH   1  13
ATOM     13  C   UNL     1       4.634   3.096  18.961  0.00  0.00    +0.000 C 
BRANCH  13  14
ATOM     14  C   UNL     1       3.834   2.697  20.201  0.00  0.00    +0.000 C 
BRANCH  14  15
ATOM     15  C   UNL     1       2.391   2.282  19.814  0.00  0.00    +0.000 C 
ATOM     16  C   UNL     1       1.380   2.899  20.790  0.00  0.00    +0.000 C 
BRANCH  15  17
ATOM     17  C   UNL     1       2.071   2.651  18.347  0.00  0.00    +0.000 C 
BRANCH  17  18
ATOM     18  C   UNL     1       1.333   3.994  18.245  0.00  0.00    +0.000 C 
BRANCH  18  22
ATOM     19  C   UNL     1       3.381   7.273  17.806  0.00  0.00    +0.000 C 
ATOM     20  C   UNL     1       2.573   6.173  18.445  0.00  0.00    +0.000 C 
ATOM     21  C   UNL     1       2.269   6.303  19.905  0.00  0.00    +0.000 C 
ATOM     22  C   UNL     1       2.179   5.108  17.705  0.00  0.00    +0.000 C 
ENDBRANCH  18  22
ENDBRANCH  17  18
ENDBRANCH  15  17
ENDBRANCH  14  15
ENDBRANCH  13  14
ENDBRANCH   1  13
TORSDOF 12
ENDMDL
MODEL 5
REMARK VINA RESULT:      -5.7      1.258      1.777
REMARK  Name = 
REMARK  15 active torsions:
REMARK  status: ('A' for Active; 'I' for Inactive)
REMARK    1  A    between atoms: C_1  and  C_2
REMARK    2  A    between atoms: C_2  and  C_3
REMARK    3  A    between atoms: C_4  and  C_5
REMARK    4  A    between atoms: C_5  and  C_6
REMARK    5  A    between atoms: C_6  and  C_7
REMARK    6  A    between atoms: C_7  and  C_8
REMARK    7  A    between atoms: C_7  and  C_9
REMARK    8  A    between atoms: C_9  and  C_10
REMARK    9  A    between atoms: C_10  and  O_11
REMARK   10  A    between atoms: O_11  and  P_12
REMARK   11  A    between atoms: P_12  and  O_14
REMARK   12  A    between atoms: P_12  and  C_15
REMARK   13  A    between atoms: C_15  and  P_16
REMARK   14  A    between atoms: P_16  and  O_18
REMARK   15  A    between atoms: P_16  and  O_19
REMARK                            x       y       z     vdW  Elec       q    Type
REMARK                         _______ _______ _______ _____ _____    ______ ____
ROOT
ATOM      1  O   UNL     1       5.303   3.280  19.586  0.00  0.00    +0.000 OA
ENDROOT
BRANCH   1   2
ATOM      2  P   UNL     1       5.610   4.579  18.485  0.00  0.00    +0.000 P 
ATOM      3  O   UNL     1       5.714   5.571  19.647  0.00  0.00    +0.000 OA
BRANCH   2   4
ATOM      4  O   UNL     1       7.138   3.996  18.348  0.00  0.00    +0.000 OA
ATOM      5  H   UNL     1       7.750   4.761  18.369  0.00  0.00    +0.000 HD
ENDBRANCH   2   4
BRANCH   2   6
ATOM      6  C   UNL     1       5.932   5.953  17.321  0.00  0.00    +0.000 C 
BRANCH   6   7
ATOM      7  P   UNL     1       5.968   5.304  15.609  0.00  0.00    +0.000 P 
ATOM      8  O   UNL     1       5.430   6.630  15.054  0.00  0.00    +0.000 OA
BRANCH   7   9
ATOM      9  O   UNL     1       7.593   5.499  15.532  0.00  0.00    +0.000 OA
ATOM     10  H   UNL     1       8.049   4.649  15.654  0.00  0.00    +0.000 HD
ENDBRANCH   7   9
BRANCH   7  11
ATOM     11  O   UNL     1       6.002   4.693  13.992  0.00  0.00    +0.000 OA
ATOM     12  H   UNL     1       5.066   4.494  13.784  0.00  0.00    +0.000 HD
ENDBRANCH   7  11
ENDBRANCH   6   7
ENDBRANCH   2   6
ENDBRANCH   1   2
BRANCH   1  13
ATOM     13  C   UNL     1       4.200   2.483  19.175  0.00  0.00    +0.000 C 
BRANCH  13  14
ATOM     14  C   UNL     1       3.603   2.956  17.850  0.00  0.00    +0.000 C 
BRANCH  14  15
ATOM     15  C   UNL     1       2.055   2.886  17.888  0.00  0.00    +0.000 C 
ATOM     16  C   UNL     1       1.584   2.153  19.151  0.00  0.00    +0.000 C 
BRANCH  15  17
ATOM     17  C   UNL     1       1.423   4.293  17.773  0.00  0.00    +0.000 C 
BRANCH  17  18
ATOM     18  C   UNL     1       2.484   5.401  17.839  0.00  0.00    +0.000 C 
BRANCH  18  22
ATOM     19  C   UNL     1       1.509   7.724  20.805  0.00  0.00    +0.000 C 
ATOM     20  C   UNL     1       1.970   6.513  20.036  0.00  0.00    +0.000 C 
ATOM     21  C   UNL     1       2.321   5.291  20.826  0.00  0.00    +0.000 C 
ATOM     22  C   UNL     1       2.081   6.571  18.687  0.00  0.00    +0.000 C 
ENDBRANCH  18  22
ENDBRANCH  17  18
ENDBRANCH  15  17
ENDBRANCH  14  15
ENDBRANCH  13  14
ENDBRANCH   1  13
TORSDOF 12
ENDMDL
MODEL 6
REMARK VINA RESULT:      -5.7      1.920      3.659
REMARK  Name = 
REMARK  15 active torsions:
REMARK  status: ('A' for Active; 'I' for Inactive)
REMARK    1  A    between atoms: C_1  and  C_2
REMARK    2  A    between atoms: C_2  and  C_3
REMARK    3  A    between atoms: C_4  and  C_5
REMARK    4  A    between atoms: C_5  and  C_6
REMARK    5  A    between atoms: C_6  and  C_7
REMARK    6  A    between atoms: C_7  and  C_8
REMARK    7  A    between atoms: C_7  and  C_9
REMARK    8  A    between atoms: C_9  and  C_10
REMARK    9  A    between atoms: C_10  and  O_11
REMARK   10  A    between atoms: O_11  and  P_12
REMARK   11  A    between atoms: P_12  and  O_14
REMARK   12  A    between atoms: P_12  and  C_15
REMARK   13  A    between atoms: C_15  and  P_16
REMARK   14  A    between atoms: P_16  and  O_18
REMARK   15  A    between atoms: P_16  and  O_19
REMARK                            x       y       z     vdW  Elec       q    Type
REMARK                         _______ _______ _______ _____ _____    ______ ____
ROOT
ATOM      1  O   UNL     1       6.264   4.793  19.502  0.00  0.00    +0.000 OA
ENDROOT
BRANCH   1   2
ATOM      2  P   UNL     1       6.754   5.341  17.936  0.00  0.00    +0.000 P 
ATOM      3  O   UNL     1       7.579   6.468  18.561  0.00  0.00    +0.000 OA
BRANCH   2   4
ATOM      4  O   UNL     1       7.801   4.076  17.909  0.00  0.00    +0.000 OA
ATOM      5  H   UNL     1       8.450   4.214  18.630  0.00  0.00    +0.000 HD
ENDBRANCH   2   4
BRANCH   2   6
ATOM      6  C   UNL     1       7.270   5.921  16.279  0.00  0.00    +0.000 C 
BRANCH   6   7
ATOM      7  P   UNL     1       6.790   4.679  15.022  0.00  0.00    +0.000 P 
ATOM      8  O   UNL     1       5.431   5.360  14.812  0.00  0.00    +0.000 OA
BRANCH   7   9
ATOM      9  O   UNL     1       7.745   5.394  13.899  0.00  0.00    +0.000 OA
ATOM     10  H   UNL     1       7.390   6.263  13.648  0.00  0.00    +0.000 HD
ENDBRANCH   7   9
BRANCH   7  11
ATOM     11  O   UNL     1       6.336   3.506  13.835  0.00  0.00    +0.000 OA
ATOM     12  H   UNL     1       5.635   2.976  14.268  0.00  0.00    +0.000 HD
ENDBRANCH   7  11
ENDBRANCH   6   7
ENDBRANCH   2   6
ENDBRANCH   1   2
BRANCH   1  13
ATOM     13  C   UNL     1       4.862   4.569  19.573  0.00  0.00    +0.000 C 
BRANCH  13  14
ATOM     14  C   UNL     1       4.167   4.802  18.232  0.00  0.00    +0.000 C 
BRANCH  14  15
ATOM     15  C   UNL     1       2.712   5.291  18.443  0.00  0.00    +0.000 C 
ATOM     16  C   UNL     1       2.631   6.814  18.274  0.00  0.00    +0.000 C 
BRANCH  15  17
ATOM     17  C   UNL     1       1.727   4.557  17.504  0.00  0.00    +0.000 C 
BRANCH  17  18
ATOM     18  C   UNL     1       0.791   3.618  18.280  0.00  0.00    +0.000 C 
BRANCH  18  22
ATOM     19  C   UNL     1       2.070   2.628  21.819  0.00  0.00    +0.000 C 
ATOM     20  C   UNL     1       1.880   2.637  20.324  0.00  0.00    +0.000 C 
ATOM     21  C   UNL     1       2.634   1.617  19.529  0.00  0.00    +0.000 C 
ATOM     22  C   UNL     1       1.076   3.566  19.751  0.00  0.00    +0.000 C 
ENDBRANCH  18  22
ENDBRANCH  17  18
ENDBRANCH  15  17
ENDBRANCH  14  15
ENDBRANCH  13  14
ENDBRANCH   1  13
TORSDOF 12
ENDMDL
MODEL 7
REMARK VINA RESULT:      -5.7      2.054      4.094
REMARK  Name = 
REMARK  15 active torsions:
REMARK  status: ('A' for Active; 'I' for Inactive)
REMARK    1  A    between atoms: C_1  and  C_2
REMARK    2  A    between atoms: C_2  and  C_3
REMARK    3  A    between atoms: C_4  and  C_5
REMARK    4  A    between atoms: C_5  and  C_6
REMARK    5  A    between atoms: C_6  and  C_7
REMARK    6  A    between atoms: C_7  and  C_8
REMARK    7  A    between atoms: C_7  and  C_9
REMARK    8  A    between atoms: C_9  and  C_10
REMARK    9  A    between atoms: C_10  and  O_11
REMARK   10  A    between atoms: O_11  and  P_12
REMARK   11  A    between atoms: P_12  and  O_14
REMARK   12  A    between atoms: P_12  and  C_15
REMARK   13  A    between atoms: C_15  and  P_16
REMARK   14  A    between atoms: P_16  and  O_18
REMARK   15  A    between atoms: P_16  and  O_19
REMARK                            x       y       z     vdW  Elec       q    Type
REMARK                         _______ _______ _______ _____ _____    ______ ____
ROOT
ATOM      1  O   UNL     1       5.506   4.172  17.571  0.00  0.00    +0.000 OA
ENDROOT
BRANCH   1   2
ATOM      2  P   UNL     1       6.177   4.541  16.020  0.00  0.00    +0.000 P 
ATOM      3  O   UNL     1       7.586   4.594  16.615  0.00  0.00    +0.000 OA
BRANCH   2   4
ATOM      4  O   UNL     1       5.984   2.953  15.648  0.00  0.00    +0.000 OA
ATOM      5  H   UNL     1       6.703   2.456  16.090  0.00  0.00    +0.000 HD
ENDBRANCH   2   4
BRANCH   2   6
ATOM      6  C   UNL     1       6.885   4.933  14.379  0.00  0.00    +0.000 C 
BRANCH   6   7
ATOM      7  P   UNL     1       6.485   3.586  13.205  0.00  0.00    +0.000 P 
ATOM      8  O   UNL     1       5.024   4.045  13.117  0.00  0.00    +0.000 OA
BRANCH   7   9
ATOM      9  O   UNL     1       7.206   4.394  11.977  0.00  0.00    +0.000 OA
ATOM     10  H   UNL     1       7.946   4.933  12.305  0.00  0.00    +0.000 HD
ENDBRANCH   7   9
BRANCH   7  11
ATOM     11  O   UNL     1       6.106   2.314  12.097  0.00  0.00    +0.000 OA
ATOM     12  H   UNL     1       5.685   1.623  12.649  0.00  0.00    +0.000 HD
ENDBRANCH   7  11
ENDBRANCH   6   7
ENDBRANCH   2   6
ENDBRANCH   1   2
BRANCH   1  13
ATOM     13  C   UNL     1       5.427   5.321  18.404  0.00  0.00    +0.000 C 
BRANCH  13  14
ATOM     14  C   UNL     1       4.257   6.231  18.030  0.00  0.00    +0.000 C 
BRANCH  14  15
ATOM     15  C   UNL     1       2.966   5.801  18.772  0.00  0.00    +0.000 C 
ATOM     16  C   UNL     1       2.362   6.993  19.526  0.00  0.00    +0.000 C 
BRANCH  15  17
ATOM     17  C   UNL     1       1.945   5.158  17.803  0.00  0.00    +0.000 C 
BRANCH  17  18
ATOM     18  C   UNL     1       1.732   3.668  18.107  0.00  0.00    +0.000 C 
BRANCH  18  22
ATOM     19  C   UNL     1       1.508   2.566  21.832  0.00  0.00    +0.000 C 
ATOM     20  C   UNL     1       2.067   2.848  20.461  0.00  0.00    +0.000 C 
ATOM     21  C   UNL     1       3.511   2.530  20.229  0.00  0.00    +0.000 C 
ATOM     22  C   UNL     1       1.275   3.399  19.509  0.00  0.00    +0.000 C 
ENDBRANCH  18  22
ENDBRANCH  17  18
ENDBRANCH  15  17
ENDBRANCH  14  15
ENDBRANCH  13  14
ENDBRANCH   1  13
TORSDOF 12
ENDMDL
MODEL 8
REMARK VINA RESULT:      -5.7      1.374      1.689
REMARK  Name = 
REMARK  15 active torsions:
REMARK  status: ('A' for Active; 'I' for Inactive)
REMARK    1  A    between atoms: C_1  and  C_2
REMARK    2  A    between atoms: C_2  and  C_3
REMARK    3  A    between atoms: C_4  and  C_5
REMARK    4  A    between atoms: C_5  and  C_6
REMARK    5  A    between atoms: C_6  and  C_7
REMARK    6  A    between atoms: C_7  and  C_8
REMARK    7  A    between atoms: C_7  and  C_9
REMARK    8  A    between atoms: C_9  and  C_10
REMARK    9  A    between atoms: C_10  and  O_11
REMARK   10  A    between atoms: O_11  and  P_12
REMARK   11  A    between atoms: P_12  and  O_14
REMARK   12  A    between atoms: P_12  and  C_15
REMARK   13  A    between atoms: C_15  and  P_16
REMARK   14  A    between atoms: P_16  and  O_18
REMARK   15  A    between atoms: P_16  and  O_19
REMARK                            x       y       z     vdW  Elec       q    Type
REMARK                         _______ _______ _______ _____ _____    ______ ____
ROOT
ATOM      1  O   UNL     1       5.096   4.537  19.358  0.00  0.00    +0.000 OA
ENDROOT
BRANCH   1   2
ATOM      2  P   UNL     1       5.961   5.103  17.971  0.00  0.00    +0.000 P 
ATOM      3  O   UNL     1       7.258   4.483  18.497  0.00  0.00    +0.000 OA
BRANCH   2   4
ATOM      4  O   UNL     1       5.266   3.873  17.135  0.00  0.00    +0.000 OA
ATOM      5  H   UNL     1       4.856   4.256  16.331  0.00  0.00    +0.000 HD
ENDBRANCH   2   4
BRANCH   2   6
ATOM      6  C   UNL     1       6.876   5.704  16.505  0.00  0.00    +0.000 C 
BRANCH   6   7
ATOM      7  P   UNL     1       6.641   4.532  15.118  0.00  0.00    +0.000 P 
ATOM      8  O   UNL     1       5.329   5.216  14.712  0.00  0.00    +0.000 OA
BRANCH   7   9
ATOM      9  O   UNL     1       7.765   5.315  14.219  0.00  0.00    +0.000 OA
ATOM     10  H   UNL     1       8.056   4.764  13.473  0.00  0.00    +0.000 HD
ENDBRANCH   7   9
BRANCH   7  11
ATOM     11  O   UNL     1       6.419   3.425  13.808  0.00  0.00    +0.000 OA
ATOM     12  H   UNL     1       7.180   3.589  13.215  0.00  0.00    +0.000 HD
ENDBRANCH   7  11
ENDBRANCH   6   7
ENDBRANCH   2   6
ENDBRANCH   1   2
BRANCH   1  13
ATOM     13  C   UNL     1       4.572   3.229  19.162  0.00  0.00    +0.000 C 
BRANCH  13  14
ATOM     14  C   UNL     1       3.298   2.986  19.971  0.00  0.00    +0.000 C 
BRANCH  14  15
ATOM     15  C   UNL     1       2.059   3.548  19.227  0.00  0.00    +0.000 C 
ATOM     16  C   UNL     1       1.207   2.401  18.668  0.00  0.00    +0.000 C 
BRANCH  15  17
ATOM     17  C   UNL     1       1.232   4.486  20.137  0.00  0.00    +0.000 C 
BRANCH  17  18
ATOM     18  C   UNL     1       2.110   5.560  20.796  0.00  0.00    +0.000 C 
BRANCH  18  22
ATOM     19  C   UNL     1       1.291   9.162  19.570  0.00  0.00    +0.000 C 
ATOM     20  C   UNL     1       1.840   7.759  19.603  0.00  0.00    +0.000 C 
ATOM     21  C   UNL     1       2.650   7.310  18.428  0.00  0.00    +0.000 C 
ATOM     22  C   UNL     1       1.566   6.951  20.657  0.00  0.00    +0.000 C 
ENDBRANCH  18  22
ENDBRANCH  17  18
ENDBRANCH  15  17
ENDBRANCH  14  15
ENDBRANCH  13  14
ENDBRANCH   1  13
TORSDOF 12
ENDMDL
MODEL 9
REMARK VINA RESULT:      -5.7      1.751      3.035
REMARK  Name = 
REMARK  15 active torsions:
REMARK  status: ('A' for Active; 'I' for Inactive)
REMARK    1  A    between atoms: C_1  and  C_2
REMARK    2  A    between atoms: C_2  and  C_3
REMARK    3  A    between atoms: C_4  and  C_5
REMARK    4  A    between atoms: C_5  and  C_6
REMARK    5  A    between atoms: C_6  and  C_7
REMARK    6  A    between atoms: C_7  and  C_8
REMARK    7  A    between atoms: C_7  and  C_9
REMARK    8  A    between atoms: C_9  and  C_10
REMARK    9  A    between atoms: C_10  and  O_11
REMARK   10  A    between atoms: O_11  and  P_12
REMARK   11  A    between atoms: P_12  and  O_14
REMARK   12  A    between atoms: P_12  and  C_15
REMARK   13  A    between atoms: C_15  and  P_16
REMARK   14  A    between atoms: P_16  and  O_18
REMARK   15  A    between atoms: P_16  and  O_19
REMARK                            x       y       z     vdW  Elec       q    Type
REMARK                         _______ _______ _______ _____ _____    ______ ____
ROOT
ATOM      1  O   UNL     1       4.999   4.369  15.781  0.00  0.00    +0.000 OA
ENDROOT
BRANCH   1   2
ATOM      2  P   UNL     1       6.129   5.431  16.549  0.00  0.00    +0.000 P 
ATOM      3  O   UNL     1       7.287   4.800  15.771  0.00  0.00    +0.000 OA
BRANCH   2   4
ATOM      4  O   UNL     1       5.590   6.606  15.538  0.00  0.00    +0.000 OA
ATOM      5  H   UNL     1       6.071   7.431  15.759  0.00  0.00    +0.000 HD
ENDBRANCH   2   4
BRANCH   2   6
ATOM      6  C   UNL     1       7.324   6.552  17.363  0.00  0.00    +0.000 C 
BRANCH   6   7
ATOM      7  P   UNL     1       7.724   5.910  19.030  0.00  0.00    +0.000 P 
ATOM      8  O   UNL     1       6.235   5.758  19.370  0.00  0.00    +0.000 OA
BRANCH   7   9
ATOM      9  O   UNL     1       8.118   4.446  18.410  0.00  0.00    +0.000 OA
ATOM     10  H   UNL     1       8.263   4.504  17.451  0.00  0.00    +0.000 HD
ENDBRANCH   7   9
BRANCH   7  11
ATOM     11  O   UNL     1       8.100   5.304  20.605  0.00  0.00    +0.000 OA
ATOM     12  H   UNL     1       8.472   4.412  20.443  0.00  0.00    +0.000 HD
ENDBRANCH   7  11
ENDBRANCH   6   7
ENDBRANCH   2   6
ENDBRANCH   1   2
BRANCH   1  13
ATOM     13  C   UNL     1       4.339   3.527  16.717  0.00  0.00    +0.000 C 
BRANCH  13  14
ATOM     14  C   UNL     1       3.771   4.308  17.901  0.00  0.00    +0.000 C 
BRANCH  14  15
ATOM     15  C   UNL     1       2.248   4.056  18.047  0.00  0.00    +0.000 C 
ATOM     16  C   UNL     1       1.957   2.550  18.078  0.00  0.00    +0.000 C 
BRANCH  15  17
ATOM     17  C   UNL     1       1.673   4.776  19.289  0.00  0.00    +0.000 C 
BRANCH  17  18
ATOM     18  C   UNL     1       2.504   6.011  19.668  0.00  0.00    +0.000 C 
BRANCH  18  22
ATOM     19  C   UNL     1       1.939   9.335  17.727  0.00  0.00    +0.000 C 
ATOM     20  C   UNL     1       1.963   8.325  18.845  0.00  0.00    +0.000 C 
ATOM     21  C   UNL     1       1.428   8.758  20.174  0.00  0.00    +0.000 C 
ATOM     22  C   UNL     1       2.484   7.092  18.630  0.00  0.00    +0.000 C 
ENDBRANCH  18  22
ENDBRANCH  17  18
ENDBRANCH  15  17
ENDBRANCH  14  15
ENDBRANCH  13  14
ENDBRANCH   1  13
TORSDOF 12
ENDMDL
