MODEL 1
REMARK VINA RESULT:      -7.4      0.000      0.000
REMARK  Name = 
REMARK  7 active torsions:
REMARK  status: ('A' for Active; 'I' for Inactive)
REMARK    1  A    between atoms: C_1  and  C_2
REMARK    2  A    between atoms: C_2  and  C_3
REMARK    3  A    between atoms: C_3  and  C_4
REMARK    4  A    between atoms: C_3  and  N_5
REMARK    5  A    between atoms: C_6  and  C_8
REMARK    6  A    between atoms: C_10  and  C_11
REMARK    7  A    between atoms: C_20  and  N_21
REMARK                            x       y       z     vdW  Elec       q    Type
REMARK                         _______ _______ _______ _____ _____    ______ ____
ROOT
ATOM      1  C   UNL     1       4.635   4.640  18.275  0.00  0.00    +0.000 A 
ATOM      2  N   UNL     1       3.974   5.839  18.173  0.00  0.00    +0.000 NA
ATOM      3  C   UNL     1       3.039   6.072  19.133  0.00  0.00    +0.000 A 
ATOM      4  C   UNL     1       2.804   5.125  20.133  0.00  0.00    +0.000 A 
ATOM      5  N   UNL     1       3.444   3.932  20.218  0.00  0.00    +0.000 NA
ATOM      6  C   UNL     1       4.377   3.690  19.277  0.00  0.00    +0.000 A 
ENDROOT
BRANCH   3   7
ATOM      7  C   UNL     1       2.333   7.371  19.090  0.00  0.00    +0.000 A 
ATOM      8  C   UNL     1       1.697   7.907  20.232  0.00  0.00    +0.000 A 
ATOM      9  C   UNL     1       1.082   9.162  20.201  0.00  0.00    +0.000 A 
ATOM     10  C   UNL     1       1.085   9.896  19.025  0.00  0.00    +0.000 A 
ATOM     11  F   UNL     1       0.504  11.103  18.999  0.00  0.00    +0.000 F 
ATOM     12  C   UNL     1       1.682   9.395  17.878  0.00  0.00    +0.000 A 
ATOM     13  C   UNL     1       2.299   8.138  17.911  0.00  0.00    +0.000 A 
ENDBRANCH   3   7
BRANCH   1  15
ATOM     14  N   UNL     1       5.315   4.274  15.963  0.00  0.00    +0.000 N 
ATOM     15  C   UNL     1       5.724   4.389  17.278  0.00  0.00    +0.000 C 
ATOM     16  O   UNL     1       6.899   4.307  17.629  0.00  0.00    +0.000 OA
ATOM     17  H   UNL     1       4.342   4.486  15.761  0.00  0.00    +0.000 HD
BRANCH  14  18
ATOM     18  C   UNL     1       6.258   4.021  14.883  0.00  0.00    +0.000 C 
ATOM     19  C   UNL     1       7.161   5.235  14.672  0.00  0.00    +0.000 C 
BRANCH  18  21
ATOM     20  C   UNL     1       6.470   3.597  12.378  0.00  0.00    +0.000 C 
ATOM     21  C   UNL     1       5.534   3.657  13.578  0.00  0.00    +0.000 C 
ENDBRANCH  18  21
ENDBRANCH  14  18
ENDBRANCH   1  15
BRANCH   6  22
ATOM     22  N   UNL     1       4.934   2.418  19.321  0.00  0.00    +0.000 N 
ATOM     23  H   UNL     1       5.782   2.434  19.876  0.00  0.00    +0.000 HD
ATOM     24  H   UNL     1       5.040   2.013  18.390  0.00  0.00    +0.000 HD
ENDBRANCH   6  22
TORSDOF 5
ENDMDL
MODEL 2
REMARK VINA RESULT:      -7.4      3.642      4.969
REMARK  Name = 
REMARK  7 active torsions:
REMARK  status: ('A' for Active; 'I' for Inactive)
REMARK    1  A    between atoms: C_1  and  C_2
REMARK    2  A    between atoms: C_2  and  C_3
REMARK    3  A    between atoms: C_3  and  C_4
REMARK    4  A    between atoms: C_3  and  N_5
REMARK    5  A    between atoms: C_6  and  C_8
REMARK    6  A    between atoms: C_10  and  C_11
REMARK    7  A    between atoms: C_20  and  N_21
REMARK                            x       y       z     vdW  Elec       q    Type
REMARK                         _______ _______ _______ _____ _____    ______ ____
ROOT
ATOM      1  C   UNL     1       5.994   4.438  14.911  0.00  0.00    +0.000 A 
ATOM      2  N   UNL     1       4.890   3.936  15.555  0.00  0.00    +0.000 NA
ATOM      3  C   UNL     1       4.746   4.321  16.851  0.00  0.00    +0.000 A 
ATOM      4  C   UNL     1       5.684   5.170  17.443  0.00  0.00    +0.000 A 
ATOM      5  N   UNL     1       6.785   5.647  16.811  0.00  0.00    +0.000 NA
ATOM      6  C   UNL     1       6.938   5.279  15.524  0.00  0.00    +0.000 A 
ENDROOT
BRANCH   3   7
ATOM      7  C   UNL     1       3.546   3.842  17.572  0.00  0.00    +0.000 A 
ATOM      8  C   UNL     1       2.599   4.739  18.112  0.00  0.00    +0.000 A 
ATOM      9  C   UNL     1       1.437   4.279  18.741  0.00  0.00    +0.000 A 
ATOM     10  C   UNL     1       1.210   2.916  18.846  0.00  0.00    +0.000 A 
ATOM     11  F   UNL     1       0.093   2.476  19.440  0.00  0.00    +0.000 F 
ATOM     12  C   UNL     1       2.127   2.003  18.345  0.00  0.00    +0.000 A 
ATOM     13  C   UNL     1       3.290   2.465  17.715  0.00  0.00    +0.000 A 
ENDBRANCH   3   7
BRANCH   1  15
ATOM     14  N   UNL     1       5.067   3.427  12.896  0.00  0.00    +0.000 N 
ATOM     15  C   UNL     1       6.137   4.095  13.461  0.00  0.00    +0.000 C 
ATOM     16  O   UNL     1       7.144   4.409  12.831  0.00  0.00    +0.000 OA
ATOM     17  H   UNL     1       4.231   3.329  13.465  0.00  0.00    +0.000 HD
BRANCH  14  18
ATOM     18  C   UNL     1       5.065   3.019  11.499  0.00  0.00    +0.000 C 
ATOM     19  C   UNL     1       3.660   3.145  10.912  0.00  0.00    +0.000 C 
BRANCH  18  21
ATOM     20  C   UNL     1       7.067   1.534  10.963  0.00  0.00    +0.000 C 
ATOM     21  C   UNL     1       5.590   1.585  11.331  0.00  0.00    +0.000 C 
ENDBRANCH  18  21
ENDBRANCH  14  18
ENDBRANCH   1  15
BRANCH   6  22
ATOM     22  N   UNL     1       8.129   5.687  14.938  0.00  0.00    +0.000 N 
ATOM     23  H   UNL     1       7.934   6.311  14.162  0.00  0.00    +0.000 HD
ATOM     24  H   UNL     1       8.735   4.898  14.709  0.00  0.00    +0.000 HD
ENDBRANCH   6  22
TORSDOF 5
ENDMDL
MODEL 3
REMARK VINA RESULT:      -7.4      0.210      1.073
REMARK  Name = 
REMARK  7 active torsions:
REMARK  status: ('A' for Active; 'I' for Inactive)
REMARK    1  A    between atoms: C_1  and  C_2
REMARK    2  A    between atoms: C_2  and  C_3
REMARK    3  A    between atoms: C_3  and  C_4
REMARK    4  A    between atoms: C_3  and  N_5
REMARK    5  A    between atoms: C_6  and  C_8
REMARK    6  A    between atoms: C_10  and  C_11
REMARK    7  A    between atoms: C_20  and  N_21
REMARK                            x       y       z     vdW  Elec       q    Type
REMARK                         _______ _______ _______ _____ _____    ______ ____
ROOT
ATOM      1  C   UNL     1       4.596   4.621  18.460  0.00  0.00    +0.000 A 
ATOM      2  N   UNL     1       3.958   5.832  18.352  0.00  0.00    +0.000 NA
ATOM      3  C   UNL     1       2.992   6.068  19.281  0.00  0.00    +0.000 A 
ATOM      4  C   UNL     1       2.705   5.110  20.257  0.00  0.00    +0.000 A 
ATOM      5  N   UNL     1       3.322   3.906  20.348  0.00  0.00    +0.000 NA
ATOM      6  C   UNL     1       4.285   3.662  19.438  0.00  0.00    +0.000 A 
ENDROOT
BRANCH   3   7
ATOM      7  C   UNL     1       2.310   7.379  19.232  0.00  0.00    +0.000 A 
ATOM      8  C   UNL     1       2.248   8.137  18.042  0.00  0.00    +0.000 A 
ATOM      9  C   UNL     1       1.551   9.349  17.987  0.00  0.00    +0.000 A 
ATOM     10  C   UNL     1       0.915   9.824  19.123  0.00  0.00    +0.000 A 
ATOM     11  F   UNL     1       0.240  10.980  19.067  0.00  0.00    +0.000 F 
ATOM     12  C   UNL     1       0.970   9.117  20.315  0.00  0.00    +0.000 A 
ATOM     13  C   UNL     1       1.667   7.904  20.369  0.00  0.00    +0.000 A 
ENDBRANCH   3   7
BRANCH   1  15
ATOM     14  N   UNL     1       5.359   4.311  16.166  0.00  0.00    +0.000 N 
ATOM     15  C   UNL     1       5.716   4.366  17.500  0.00  0.00    +0.000 C 
ATOM     16  O   UNL     1       6.871   4.230  17.895  0.00  0.00    +0.000 OA
ATOM     17  H   UNL     1       4.403   4.564  15.932  0.00  0.00    +0.000 HD
BRANCH  14  18
ATOM     18  C   UNL     1       6.338   4.062  15.118  0.00  0.00    +0.000 C 
ATOM     19  C   UNL     1       7.204   5.300  14.895  0.00  0.00    +0.000 C 
BRANCH  18  21
ATOM     20  C   UNL     1       6.577   3.765  12.597  0.00  0.00    +0.000 C 
ATOM     21  C   UNL     1       5.659   3.639  13.806  0.00  0.00    +0.000 C 
ENDBRANCH  18  21
ENDBRANCH  14  18
ENDBRANCH   1  15
BRANCH   6  22
ATOM     22  N   UNL     1       4.819   2.380  19.484  0.00  0.00    +0.000 N 
ATOM     23  H   UNL     1       4.208   1.772  20.018  0.00  0.00    +0.000 HD
ATOM     24  H   UNL     1       5.794   2.380  19.788  0.00  0.00    +0.000 HD
ENDBRANCH   6  22
TORSDOF 5
ENDMDL
MODEL 4
REMARK VINA RESULT:      -7.4      3.668      4.702
REMARK  Name = 
REMARK  7 active torsions:
REMARK  status: ('A' for Active; 'I' for Inactive)
REMARK    1  A    between atoms: C_1  and  C_2
REMARK    2  A    between atoms: C_2  and  C_3
REMARK    3  A    between atoms: C_3  and  C_4
REMARK    4  A    between atoms: C_3  and  N_5
REMARK    5  A    between atoms: C_6  and  C_8
REMARK    6  A    between atoms: C_10  and  C_11
REMARK    7  A    between atoms: C_20  and  N_21
REMARK                            x       y       z     vdW  Elec       q    Type
REMARK                         _______ _______ _______ _____ _____    ______ ____
ROOT
ATOM      1  C   UNL     1       6.310   5.081  15.978  0.00  0.00    +0.000 A 
ATOM      2  N   UNL     1       5.237   4.301  16.335  0.00  0.00    +0.000 NA
ATOM      3  C   UNL     1       4.641   4.634  17.512  0.00  0.00    +0.000 A 
ATOM      4  C   UNL     1       5.126   5.702  18.270  0.00  0.00    +0.000 A 
ATOM      5  N   UNL     1       6.200   6.456  17.926  0.00  0.00    +0.000 NA
ATOM      6  C   UNL     1       6.796   6.142  16.759  0.00  0.00    +0.000 A 
ENDROOT
BRANCH   3   7
ATOM      7  C   UNL     1       3.452   3.851  17.915  0.00  0.00    +0.000 A 
ATOM      8  C   UNL     1       2.187   4.457  18.078  0.00  0.00    +0.000 A 
ATOM      9  C   UNL     1       1.055   3.703  18.402  0.00  0.00    +0.000 A 
ATOM     10  C   UNL     1       1.174   2.332  18.576  0.00  0.00    +0.000 A 
ATOM     11  F   UNL     1       0.087   1.609  18.877  0.00  0.00    +0.000 F 
ATOM     12  C   UNL     1       2.403   1.704  18.444  0.00  0.00    +0.000 A 
ATOM     13  C   UNL     1       3.536   2.461  18.119  0.00  0.00    +0.000 A 
ENDBRANCH   3   7
BRANCH   1  15
ATOM     14  N   UNL     1       6.277   3.858  13.869  0.00  0.00    +0.000 N 
ATOM     15  C   UNL     1       6.937   4.789  14.650  0.00  0.00    +0.000 C 
ATOM     16  O   UNL     1       7.964   5.361  14.294  0.00  0.00    +0.000 OA
ATOM     17  H   UNL     1       5.370   3.539  14.197  0.00  0.00    +0.000 HD
BRANCH  14  18
ATOM     18  C   UNL     1       6.772   3.465  12.558  0.00  0.00    +0.000 C 
ATOM     19  C   UNL     1       7.122   4.701  11.731  0.00  0.00    +0.000 C 
BRANCH  18  21
ATOM     20  C   UNL     1       4.443   3.318  11.532  0.00  0.00    +0.000 C 
ATOM     21  C   UNL     1       5.752   2.592  11.811  0.00  0.00    +0.000 C 
ENDBRANCH  18  21
ENDBRANCH  14  18
ENDBRANCH   1  15
BRANCH   6  22
ATOM     22  N   UNL     1       7.958   6.854  16.488  0.00  0.00    +0.000 N 
ATOM     23  H   UNL     1       7.722   7.766  16.113  0.00  0.00    +0.000 HD
ATOM     24  H   UNL     1       8.614   6.316  15.920  0.00  0.00    +0.000 HD
ENDBRANCH   6  22
TORSDOF 5
ENDMDL
MODEL 5
REMARK VINA RESULT:      -7.4      3.686      4.698
REMARK  Name = 
REMARK  7 active torsions:
REMARK  status: ('A' for Active; 'I' for Inactive)
REMARK    1  A    between atoms: C_1  and  C_2
REMARK    2  A    between atoms: C_2  and  C_3
REMARK    3  A    between atoms: C_3  and  C_4
REMARK    4  A    between atoms: C_3  and  N_5
REMARK    5  A    between atoms: C_6  and  C_8
REMARK    6  A    between atoms: C_10  and  C_11
REMARK    7  A    between atoms: C_20  and  N_21
REMARK                            x       y       z     vdW  Elec       q    Type
REMARK                         _______ _______ _______ _____ _____    ______ ____
ROOT
ATOM      1  C   UNL     1       6.314   5.132  15.971  0.00  0.00    +0.000 A 
ATOM      2  N   UNL     1       5.242   4.336  16.294  0.00  0.00    +0.000 NA
ATOM      3  C   UNL     1       4.611   4.653  17.457  0.00  0.00    +0.000 A 
ATOM      4  C   UNL     1       5.062   5.723  18.235  0.00  0.00    +0.000 A 
ATOM      5  N   UNL     1       6.134   6.493  17.923  0.00  0.00    +0.000 NA
ATOM      6  C   UNL     1       6.765   6.194  16.771  0.00  0.00    +0.000 A 
ENDROOT
BRANCH   3   7
ATOM      7  C   UNL     1       3.423   3.852  17.824  0.00  0.00    +0.000 A 
ATOM      8  C   UNL     1       3.516   2.469  18.091  0.00  0.00    +0.000 A 
ATOM      9  C   UNL     1       2.399   1.729  18.494  0.00  0.00    +0.000 A 
ATOM     10  C   UNL     1       1.172   2.360  18.626  0.00  0.00    +0.000 A 
ATOM     11  F   UNL     1       0.105   1.652  19.021  0.00  0.00    +0.000 F 
ATOM     12  C   UNL     1       1.037   3.713  18.353  0.00  0.00    +0.000 A 
ATOM     13  C   UNL     1       2.156   4.453  17.951  0.00  0.00    +0.000 A 
ENDBRANCH   3   7
BRANCH   1  15
ATOM     14  N   UNL     1       6.317   3.974  13.826  0.00  0.00    +0.000 N 
ATOM     15  C   UNL     1       6.980   4.856  14.658  0.00  0.00    +0.000 C 
ATOM     16  O   UNL     1       8.039   5.401  14.358  0.00  0.00    +0.000 OA
ATOM     17  H   UNL     1       5.387   3.679  14.110  0.00  0.00    +0.000 HD
BRANCH  14  18
ATOM     18  C   UNL     1       6.847   3.602  12.522  0.00  0.00    +0.000 C 
ATOM     19  C   UNL     1       7.142   4.852  11.694  0.00  0.00    +0.000 C 
BRANCH  18  21
ATOM     20  C   UNL     1       4.504   3.292  11.564  0.00  0.00    +0.000 C 
ATOM     21  C   UNL     1       5.882   2.675  11.767  0.00  0.00    +0.000 C 
ENDBRANCH  18  21
ENDBRANCH  14  18
ENDBRANCH   1  15
BRANCH   6  22
ATOM     22  N   UNL     1       7.924   6.923  16.535  0.00  0.00    +0.000 N 
ATOM     23  H   UNL     1       7.829   7.449  15.673  0.00  0.00    +0.000 HD
ATOM     24  H   UNL     1       8.761   6.342  16.591  0.00  0.00    +0.000 HD
ENDBRANCH   6  22
TORSDOF 5
ENDMDL
MODEL 6
REMARK VINA RESULT:      -7.2      3.511      4.604
REMARK  Name = 
REMARK  7 active torsions:
REMARK  status: ('A' for Active; 'I' for Inactive)
REMARK    1  A    between atoms: C_1  and  C_2
REMARK    2  A    between atoms: C_2  and  C_3
REMARK    3  A    between atoms: C_3  and  C_4
REMARK    4  A    between atoms: C_3  and  N_5
REMARK    5  A    between atoms: C_6  and  C_8
REMARK    6  A    between atoms: C_10  and  C_11
REMARK    7  A    between atoms: C_20  and  N_21
REMARK                            x       y       z     vdW  Elec       q    Type
REMARK                         _______ _______ _______ _____ _____    ______ ____
ROOT
ATOM      1  C   UNL     1       5.926   5.048  15.795  0.00  0.00    +0.000 A 
ATOM      2  N   UNL     1       4.839   4.361  16.277  0.00  0.00    +0.000 NA
ATOM      3  C   UNL     1       4.485   4.655  17.557  0.00  0.00    +0.000 A 
ATOM      4  C   UNL     1       5.211   5.596  18.291  0.00  0.00    +0.000 A 
ATOM      5  N   UNL     1       6.298   6.256  17.819  0.00  0.00    +0.000 NA
ATOM      6  C   UNL     1       6.656   5.980  16.551  0.00  0.00    +0.000 A 
ENDROOT
BRANCH   3   7
ATOM      7  C   UNL     1       3.291   3.973  18.104  0.00  0.00    +0.000 A 
ATOM      8  C   UNL     1       2.406   4.627  18.989  0.00  0.00    +0.000 A 
ATOM      9  C   UNL     1       1.247   3.997  19.456  0.00  0.00    +0.000 A 
ATOM     10  C   UNL     1       0.963   2.702  19.053  0.00  0.00    +0.000 A 
ATOM     11  F   UNL     1      -0.151   2.103  19.493  0.00  0.00    +0.000 F 
ATOM     12  C   UNL     1       1.819   2.021  18.200  0.00  0.00    +0.000 A 
ATOM     13  C   UNL     1       2.977   2.652  17.732  0.00  0.00    +0.000 A 
ENDBRANCH   3   7
BRANCH   1  15
ATOM     14  N   UNL     1       5.418   4.002  13.653  0.00  0.00    +0.000 N 
ATOM     15  C   UNL     1       6.291   4.804  14.364  0.00  0.00    +0.000 C 
ATOM     16  O   UNL     1       7.299   5.304  13.872  0.00  0.00    +0.000 OA
ATOM     17  H   UNL     1       4.549   3.745  14.111  0.00  0.00    +0.000 HD
BRANCH  14  18
ATOM     18  C   UNL     1       5.645   3.669  12.254  0.00  0.00    +0.000 C 
ATOM     19  C   UNL     1       4.322   3.338  11.566  0.00  0.00    +0.000 C 
BRANCH  18  21
ATOM     20  C   UNL     1       6.101   1.384  11.219  0.00  0.00    +0.000 C 
ATOM     21  C   UNL     1       6.632   2.501  12.108  0.00  0.00    +0.000 C 
ENDBRANCH  18  21
ENDBRANCH  14  18
ENDBRANCH   1  15
BRANCH   6  22
ATOM     22  N   UNL     1       7.836   6.584  16.133  0.00  0.00    +0.000 N 
ATOM     23  H   UNL     1       8.522   5.874  15.903  0.00  0.00    +0.000 HD
ATOM     24  H   UNL     1       8.159   7.292  16.794  0.00  0.00    +0.000 HD
ENDBRANCH   6  22
TORSDOF 5
ENDMDL
MODEL 7
REMARK VINA RESULT:      -7.2      3.492      4.630
REMARK  Name = 
REMARK  7 active torsions:
REMARK  status: ('A' for Active; 'I' for Inactive)
REMARK    1  A    between atoms: C_1  and  C_2
REMARK    2  A    between atoms: C_2  and  C_3
REMARK    3  A    between atoms: C_3  and  C_4
REMARK    4  A    between atoms: C_3  and  N_5
REMARK    5  A    between atoms: C_6  and  C_8
REMARK    6  A    between atoms: C_10  and  C_11
REMARK    7  A    between atoms: C_20  and  N_21
REMARK                            x       y       z     vdW  Elec       q    Type
REMARK                         _______ _______ _______ _____ _____    ______ ____
ROOT
ATOM      1  C   UNL     1       5.915   5.048  15.847  0.00  0.00    +0.000 A 
ATOM      2  N   UNL     1       4.809   4.375  16.306  0.00  0.00    +0.000 NA
ATOM      3  C   UNL     1       4.439   4.664  17.583  0.00  0.00    +0.000 A 
ATOM      4  C   UNL     1       5.168   5.588  18.336  0.00  0.00    +0.000 A 
ATOM      5  N   UNL     1       6.273   6.234  17.887  0.00  0.00    +0.000 NA
ATOM      6  C   UNL     1       6.647   5.963  16.622  0.00  0.00    +0.000 A 
ENDROOT
BRANCH   3   7
ATOM      7  C   UNL     1       3.226   3.997  18.105  0.00  0.00    +0.000 A 
ATOM      8  C   UNL     1       2.913   2.662  17.769  0.00  0.00    +0.000 A 
ATOM      9  C   UNL     1       1.796   2.018  18.311  0.00  0.00    +0.000 A 
ATOM     10  C   UNL     1       0.971   2.703  19.190  0.00  0.00    +0.000 A 
ATOM     11  F   UNL     1      -0.093   2.083  19.717  0.00  0.00    +0.000 F 
ATOM     12  C   UNL     1       1.236   4.022  19.529  0.00  0.00    +0.000 A 
ATOM     13  C   UNL     1       2.355   4.665  18.985  0.00  0.00    +0.000 A 
ENDBRANCH   3   7
BRANCH   1  15
ATOM     14  N   UNL     1       5.432   4.015  13.692  0.00  0.00    +0.000 N 
ATOM     15  C   UNL     1       6.299   4.810  14.420  0.00  0.00    +0.000 C 
ATOM     16  O   UNL     1       7.316   5.308  13.945  0.00  0.00    +0.000 OA
ATOM     17  H   UNL     1       4.556   3.759  14.137  0.00  0.00    +0.000 HD
BRANCH  14  18
ATOM     18  C   UNL     1       5.678   3.688  12.295  0.00  0.00    +0.000 C 
ATOM     19  C   UNL     1       4.372   3.300  11.604  0.00  0.00    +0.000 C 
BRANCH  18  21
ATOM     20  C   UNL     1       6.304   1.501  11.144  0.00  0.00    +0.000 C 
ATOM     21  C   UNL     1       6.714   2.563  12.156  0.00  0.00    +0.000 C 
ENDBRANCH  18  21
ENDBRANCH  14  18
ENDBRANCH   1  15
BRANCH   6  22
ATOM     22  N   UNL     1       7.843   6.551  16.228  0.00  0.00    +0.000 N 
ATOM     23  H   UNL     1       8.600   5.883  16.320  0.00  0.00    +0.000 HD
ATOM     24  H   UNL     1       8.002   7.445  16.694  0.00  0.00    +0.000 HD
ENDBRANCH   6  22
TORSDOF 5
ENDMDL
MODEL 8
REMARK VINA RESULT:      -7.2      3.197      6.947
REMARK  Name = 
REMARK  7 active torsions:
REMARK  status: ('A' for Active; 'I' for Inactive)
REMARK    1  A    between atoms: C_1  and  C_2
REMARK    2  A    between atoms: C_2  and  C_3
REMARK    3  A    between atoms: C_3  and  C_4
REMARK    4  A    between atoms: C_3  and  N_5
REMARK    5  A    between atoms: C_6  and  C_8
REMARK    6  A    between atoms: C_10  and  C_11
REMARK    7  A    between atoms: C_20  and  N_21
REMARK                            x       y       z     vdW  Elec       q    Type
REMARK                         _______ _______ _______ _____ _____    ______ ____
ROOT
ATOM      1  C   UNL     1       2.731   4.696  20.120  0.00  0.00    +0.000 A 
ATOM      2  N   UNL     1       3.529   4.971  19.037  0.00  0.00    +0.000 NA
ATOM      3  C   UNL     1       4.431   4.004  18.718  0.00  0.00    +0.000 A 
ATOM      4  C   UNL     1       4.502   2.830  19.471  0.00  0.00    +0.000 A 
ATOM      5  N   UNL     1       3.727   2.571  20.554  0.00  0.00    +0.000 NA
ATOM      6  C   UNL     1       2.825   3.518  20.878  0.00  0.00    +0.000 A 
ENDROOT
BRANCH   3   7
ATOM      7  C   UNL     1       5.281   4.236  17.530  0.00  0.00    +0.000 A 
ATOM      8  C   UNL     1       4.758   4.165  16.220  0.00  0.00    +0.000 A 
ATOM      9  C   UNL     1       5.553   4.443  15.103  0.00  0.00    +0.000 A 
ATOM     10  C   UNL     1       6.885   4.786  15.280  0.00  0.00    +0.000 A 
ATOM     11  F   UNL     1       7.643   5.061  14.210  0.00  0.00    +0.000 F 
ATOM     12  C   UNL     1       7.439   4.847  16.550  0.00  0.00    +0.000 A 
ATOM     13  C   UNL     1       6.642   4.569  17.667  0.00  0.00    +0.000 A 
ENDBRANCH   3   7
BRANCH   1  15
ATOM     14  N   UNL     1       2.099   7.023  20.481  0.00  0.00    +0.000 N 
ATOM     15  C   UNL     1       1.676   5.707  20.448  0.00  0.00    +0.000 C 
ATOM     16  O   UNL     1       0.514   5.367  20.658  0.00  0.00    +0.000 OA
ATOM     17  H   UNL     1       3.046   7.212  20.167  0.00  0.00    +0.000 HD
BRANCH  14  18
ATOM     18  C   UNL     1       1.189   8.115  20.794  0.00  0.00    +0.000 C 
ATOM     19  C   UNL     1       1.188   9.144  19.665  0.00  0.00    +0.000 C 
BRANCH  18  21
ATOM     20  C   UNL     1       0.348   9.391  22.835  0.00  0.00    +0.000 C 
ATOM     21  C   UNL     1       1.553   8.783  22.129  0.00  0.00    +0.000 C 
ENDBRANCH  18  21
ENDBRANCH  14  18
ENDBRANCH   1  15
BRANCH   6  22
ATOM     22  N   UNL     1       2.126   3.278  22.055  0.00  0.00    +0.000 N 
ATOM     23  H   UNL     1       2.594   2.557  22.592  0.00  0.00    +0.000 HD
ATOM     24  H   UNL     1       1.134   3.106  21.883  0.00  0.00    +0.000 HD
ENDBRANCH   6  22
TORSDOF 5
ENDMDL
MODEL 9
REMARK VINA RESULT:      -7.1      1.140      1.317
REMARK  Name = 
REMARK  7 active torsions:
REMARK  status: ('A' for Active; 'I' for Inactive)
REMARK    1  A    between atoms: C_1  and  C_2
REMARK    2  A    between atoms: C_2  and  C_3
REMARK    3  A    between atoms: C_3  and  C_4
REMARK    4  A    between atoms: C_3  and  N_5
REMARK    5  A    between atoms: C_6  and  C_8
REMARK    6  A    between atoms: C_10  and  C_11
REMARK    7  A    between atoms: C_20  and  N_21
REMARK                            x       y       z     vdW  Elec       q    Type
REMARK                         _______ _______ _______ _____ _____    ______ ____
ROOT
ATOM      1  C   UNL     1       3.821   4.900  19.306  0.00  0.00    +0.000 A 
ATOM      2  N   UNL     1       3.376   6.177  19.067  0.00  0.00    +0.000 NA
ATOM      3  C   UNL     1       2.283   6.556  19.783  0.00  0.00    +0.000 A 
ATOM      4  C   UNL     1       1.689   5.670  20.685  0.00  0.00    +0.000 A 
ATOM      5  N   UNL     1       2.118   4.402  20.902  0.00  0.00    +0.000 NA
ATOM      6  C   UNL     1       3.203   4.015  20.205  0.00  0.00    +0.000 A 
ENDROOT
BRANCH   3   7
ATOM      7  C   UNL     1       1.796   7.940  19.593  0.00  0.00    +0.000 A 
ATOM      8  C   UNL     1       1.162   8.651  20.636  0.00  0.00    +0.000 A 
ATOM      9  C   UNL     1       0.755   9.979  20.469  0.00  0.00    +0.000 A 
ATOM     10  C   UNL     1       0.969  10.612  19.254  0.00  0.00    +0.000 A 
ATOM     11  F   UNL     1       0.589  11.887  19.098  0.00  0.00    +0.000 F 
ATOM     12  C   UNL     1       1.571   9.940  18.200  0.00  0.00    +0.000 A 
ATOM     13  C   UNL     1       1.978   8.611  18.369  0.00  0.00    +0.000 A 
ENDBRANCH   3   7
BRANCH   1  15
ATOM     14  N   UNL     1       5.083   4.715  17.229  0.00  0.00    +0.000 N 
ATOM     15  C   UNL     1       5.068   4.481  18.591  0.00  0.00    +0.000 C 
ATOM     16  O   UNL     1       6.009   3.976  19.199  0.00  0.00    +0.000 OA
ATOM     17  H   UNL     1       4.313   5.253  16.843  0.00  0.00    +0.000 HD
BRANCH  14  18
ATOM     18  C   UNL     1       6.223   4.353  16.399  0.00  0.00    +0.000 C 
ATOM     19  C   UNL     1       7.183   5.534  16.272  0.00  0.00    +0.000 C 
BRANCH  18  21
ATOM     20  C   UNL     1       6.650   4.417  13.886  0.00  0.00    +0.000 C 
ATOM     21  C   UNL     1       5.776   3.873  15.009  0.00  0.00    +0.000 C 
ENDBRANCH  18  21
ENDBRANCH  14  18
ENDBRANCH   1  15
BRANCH   6  22
ATOM     22  N   UNL     1       3.551   2.679  20.361  0.00  0.00    +0.000 N 
ATOM     23  H   UNL     1       4.545   2.601  20.544  0.00  0.00    +0.000 HD
ATOM     24  H   UNL     1       3.212   2.101  19.589  0.00  0.00    +0.000 HD
ENDBRANCH   6  22
TORSDOF 5
ENDMDL
