MODEL 1
REMARK VINA RESULT:      -8.5      0.000      0.000
REMARK  Name = 
REMARK  4 active torsions:
REMARK  status: ('A' for Active; 'I' for Inactive)
REMARK    1  A    between atoms: N_3  and  S_4
REMARK    2  A    between atoms: S_4  and  C_7
REMARK    3  A    between atoms: N_17  and  S_18
REMARK    4  A    between atoms: S_18  and  C_21
REMARK                            x       y       z     vdW  Elec       q    Type
REMARK                         _______ _______ _______ _____ _____    ______ ____
ROOT
ATOM      1  O   UNL     1       2.203   8.900  17.438  0.00  0.00    +0.000 OA
ATOM      2  C   UNL     1       1.932   8.606  18.587  0.00  0.00    +0.000 A 
ATOM      3  N   UNL     1       1.151   9.357  19.460  0.00  0.00    +0.000 N 
ATOM      4  C   UNL     1       1.157   8.692  20.716  0.00  0.00    +0.000 A 
ATOM      5  C   UNL     1       1.803   7.530  20.579  0.00  0.00    +0.000 A 
ATOM      6  N   UNL     1       2.294   7.444  19.251  0.00  0.00    +0.000 N 
ENDROOT
BRANCH   3   7
ATOM      7  S   UNL     1       0.750  10.952  19.342  0.00  0.00    +0.000 S 
ATOM      8  O   UNL     1       0.580  11.483  20.680  0.00  0.00    +0.000 OA
ATOM      9  O   UNL     1       1.651  11.595  18.409  0.00  0.00    +0.000 OA
BRANCH   7  10
ATOM     10  C   UNL     1      -0.865  10.902  18.609  0.00  0.00    +0.000 A 
ATOM     11  C   UNL     1      -1.088  10.075  17.505  0.00  0.00    +0.000 A 
ATOM     12  C   UNL     1      -2.359  10.030  16.944  0.00  0.00    +0.000 A 
ATOM     13  F   UNL     1      -2.577   9.246  15.880  0.00  0.00    +0.000 F 
ATOM     14  C   UNL     1      -3.404  10.783  17.464  0.00  0.00    +0.000 A 
ATOM     15  C   UNL     1      -3.166  11.585  18.574  0.00  0.00    +0.000 A 
ATOM     16  F   UNL     1      -4.169  12.311  19.083  0.00  0.00    +0.000 F 
ATOM     17  C   UNL     1      -1.909  11.649  19.163  0.00  0.00    +0.000 A 
ENDBRANCH   7  10
ENDBRANCH   3   7
BRANCH   6  18
ATOM     18  S   UNL     1       3.240   6.203  18.732  0.00  0.00    +0.000 S 
ATOM     19  O   UNL     1       3.169   6.082  17.294  0.00  0.00    +0.000 OA
ATOM     20  O   UNL     1       4.525   6.281  19.402  0.00  0.00    +0.000 OA
BRANCH  18  21
ATOM     21  C   UNL     1       2.390   4.804  19.423  0.00  0.00    +0.000 A 
ATOM     22  C   UNL     1       1.577   4.011  18.610  0.00  0.00    +0.000 A 
ATOM     23  C   UNL     1       0.933   2.915  19.175  0.00  0.00    +0.000 A 
ATOM     24  F   UNL     1       0.139   2.153  18.410  0.00  0.00    +0.000 F 
ATOM     25  C   UNL     1       1.091   2.595  20.518  0.00  0.00    +0.000 A 
ATOM     26  C   UNL     1       1.922   3.383  21.303  0.00  0.00    +0.000 A 
ATOM     27  F   UNL     1       2.090   3.081  22.596  0.00  0.00    +0.000 F 
ATOM     28  C   UNL     1       2.581   4.485  20.771  0.00  0.00    +0.000 A 
ENDBRANCH  18  21
ENDBRANCH   6  18
TORSDOF 4
ENDMDL
MODEL 2
REMARK VINA RESULT:      -8.5      0.043      2.198
REMARK  Name = 
REMARK  4 active torsions:
REMARK  status: ('A' for Active; 'I' for Inactive)
REMARK    1  A    between atoms: N_3  and  S_4
REMARK    2  A    between atoms: S_4  and  C_7
REMARK    3  A    between atoms: N_17  and  S_18
REMARK    4  A    between atoms: S_18  and  C_21
REMARK                            x       y       z     vdW  Elec       q    Type
REMARK                         _______ _______ _______ _____ _____    ______ ____
ROOT
ATOM      1  O   UNL     1       2.207   8.883  17.450  0.00  0.00    +0.000 OA
ATOM      2  C   UNL     1       1.928   8.576  18.593  0.00  0.00    +0.000 A 
ATOM      3  N   UNL     1       1.133   9.312  19.466  0.00  0.00    +0.000 N 
ATOM      4  C   UNL     1       1.134   8.635  20.715  0.00  0.00    +0.000 A 
ATOM      5  C   UNL     1       1.790   7.479  20.573  0.00  0.00    +0.000 A 
ATOM      6  N   UNL     1       2.293   7.409  19.248  0.00  0.00    +0.000 N 
ENDROOT
BRANCH   3   7
ATOM      7  S   UNL     1       0.722  10.905  19.360  0.00  0.00    +0.000 S 
ATOM      8  O   UNL     1       0.552  11.426  20.702  0.00  0.00    +0.000 OA
ATOM      9  O   UNL     1       1.615  11.560  18.429  0.00  0.00    +0.000 OA
BRANCH   7  10
ATOM     10  C   UNL     1      -0.896  10.849  18.632  0.00  0.00    +0.000 A 
ATOM     11  C   UNL     1      -1.914  11.638  19.173  0.00  0.00    +0.000 A 
ATOM     12  C   UNL     1      -3.176  11.601  18.591  0.00  0.00    +0.000 A 
ATOM     13  F   UNL     1      -4.159  12.347  19.109  0.00  0.00    +0.000 F 
ATOM     14  C   UNL     1      -3.435  10.803  17.483  0.00  0.00    +0.000 A 
ATOM     15  C   UNL     1      -2.404  10.040  16.948  0.00  0.00    +0.000 A 
ATOM     16  F   UNL     1      -2.645   9.272  15.879  0.00  0.00    +0.000 F 
ATOM     17  C   UNL     1      -1.129  10.059  17.502  0.00  0.00    +0.000 A 
ENDBRANCH   7  10
ENDBRANCH   3   7
BRANCH   6  18
ATOM     18  S   UNL     1       3.254   6.181  18.726  0.00  0.00    +0.000 S 
ATOM     19  O   UNL     1       3.173   6.054  17.289  0.00  0.00    +0.000 OA
ATOM     20  O   UNL     1       4.543   6.281  19.385  0.00  0.00    +0.000 OA
BRANCH  18  21
ATOM     21  C   UNL     1       2.430   4.772  19.429  0.00  0.00    +0.000 A 
ATOM     22  C   UNL     1       2.607   4.464  20.779  0.00  0.00    +0.000 A 
ATOM     23  C   UNL     1       1.940   3.362  21.307  0.00  0.00    +0.000 A 
ATOM     24  F   UNL     1       2.111   3.046  22.597  0.00  0.00    +0.000 F 
ATOM     25  C   UNL     1       1.104   2.578  20.520  0.00  0.00    +0.000 A 
ATOM     26  C   UNL     1       0.925   2.916  19.186  0.00  0.00    +0.000 A 
ATOM     27  F   UNL     1       0.115   2.175  18.420  0.00  0.00    +0.000 F 
ATOM     28  C   UNL     1       1.575   4.011  18.627  0.00  0.00    +0.000 A 
ENDBRANCH  18  21
ENDBRANCH   6  18
TORSDOF 4
ENDMDL
MODEL 3
REMARK VINA RESULT:      -8.5      0.369      1.596
REMARK  Name = 
REMARK  4 active torsions:
REMARK  status: ('A' for Active; 'I' for Inactive)
REMARK    1  A    between atoms: N_3  and  S_4
REMARK    2  A    between atoms: S_4  and  C_7
REMARK    3  A    between atoms: N_17  and  S_18
REMARK    4  A    between atoms: S_18  and  C_21
REMARK                            x       y       z     vdW  Elec       q    Type
REMARK                         _______ _______ _______ _____ _____    ______ ____
ROOT
ATOM      1  O   UNL     1       2.567   8.738  17.385  0.00  0.00    +0.000 OA
ATOM      2  C   UNL     1       2.211   8.399  18.497  0.00  0.00    +0.000 A 
ATOM      3  N   UNL     1       1.380   9.123  19.346  0.00  0.00    +0.000 N 
ATOM      4  C   UNL     1       1.286   8.402  20.567  0.00  0.00    +0.000 A 
ATOM      5  C   UNL     1       1.923   7.235  20.423  0.00  0.00    +0.000 A 
ATOM      6  N   UNL     1       2.507   7.200  19.130  0.00  0.00    +0.000 N 
ENDROOT
BRANCH   3   7
ATOM      7  S   UNL     1       1.013  10.729  19.274  0.00  0.00    +0.000 S 
ATOM      8  O   UNL     1       0.916  11.239  20.628  0.00  0.00    +0.000 OA
ATOM      9  O   UNL     1       1.886  11.368  18.313  0.00  0.00    +0.000 OA
BRANCH   7  10
ATOM     10  C   UNL     1      -0.634  10.730  18.615  0.00  0.00    +0.000 A 
ATOM     11  C   UNL     1      -1.605  11.540  19.209  0.00  0.00    +0.000 A 
ATOM     12  C   UNL     1      -2.891  11.548  18.680  0.00  0.00    +0.000 A 
ATOM     13  F   UNL     1      -3.829  12.314  19.250  0.00  0.00    +0.000 F 
ATOM     14  C   UNL     1      -3.220  10.774  17.574  0.00  0.00    +0.000 A 
ATOM     15  C   UNL     1      -2.235   9.990  16.986  0.00  0.00    +0.000 A 
ATOM     16  F   UNL     1      -2.543   9.244  15.917  0.00  0.00    +0.000 F 
ATOM     17  C   UNL     1      -0.938   9.963  17.486  0.00  0.00    +0.000 A 
ENDBRANCH   7  10
ENDBRANCH   3   7
BRANCH   6  18
ATOM     18  S   UNL     1       3.469   5.968  18.623  0.00  0.00    +0.000 S 
ATOM     19  O   UNL     1       3.430   5.857  17.183  0.00  0.00    +0.000 OA
ATOM     20  O   UNL     1       4.739   6.045  19.321  0.00  0.00    +0.000 OA
BRANCH  18  21
ATOM     21  C   UNL     1       2.610   4.560  19.285  0.00  0.00    +0.000 A 
ATOM     22  C   UNL     1       1.632   3.919  18.523  0.00  0.00    +0.000 A 
ATOM     23  C   UNL     1       0.983   2.812  19.061  0.00  0.00    +0.000 A 
ATOM     24  F   UNL     1       0.032   2.195  18.347  0.00  0.00    +0.000 F 
ATOM     25  C   UNL     1       1.297   2.334  20.328  0.00  0.00    +0.000 A 
ATOM     26  C   UNL     1       2.290   2.973  21.060  0.00  0.00    +0.000 A 
ATOM     27  F   UNL     1       2.608   2.518  22.278  0.00  0.00    +0.000 F 
ATOM     28  C   UNL     1       2.958   4.081  20.552  0.00  0.00    +0.000 A 
ENDBRANCH  18  21
ENDBRANCH   6  18
TORSDOF 4
ENDMDL
MODEL 4
REMARK VINA RESULT:      -8.4      0.158      1.562
REMARK  Name = 
REMARK  4 active torsions:
REMARK  status: ('A' for Active; 'I' for Inactive)
REMARK    1  A    between atoms: N_3  and  S_4
REMARK    2  A    between atoms: S_4  and  C_7
REMARK    3  A    between atoms: N_17  and  S_18
REMARK    4  A    between atoms: S_18  and  C_21
REMARK                            x       y       z     vdW  Elec       q    Type
REMARK                         _______ _______ _______ _____ _____    ______ ____
ROOT
ATOM      1  O   UNL     1       2.443   8.832  17.417  0.00  0.00    +0.000 OA
ATOM      2  C   UNL     1       2.100   8.521  18.541  0.00  0.00    +0.000 A 
ATOM      3  N   UNL     1       1.282   9.270  19.383  0.00  0.00    +0.000 N 
ATOM      4  C   UNL     1       1.202   8.581  20.623  0.00  0.00    +0.000 A 
ATOM      5  C   UNL     1       1.834   7.408  20.500  0.00  0.00    +0.000 A 
ATOM      6  N   UNL     1       2.400   7.339  19.201  0.00  0.00    +0.000 N 
ENDROOT
BRANCH   3   7
ATOM      7  S   UNL     1       0.920  10.874  19.274  0.00  0.00    +0.000 S 
ATOM      8  O   UNL     1       0.808  11.412  20.616  0.00  0.00    +0.000 OA
ATOM      9  O   UNL     1       1.805  11.493  18.310  0.00  0.00    +0.000 OA
BRANCH   7  10
ATOM     10  C   UNL     1      -0.721  10.866  18.597  0.00  0.00    +0.000 A 
ATOM     11  C   UNL     1      -1.012  10.011  17.530  0.00  0.00    +0.000 A 
ATOM     12  C   UNL     1      -2.302   9.998  17.012  0.00  0.00    +0.000 A 
ATOM     13  F   UNL     1      -2.587   9.189  15.984  0.00  0.00    +0.000 F 
ATOM     14  C   UNL     1      -3.299  10.810  17.539  0.00  0.00    +0.000 A 
ATOM     15  C   UNL     1      -2.993  11.639  18.612  0.00  0.00    +0.000 A 
ATOM     16  F   UNL     1      -3.949  12.421  19.128  0.00  0.00    +0.000 F 
ATOM     17  C   UNL     1      -1.715  11.672  19.158  0.00  0.00    +0.000 A 
ENDBRANCH   7  10
ENDBRANCH   3   7
BRANCH   6  18
ATOM     18  S   UNL     1       3.353   6.090  18.713  0.00  0.00    +0.000 S 
ATOM     19  O   UNL     1       3.292   5.942  17.277  0.00  0.00    +0.000 OA
ATOM     20  O   UNL     1       4.632   6.183  19.391  0.00  0.00    +0.000 OA
BRANCH  18  21
ATOM     21  C   UNL     1       2.499   4.703  19.424  0.00  0.00    +0.000 A 
ATOM     22  C   UNL     1       2.654   4.410  20.780  0.00  0.00    +0.000 A 
ATOM     23  C   UNL     1       1.965   3.325  21.313  0.00  0.00    +0.000 A 
ATOM     24  F   UNL     1       2.115   3.023  22.609  0.00  0.00    +0.000 F 
ATOM     25  C   UNL     1       1.125   2.544  20.527  0.00  0.00    +0.000 A 
ATOM     26  C   UNL     1       0.968   2.867  19.185  0.00  0.00    +0.000 A 
ATOM     27  F   UNL     1       0.156   2.128  18.419  0.00  0.00    +0.000 F 
ATOM     28  C   UNL     1       1.641   3.945  18.621  0.00  0.00    +0.000 A 
ENDBRANCH  18  21
ENDBRANCH   6  18
TORSDOF 4
ENDMDL
MODEL 5
REMARK VINA RESULT:      -8.4      5.182      8.421
REMARK  Name = 
REMARK  4 active torsions:
REMARK  status: ('A' for Active; 'I' for Inactive)
REMARK    1  A    between atoms: N_3  and  S_4
REMARK    2  A    between atoms: S_4  and  C_7
REMARK    3  A    between atoms: N_17  and  S_18
REMARK    4  A    between atoms: S_18  and  C_21
REMARK                            x       y       z     vdW  Elec       q    Type
REMARK                         _______ _______ _______ _____ _____    ______ ____
ROOT
ATOM      1  O   UNL     1       5.499   5.088  19.319  0.00  0.00    +0.000 OA
ATOM      2  C   UNL     1       4.995   4.606  18.323  0.00  0.00    +0.000 A 
ATOM      3  N   UNL     1       5.640   4.370  17.113  0.00  0.00    +0.000 N 
ATOM      4  C   UNL     1       4.669   3.875  16.202  0.00  0.00    +0.000 A 
ATOM      5  C   UNL     1       3.520   3.695  16.860  0.00  0.00    +0.000 A 
ATOM      6  N   UNL     1       3.696   4.138  18.197  0.00  0.00    +0.000 N 
ENDROOT
BRANCH   3   7
ATOM      7  S   UNL     1       7.055   5.026  16.578  0.00  0.00    +0.000 S 
ATOM      8  O   UNL     1       7.002   6.461  16.780  0.00  0.00    +0.000 OA
ATOM      9  O   UNL     1       8.160   4.254  17.105  0.00  0.00    +0.000 OA
BRANCH   7  10
ATOM     10  C   UNL     1       6.978   4.760  14.825  0.00  0.00    +0.000 A 
ATOM     11  C   UNL     1       7.707   5.597  13.976  0.00  0.00    +0.000 A 
ATOM     12  C   UNL     1       7.654   5.375  12.605  0.00  0.00    +0.000 A 
ATOM     13  F   UNL     1       8.343   6.178  11.784  0.00  0.00    +0.000 F 
ATOM     14  C   UNL     1       6.899   4.338  12.071  0.00  0.00    +0.000 A 
ATOM     15  C   UNL     1       6.196   3.505  12.933  0.00  0.00    +0.000 A 
ATOM     16  F   UNL     1       5.469   2.502  12.427  0.00  0.00    +0.000 F 
ATOM     17  C   UNL     1       6.233   3.695  14.310  0.00  0.00    +0.000 A 
ENDBRANCH   7  10
ENDBRANCH   3   7
BRANCH   6  18
ATOM     18  S   UNL     1       2.466   4.180  19.288  0.00  0.00    +0.000 S 
ATOM     19  O   UNL     1       1.278   3.574  18.731  0.00  0.00    +0.000 OA
ATOM     20  O   UNL     1       2.970   3.757  20.581  0.00  0.00    +0.000 OA
BRANCH  18  21
ATOM     21  C   UNL     1       2.164   5.927  19.405  0.00  0.00    +0.000 A 
ATOM     22  C   UNL     1       1.751   6.483  20.617  0.00  0.00    +0.000 A 
ATOM     23  C   UNL     1       1.534   7.856  20.683  0.00  0.00    +0.000 A 
ATOM     24  F   UNL     1       1.124   8.402  21.836  0.00  0.00    +0.000 F 
ATOM     25  C   UNL     1       1.728   8.674  19.576  0.00  0.00    +0.000 A 
ATOM     26  C   UNL     1       2.161   8.103  18.386  0.00  0.00    +0.000 A 
ATOM     27  F   UNL     1       2.360   8.880  17.315  0.00  0.00    +0.000 F 
ATOM     28  C   UNL     1       2.388   6.735  18.286  0.00  0.00    +0.000 A 
ENDBRANCH  18  21
ENDBRANCH   6  18
TORSDOF 4
ENDMDL
MODEL 6
REMARK VINA RESULT:      -8.4      5.257      8.381
REMARK  Name = 
REMARK  4 active torsions:
REMARK  status: ('A' for Active; 'I' for Inactive)
REMARK    1  A    between atoms: N_3  and  S_4
REMARK    2  A    between atoms: S_4  and  C_7
REMARK    3  A    between atoms: N_17  and  S_18
REMARK    4  A    between atoms: S_18  and  C_21
REMARK                            x       y       z     vdW  Elec       q    Type
REMARK                         _______ _______ _______ _____ _____    ______ ____
ROOT
ATOM      1  O   UNL     1       5.784   4.637  19.289  0.00  0.00    +0.000 OA
ATOM      2  C   UNL     1       5.148   4.470  18.267  0.00  0.00    +0.000 A 
ATOM      3  N   UNL     1       5.670   4.420  16.978  0.00  0.00    +0.000 N 
ATOM      4  C   UNL     1       4.576   4.289  16.080  0.00  0.00    +0.000 A 
ATOM      5  C   UNL     1       3.456   4.136  16.793  0.00  0.00    +0.000 A 
ATOM      6  N   UNL     1       3.784   4.236  18.170  0.00  0.00    +0.000 N 
ENDROOT
BRANCH   3   7
ATOM      7  S   UNL     1       7.137   4.966  16.460  0.00  0.00    +0.000 S 
ATOM      8  O   UNL     1       7.196   6.399  16.674  0.00  0.00    +0.000 OA
ATOM      9  O   UNL     1       8.173   4.105  16.991  0.00  0.00    +0.000 OA
BRANCH   7  10
ATOM     10  C   UNL     1       7.055   4.720  14.705  0.00  0.00    +0.000 A 
ATOM     11  C   UNL     1       7.726   5.609  13.861  0.00  0.00    +0.000 A 
ATOM     12  C   UNL     1       7.670   5.404  12.487  0.00  0.00    +0.000 A 
ATOM     13  F   UNL     1       8.303   6.256  11.671  0.00  0.00    +0.000 F 
ATOM     14  C   UNL     1       6.969   4.333  11.946  0.00  0.00    +0.000 A 
ATOM     15  C   UNL     1       6.324   3.450  12.804  0.00  0.00    +0.000 A 
ATOM     16  F   UNL     1       5.650   2.414  12.290  0.00  0.00    +0.000 F 
ATOM     17  C   UNL     1       6.365   3.622  14.182  0.00  0.00    +0.000 A 
ENDBRANCH   7  10
ENDBRANCH   3   7
BRANCH   6  18
ATOM     18  S   UNL     1       2.647   4.211  19.358  0.00  0.00    +0.000 S 
ATOM     19  O   UNL     1       1.450   3.547  18.896  0.00  0.00    +0.000 OA
ATOM     20  O   UNL     1       3.277   3.811  20.602  0.00  0.00    +0.000 OA
BRANCH  18  21
ATOM     21  C   UNL     1       2.267   5.940  19.512  0.00  0.00    +0.000 A 
ATOM     22  C   UNL     1       2.443   6.792  18.421  0.00  0.00    +0.000 A 
ATOM     23  C   UNL     1       2.126   8.140  18.566  0.00  0.00    +0.000 A 
ATOM     24  F   UNL     1       2.304   8.972  17.532  0.00  0.00    +0.000 F 
ATOM     25  C   UNL     1       1.633   8.642  19.765  0.00  0.00    +0.000 A 
ATOM     26  C   UNL     1       1.443   7.772  20.831  0.00  0.00    +0.000 A 
ATOM     27  F   UNL     1       0.961   8.240  21.988  0.00  0.00    +0.000 F 
ATOM     28  C   UNL     1       1.749   6.420  20.719  0.00  0.00    +0.000 A 
ENDBRANCH  18  21
ENDBRANCH   6  18
TORSDOF 4
ENDMDL
MODEL 7
REMARK VINA RESULT:      -8.3      3.432      4.380
REMARK  Name = 
REMARK  4 active torsions:
REMARK  status: ('A' for Active; 'I' for Inactive)
REMARK    1  A    between atoms: N_3  and  S_4
REMARK    2  A    between atoms: S_4  and  C_7
REMARK    3  A    between atoms: N_17  and  S_18
REMARK    4  A    between atoms: S_18  and  C_21
REMARK                            x       y       z     vdW  Elec       q    Type
REMARK                         _______ _______ _______ _____ _____    ______ ____
ROOT
ATOM      1  O   UNL     1       1.677   5.784  21.247  0.00  0.00    +0.000 OA
ATOM      2  C   UNL     1       1.917   6.498  20.293  0.00  0.00    +0.000 A 
ATOM      3  N   UNL     1       1.746   7.878  20.241  0.00  0.00    +0.000 N 
ATOM      4  C   UNL     1       2.071   8.298  18.923  0.00  0.00    +0.000 A 
ATOM      5  C   UNL     1       2.540   7.246  18.244  0.00  0.00    +0.000 A 
ATOM      6  N   UNL     1       2.464   6.103  19.081  0.00  0.00    +0.000 N 
ENDROOT
BRANCH   3   7
ATOM      7  S   UNL     1       0.827   8.820  21.234  0.00  0.00    +0.000 S 
ATOM      8  O   UNL     1      -0.411   8.121  21.515  0.00  0.00    +0.000 OA
ATOM      9  O   UNL     1       1.654   9.307  22.318  0.00  0.00    +0.000 OA
BRANCH   7  10
ATOM     10  C   UNL     1       0.405  10.197  20.196  0.00  0.00    +0.000 A 
ATOM     11  C   UNL     1      -0.687  10.088  19.332  0.00  0.00    +0.000 A 
ATOM     12  C   UNL     1      -1.022  11.174  18.531  0.00  0.00    +0.000 A 
ATOM     13  F   UNL     1      -2.062  11.074  17.694  0.00  0.00    +0.000 F 
ATOM     14  C   UNL     1      -0.297  12.358  18.583  0.00  0.00    +0.000 A 
ATOM     15  C   UNL     1       0.774  12.453  19.463  0.00  0.00    +0.000 A 
ATOM     16  F   UNL     1       1.475  13.591  19.521  0.00  0.00    +0.000 F 
ATOM     17  C   UNL     1       1.132  11.388  20.282  0.00  0.00    +0.000 A 
ENDBRANCH   7  10
ENDBRANCH   3   7
BRANCH   6  18
ATOM     18  S   UNL     1       2.848   4.592  18.558  0.00  0.00    +0.000 S 
ATOM     19  O   UNL     1       2.706   3.636  19.632  0.00  0.00    +0.000 OA
ATOM     20  O   UNL     1       2.207   4.361  17.277  0.00  0.00    +0.000 OA
BRANCH  18  21
ATOM     21  C   UNL     1       4.586   4.767  18.233  0.00  0.00    +0.000 A 
ATOM     22  C   UNL     1       5.437   5.245  19.232  0.00  0.00    +0.000 A 
ATOM     23  C   UNL     1       6.796   5.361  18.954  0.00  0.00    +0.000 A 
ATOM     24  F   UNL     1       7.622   5.831  19.898  0.00  0.00    +0.000 F 
ATOM     25  C   UNL     1       7.314   5.003  17.715  0.00  0.00    +0.000 A 
ATOM     26  C   UNL     1       6.453   4.508  16.744  0.00  0.00    +0.000 A 
ATOM     27  F   UNL     1       6.941   4.152  15.550  0.00  0.00    +0.000 F 
ATOM     28  C   UNL     1       5.091   4.379  16.989  0.00  0.00    +0.000 A 
ENDBRANCH  18  21
ENDBRANCH   6  18
TORSDOF 4
ENDMDL
MODEL 8
REMARK VINA RESULT:      -8.3      3.446      4.129
REMARK  Name = 
REMARK  4 active torsions:
REMARK  status: ('A' for Active; 'I' for Inactive)
REMARK    1  A    between atoms: N_3  and  S_4
REMARK    2  A    between atoms: S_4  and  C_7
REMARK    3  A    between atoms: N_17  and  S_18
REMARK    4  A    between atoms: S_18  and  C_21
REMARK                            x       y       z     vdW  Elec       q    Type
REMARK                         _______ _______ _______ _____ _____    ______ ____
ROOT
ATOM      1  O   UNL     1       1.744   5.766  21.248  0.00  0.00    +0.000 OA
ATOM      2  C   UNL     1       1.960   6.474  20.283  0.00  0.00    +0.000 A 
ATOM      3  N   UNL     1       1.776   7.851  20.222  0.00  0.00    +0.000 N 
ATOM      4  C   UNL     1       2.072   8.262  18.894  0.00  0.00    +0.000 A 
ATOM      5  C   UNL     1       2.538   7.208  18.216  0.00  0.00    +0.000 A 
ATOM      6  N   UNL     1       2.488   6.072  19.065  0.00  0.00    +0.000 N 
ENDROOT
BRANCH   3   7
ATOM      7  S   UNL     1       0.868   8.795  21.223  0.00  0.00    +0.000 S 
ATOM      8  O   UNL     1      -0.367   8.095  21.519  0.00  0.00    +0.000 OA
ATOM      9  O   UNL     1       1.706   9.285  22.297  0.00  0.00    +0.000 OA
BRANCH   7  10
ATOM     10  C   UNL     1       0.433  10.169  20.188  0.00  0.00    +0.000 A 
ATOM     11  C   UNL     1      -0.697  10.076  19.371  0.00  0.00    +0.000 A 
ATOM     12  C   UNL     1      -1.041  11.160  18.572  0.00  0.00    +0.000 A 
ATOM     13  F   UNL     1      -2.117  11.075  17.780  0.00  0.00    +0.000 F 
ATOM     14  C   UNL     1      -0.289  12.328  18.579  0.00  0.00    +0.000 A 
ATOM     15  C   UNL     1       0.821  12.408  19.412  0.00  0.00    +0.000 A 
ATOM     16  F   UNL     1       1.549  13.531  19.428  0.00  0.00    +0.000 F 
ATOM     17  C   UNL     1       1.189  11.344  20.228  0.00  0.00    +0.000 A 
ENDBRANCH   7  10
ENDBRANCH   3   7
BRANCH   6  18
ATOM     18  S   UNL     1       2.875   4.560  18.549  0.00  0.00    +0.000 S 
ATOM     19  O   UNL     1       2.720   3.605  19.622  0.00  0.00    +0.000 OA
ATOM     20  O   UNL     1       2.248   4.328  17.261  0.00  0.00    +0.000 OA
BRANCH  18  21
ATOM     21  C   UNL     1       4.618   4.732  18.243  0.00  0.00    +0.000 A 
ATOM     22  C   UNL     1       5.140   4.412  16.988  0.00  0.00    +0.000 A 
ATOM     23  C   UNL     1       6.506   4.568  16.772  0.00  0.00    +0.000 A 
ATOM     24  F   UNL     1       7.023   4.252  15.578  0.00  0.00    +0.000 F 
ATOM     25  C   UNL     1       7.347   5.041  17.773  0.00  0.00    +0.000 A 
ATOM     26  C   UNL     1       6.803   5.376  19.006  0.00  0.00    +0.000 A 
ATOM     27  F   UNL     1       7.600   5.841  19.975  0.00  0.00    +0.000 F 
ATOM     28  C   UNL     1       5.443   5.233  19.254  0.00  0.00    +0.000 A 
ENDBRANCH  18  21
ENDBRANCH   6  18
TORSDOF 4
ENDMDL
MODEL 9
REMARK VINA RESULT:      -8.3      3.444      4.492
REMARK  Name = 
REMARK  4 active torsions:
REMARK  status: ('A' for Active; 'I' for Inactive)
REMARK    1  A    between atoms: N_3  and  S_4
REMARK    2  A    between atoms: S_4  and  C_7
REMARK    3  A    between atoms: N_17  and  S_18
REMARK    4  A    between atoms: S_18  and  C_21
REMARK                            x       y       z     vdW  Elec       q    Type
REMARK                         _______ _______ _______ _____ _____    ______ ____
ROOT
ATOM      1  O   UNL     1       1.676   5.754  21.244  0.00  0.00    +0.000 OA
ATOM      2  C   UNL     1       1.922   6.478  20.299  0.00  0.00    +0.000 A 
ATOM      3  N   UNL     1       1.747   7.857  20.257  0.00  0.00    +0.000 N 
ATOM      4  C   UNL     1       2.080   8.290  18.946  0.00  0.00    +0.000 A 
ATOM      5  C   UNL     1       2.558   7.246  18.261  0.00  0.00    +0.000 A 
ATOM      6  N   UNL     1       2.479   6.095  19.088  0.00  0.00    +0.000 N 
ENDROOT
BRANCH   3   7
ATOM      7  S   UNL     1       0.818   8.788  21.252  0.00  0.00    +0.000 S 
ATOM      8  O   UNL     1      -0.415   8.077  21.528  0.00  0.00    +0.000 OA
ATOM      9  O   UNL     1       1.638   9.279  22.338  0.00  0.00    +0.000 OA
BRANCH   7  10
ATOM     10  C   UNL     1       0.385  10.164  20.217  0.00  0.00    +0.000 A 
ATOM     11  C   UNL     1       1.148  11.333  20.284  0.00  0.00    +0.000 A 
ATOM     12  C   UNL     1       0.813  12.403  19.462  0.00  0.00    +0.000 A 
ATOM     13  F   UNL     1       1.533  13.529  19.527  0.00  0.00    +0.000 F 
ATOM     14  C   UNL     1      -0.256  12.325  18.577  0.00  0.00    +0.000 A 
ATOM     15  C   UNL     1      -0.991  11.147  18.513  0.00  0.00    +0.000 A 
ATOM     16  F   UNL     1      -2.019  11.063  17.660  0.00  0.00    +0.000 F 
ATOM     17  C   UNL     1      -0.678  10.056  19.316  0.00  0.00    +0.000 A 
ENDBRANCH   7  10
ENDBRANCH   3   7
BRANCH   6  18
ATOM     18  S   UNL     1       2.872   4.590  18.554  0.00  0.00    +0.000 S 
ATOM     19  O   UNL     1       2.727   3.624  19.619  0.00  0.00    +0.000 OA
ATOM     20  O   UNL     1       2.239   4.367  17.267  0.00  0.00    +0.000 OA
BRANCH  18  21
ATOM     21  C   UNL     1       4.611   4.774  18.241  0.00  0.00    +0.000 A 
ATOM     22  C   UNL     1       5.457   5.233  19.252  0.00  0.00    +0.000 A 
ATOM     23  C   UNL     1       6.817   5.357  18.983  0.00  0.00    +0.000 A 
ATOM     24  F   UNL     1       7.638   5.809  19.940  0.00  0.00    +0.000 F 
ATOM     25  C   UNL     1       7.341   5.025  17.739  0.00  0.00    +0.000 A 
ATOM     26  C   UNL     1       6.485   4.548  16.755  0.00  0.00    +0.000 A 
ATOM     27  F   UNL     1       6.979   4.217  15.556  0.00  0.00    +0.000 F 
ATOM     28  C   UNL     1       5.122   4.412  16.991  0.00  0.00    +0.000 A 
ENDBRANCH  18  21
ENDBRANCH   6  18
TORSDOF 4
ENDMDL
