MODEL 1
REMARK VINA RESULT:      -7.6      0.000      0.000
REMARK  Name = 
REMARK  3 active torsions:
REMARK  status: ('A' for Active; 'I' for Inactive)
REMARK    1  A    between atoms: C_6  and  C_7
REMARK    2  A    between atoms: C_7  and  S_8
REMARK    3  A    between atoms: S_8  and  C_9
REMARK                            x       y       z     vdW  Elec       q    Type
REMARK                         _______ _______ _______ _____ _____    ______ ____
ROOT
ATOM      1  S   UNL     1       4.573   7.054  17.256  0.00  0.00    +0.000 S 
ENDROOT
BRANCH   1   2
ATOM      2  C   UNL     1       3.675   5.656  17.904  0.00  0.00    +0.000 A 
ATOM      3  C   UNL     1       3.414   4.541  17.112  0.00  0.00    +0.000 A 
ATOM      4  C   UNL     1       2.788   3.414  17.659  0.00  0.00    +0.000 A 
ATOM      5  C   UNL     1       2.412   3.383  19.014  0.00  0.00    +0.000 A 
ATOM      6  C   UNL     1       1.798   2.255  19.583  0.00  0.00    +0.000 A 
ATOM      7  C   UNL     1       1.435   2.241  20.932  0.00  0.00    +0.000 A 
ATOM      8  C   UNL     1       1.682   3.356  21.728  0.00  0.00    +0.000 A 
ATOM      9  C   UNL     1       2.294   4.483  21.177  0.00  0.00    +0.000 A 
ATOM     10  C   UNL     1       2.664   4.514  19.821  0.00  0.00    +0.000 A 
ATOM     11  C   UNL     1       3.296   5.638  19.254  0.00  0.00    +0.000 A 
ENDBRANCH   1   2
BRANCH   1  12
ATOM     12  C   UNL     1       5.803   6.246  16.153  0.00  0.00    +0.000 C 
BRANCH  12  18
ATOM     13  O   UNL     1       7.983   5.247  20.390  0.00  0.00    +0.000 OA
ATOM     14  C   UNL     1       7.788   5.654  19.260  0.00  0.00    +0.000 C 
ATOM     15  N   UNL     1       7.983   6.925  18.839  0.00  0.00    +0.000 N 
ATOM     16  C   UNL     1       7.671   7.250  17.561  0.00  0.00    +0.000 C 
ATOM     17  O   UNL     1       7.793   8.392  17.140  0.00  0.00    +0.000 OA
ATOM     18  C   UNL     1       7.197   6.054  16.749  0.00  0.00    +0.000 C 
ATOM     19  S   UNL     1       7.196   4.667  17.950  0.00  0.00    +0.000 S 
ATOM     20  H   UNL     1       8.301   7.633  19.479  0.00  0.00    +0.000 HD
ENDBRANCH  12  18
ENDBRANCH   1  12
TORSDOF 3
ENDMDL
MODEL 2
REMARK VINA RESULT:      -7.5      1.431      2.349
REMARK  Name = 
REMARK  3 active torsions:
REMARK  status: ('A' for Active; 'I' for Inactive)
REMARK    1  A    between atoms: C_6  and  C_7
REMARK    2  A    between atoms: C_7  and  S_8
REMARK    3  A    between atoms: S_8  and  C_9
REMARK                            x       y       z     vdW  Elec       q    Type
REMARK                         _______ _______ _______ _____ _____    ______ ____
ROOT
ATOM      1  S   UNL     1       5.543   3.932  16.192  0.00  0.00    +0.000 S 
ENDROOT
BRANCH   1   2
ATOM      2  C   UNL     1       4.208   3.935  17.375  0.00  0.00    +0.000 A 
ATOM      3  C   UNL     1       2.973   4.496  17.061  0.00  0.00    +0.000 A 
ATOM      4  C   UNL     1       1.906   4.411  17.964  0.00  0.00    +0.000 A 
ATOM      5  C   UNL     1       2.058   3.761  19.202  0.00  0.00    +0.000 A 
ATOM      6  C   UNL     1       0.994   3.653  20.113  0.00  0.00    +0.000 A 
ATOM      7  C   UNL     1       1.162   2.998  21.336  0.00  0.00    +0.000 A 
ATOM      8  C   UNL     1       2.396   2.445  21.663  0.00  0.00    +0.000 A 
ATOM      9  C   UNL     1       3.462   2.542  20.765  0.00  0.00    +0.000 A 
ATOM     10  C   UNL     1       3.310   3.198  19.531  0.00  0.00    +0.000 A 
ATOM     11  C   UNL     1       4.371   3.291  18.610  0.00  0.00    +0.000 A 
ENDBRANCH   1   2
BRANCH   1  12
ATOM     12  C   UNL     1       6.976   4.442  17.225  0.00  0.00    +0.000 C 
BRANCH  12  18
ATOM     13  O   UNL     1       8.292   9.102  17.735  0.00  0.00    +0.000 OA
ATOM     14  C   UNL     1       7.897   7.979  17.990  0.00  0.00    +0.000 C 
ATOM     15  N   UNL     1       8.402   7.168  18.947  0.00  0.00    +0.000 N 
ATOM     16  C   UNL     1       7.897   5.918  19.084  0.00  0.00    +0.000 C 
ATOM     17  O   UNL     1       8.341   5.131  19.908  0.00  0.00    +0.000 OA
ATOM     18  C   UNL     1       6.738   5.645  18.137  0.00  0.00    +0.000 C 
ATOM     19  S   UNL     1       6.595   7.183  17.147  0.00  0.00    +0.000 S 
ATOM     20  H   UNL     1       9.178   7.465  19.513  0.00  0.00    +0.000 HD
ENDBRANCH  12  18
ENDBRANCH   1  12
TORSDOF 3
ENDMDL
MODEL 3
REMARK VINA RESULT:      -7.4      0.886      1.812
REMARK  Name = 
REMARK  3 active torsions:
REMARK  status: ('A' for Active; 'I' for Inactive)
REMARK    1  A    between atoms: C_6  and  C_7
REMARK    2  A    between atoms: C_7  and  S_8
REMARK    3  A    between atoms: S_8  and  C_9
REMARK                            x       y       z     vdW  Elec       q    Type
REMARK                         _______ _______ _______ _____ _____    ______ ____
ROOT
ATOM      1  S   UNL     1       4.524   7.491  17.372  0.00  0.00    +0.000 S 
ENDROOT
BRANCH   1   2
ATOM      2  C   UNL     1       3.512   6.350  18.297  0.00  0.00    +0.000 A 
ATOM      3  C   UNL     1       2.919   6.729  19.499  0.00  0.00    +0.000 A 
ATOM      4  C   UNL     1       2.054   5.854  20.168  0.00  0.00    +0.000 A 
ATOM      5  C   UNL     1       1.766   4.581  19.644  0.00  0.00    +0.000 A 
ATOM      6  C   UNL     1       0.889   3.697  20.294  0.00  0.00    +0.000 A 
ATOM      7  C   UNL     1       0.611   2.438  19.756  0.00  0.00    +0.000 A 
ATOM      8  C   UNL     1       1.209   2.047  18.561  0.00  0.00    +0.000 A 
ATOM      9  C   UNL     1       2.081   2.916  17.903  0.00  0.00    +0.000 A 
ATOM     10  C   UNL     1       2.372   4.187  18.431  0.00  0.00    +0.000 A 
ATOM     11  C   UNL     1       3.237   5.080  17.770  0.00  0.00    +0.000 A 
ENDBRANCH   1   2
BRANCH   1  12
ATOM     12  C   UNL     1       5.505   6.360  16.305  0.00  0.00    +0.000 C 
BRANCH  12  18
ATOM     13  O   UNL     1       7.874   5.275  20.417  0.00  0.00    +0.000 OA
ATOM     14  C   UNL     1       7.641   5.659  19.286  0.00  0.00    +0.000 C 
ATOM     15  N   UNL     1       7.944   6.883  18.795  0.00  0.00    +0.000 N 
ATOM     16  C   UNL     1       7.575   7.194  17.529  0.00  0.00    +0.000 C 
ATOM     17  O   UNL     1       7.791   8.298  17.049  0.00  0.00    +0.000 OA
ATOM     18  C   UNL     1       6.910   6.031  16.807  0.00  0.00    +0.000 C 
ATOM     19  S   UNL     1       6.845   4.699  18.068  0.00  0.00    +0.000 S 
ATOM     20  H   UNL     1       8.387   7.573  19.378  0.00  0.00    +0.000 HD
ENDBRANCH  12  18
ENDBRANCH   1  12
TORSDOF 3
ENDMDL
MODEL 4
REMARK VINA RESULT:      -7.4      2.439      3.761
REMARK  Name = 
REMARK  3 active torsions:
REMARK  status: ('A' for Active; 'I' for Inactive)
REMARK    1  A    between atoms: C_6  and  C_7
REMARK    2  A    between atoms: C_7  and  S_8
REMARK    3  A    between atoms: S_8  and  C_9
REMARK                            x       y       z     vdW  Elec       q    Type
REMARK                         _______ _______ _______ _____ _____    ______ ____
ROOT
ATOM      1  S   UNL     1       3.964   3.263  17.913  0.00  0.00    +0.000 S 
ENDROOT
BRANCH   1   2
ATOM      2  C   UNL     1       3.116   4.618  18.706  0.00  0.00    +0.000 A 
ATOM      3  C   UNL     1       2.697   4.525  20.030  0.00  0.00    +0.000 A 
ATOM      4  C   UNL     1       2.115   5.628  20.667  0.00  0.00    +0.000 A 
ATOM      5  C   UNL     1       1.940   6.846  19.987  0.00  0.00    +0.000 A 
ATOM      6  C   UNL     1       1.372   7.967  20.616  0.00  0.00    +0.000 A 
ATOM      7  C   UNL     1       1.211   9.170  19.925  0.00  0.00    +0.000 A 
ATOM      8  C   UNL     1       1.616   9.268  18.597  0.00  0.00    +0.000 A 
ATOM      9  C   UNL     1       2.186   8.163  17.961  0.00  0.00    +0.000 A 
ATOM     10  C   UNL     1       2.353   6.944  18.640  0.00  0.00    +0.000 A 
ATOM     11  C   UNL     1       2.940   5.826  18.016  0.00  0.00    +0.000 A 
ENDBRANCH   1   2
BRANCH   1  12
ATOM     12  C   UNL     1       4.777   4.096  16.489  0.00  0.00    +0.000 C 
BRANCH  12  18
ATOM     13  O   UNL     1       7.988   7.253  18.340  0.00  0.00    +0.000 OA
ATOM     14  C   UNL     1       7.492   6.380  17.652  0.00  0.00    +0.000 C 
ATOM     15  N   UNL     1       7.465   6.369  16.299  0.00  0.00    +0.000 N 
ATOM     16  C   UNL     1       6.828   5.356  15.663  0.00  0.00    +0.000 C 
ATOM     17  O   UNL     1       6.741   5.317  14.443  0.00  0.00    +0.000 OA
ATOM     18  C   UNL     1       6.285   4.308  16.621  0.00  0.00    +0.000 C 
ATOM     19  S   UNL     1       6.697   4.964  18.285  0.00  0.00    +0.000 S 
ATOM     20  H   UNL     1       7.861   7.130  15.773  0.00  0.00    +0.000 HD
ENDBRANCH  12  18
ENDBRANCH   1  12
TORSDOF 3
ENDMDL
MODEL 5
REMARK VINA RESULT:      -7.4      3.263      5.812
REMARK  Name = 
REMARK  3 active torsions:
REMARK  status: ('A' for Active; 'I' for Inactive)
REMARK    1  A    between atoms: C_6  and  C_7
REMARK    2  A    between atoms: C_7  and  S_8
REMARK    3  A    between atoms: S_8  and  C_9
REMARK                            x       y       z     vdW  Elec       q    Type
REMARK                         _______ _______ _______ _____ _____    ______ ____
ROOT
ATOM      1  S   UNL     1       2.557   5.455  19.856  0.00  0.00    +0.000 S 
ENDROOT
BRANCH   1   2
ATOM      2  C   UNL     1       4.011   5.337  18.830  0.00  0.00    +0.000 A 
ATOM      3  C   UNL     1       5.284   5.302  19.391  0.00  0.00    +0.000 A 
ATOM      4  C   UNL     1       6.411   5.117  18.580  0.00  0.00    +0.000 A 
ATOM      5  C   UNL     1       6.282   4.963  17.188  0.00  0.00    +0.000 A 
ATOM      6  C   UNL     1       7.400   4.762  16.361  0.00  0.00    +0.000 A 
ATOM      7  C   UNL     1       7.251   4.606  14.981  0.00  0.00    +0.000 A 
ATOM      8  C   UNL     1       5.982   4.651  14.411  0.00  0.00    +0.000 A 
ATOM      9  C   UNL     1       4.862   4.848  15.220  0.00  0.00    +0.000 A 
ATOM     10  C   UNL     1       4.994   5.008  16.611  0.00  0.00    +0.000 A 
ATOM     11  C   UNL     1       3.872   5.192  17.442  0.00  0.00    +0.000 A 
ENDBRANCH   1   2
BRANCH   1  12
ATOM     12  C   UNL     1       1.511   4.089  19.205  0.00  0.00    +0.000 C 
BRANCH  12  18
ATOM     13  O   UNL     1       5.318   1.717  21.098  0.00  0.00    +0.000 OA
ATOM     14  C   UNL     1       4.295   1.954  20.482  0.00  0.00    +0.000 C 
ATOM     15  N   UNL     1       4.087   1.683  19.173  0.00  0.00    +0.000 N 
ATOM     16  C   UNL     1       2.915   2.053  18.604  0.00  0.00    +0.000 C 
ATOM     17  O   UNL     1       2.689   1.866  17.415  0.00  0.00    +0.000 OA
ATOM     18  C   UNL     1       1.948   2.679  19.598  0.00  0.00    +0.000 C 
ATOM     19  S   UNL     1       2.887   2.713  21.174  0.00  0.00    +0.000 S 
ATOM     20  H   UNL     1       4.812   1.265  18.615  0.00  0.00    +0.000 HD
ENDBRANCH  12  18
ENDBRANCH   1  12
TORSDOF 3
ENDMDL
MODEL 6
REMARK VINA RESULT:      -7.4      1.312      1.408
REMARK  Name = 
REMARK  3 active torsions:
REMARK  status: ('A' for Active; 'I' for Inactive)
REMARK    1  A    between atoms: C_6  and  C_7
REMARK    2  A    between atoms: C_7  and  S_8
REMARK    3  A    between atoms: S_8  and  C_9
REMARK                            x       y       z     vdW  Elec       q    Type
REMARK                         _______ _______ _______ _____ _____    ______ ____
ROOT
ATOM      1  S   UNL     1       5.114   4.043  15.988  0.00  0.00    +0.000 S 
ENDROOT
BRANCH   1   2
ATOM      2  C   UNL     1       3.872   3.961  17.267  0.00  0.00    +0.000 A 
ATOM      3  C   UNL     1       2.569   4.388  17.030  0.00  0.00    +0.000 A 
ATOM      4  C   UNL     1       1.583   4.234  18.013  0.00  0.00    +0.000 A 
ATOM      5  C   UNL     1       1.887   3.647  19.254  0.00  0.00    +0.000 A 
ATOM      6  C   UNL     1       0.907   3.471  20.246  0.00  0.00    +0.000 A 
ATOM      7  C   UNL     1       1.226   2.882  21.472  0.00  0.00    +0.000 A 
ATOM      8  C   UNL     1       2.530   2.463  21.721  0.00  0.00    +0.000 A 
ATOM      9  C   UNL     1       3.514   2.630  20.744  0.00  0.00    +0.000 A 
ATOM     10  C   UNL     1       3.210   3.221  19.506  0.00  0.00    +0.000 A 
ATOM     11  C   UNL     1       4.187   3.382  18.505  0.00  0.00    +0.000 A 
ENDBRANCH   1   2
BRANCH   1  12
ATOM     12  C   UNL     1       5.727   5.769  16.154  0.00  0.00    +0.000 C 
BRANCH  12  18
ATOM     13  O   UNL     1       8.432   5.165  20.157  0.00  0.00    +0.000 OA
ATOM     14  C   UNL     1       8.047   5.560  19.072  0.00  0.00    +0.000 C 
ATOM     15  N   UNL     1       7.880   6.857  18.724  0.00  0.00    +0.000 N 
ATOM     16  C   UNL     1       7.392   7.150  17.495  0.00  0.00    +0.000 C 
ATOM     17  O   UNL     1       7.187   8.304  17.143  0.00  0.00    +0.000 OA
ATOM     18  C   UNL     1       7.169   5.913  16.639  0.00  0.00    +0.000 C 
ATOM     19  S   UNL     1       7.617   4.517  17.744  0.00  0.00    +0.000 S 
ATOM     20  H   UNL     1       8.061   7.592  19.387  0.00  0.00    +0.000 HD
ENDBRANCH  12  18
ENDBRANCH   1  12
TORSDOF 3
ENDMDL
MODEL 7
REMARK VINA RESULT:      -7.4      3.966      5.659
REMARK  Name = 
REMARK  3 active torsions:
REMARK  status: ('A' for Active; 'I' for Inactive)
REMARK    1  A    between atoms: C_6  and  C_7
REMARK    2  A    between atoms: C_7  and  S_8
REMARK    3  A    between atoms: S_8  and  C_9
REMARK                            x       y       z     vdW  Elec       q    Type
REMARK                         _______ _______ _______ _____ _____    ______ ____
ROOT
ATOM      1  S   UNL     1       4.749   4.360  18.003  0.00  0.00    +0.000 S 
ENDROOT
BRANCH   1   2
ATOM      2  C   UNL     1       3.830   5.855  18.324  0.00  0.00    +0.000 A 
ATOM      3  C   UNL     1       3.774   6.879  17.383  0.00  0.00    +0.000 A 
ATOM      4  C   UNL     1       2.975   8.006  17.610  0.00  0.00    +0.000 A 
ATOM      5  C   UNL     1       2.216   8.129  18.787  0.00  0.00    +0.000 A 
ATOM      6  C   UNL     1       1.398   9.246  19.024  0.00  0.00    +0.000 A 
ATOM      7  C   UNL     1       0.647   9.348  20.198  0.00  0.00    +0.000 A 
ATOM      8  C   UNL     1       0.706   8.333  21.149  0.00  0.00    +0.000 A 
ATOM      9  C   UNL     1       1.513   7.216  20.926  0.00  0.00    +0.000 A 
ATOM     10  C   UNL     1       2.276   7.098  19.751  0.00  0.00    +0.000 A 
ATOM     11  C   UNL     1       3.083   5.970  19.505  0.00  0.00    +0.000 A 
ENDBRANCH   1   2
BRANCH   1  12
ATOM     12  C   UNL     1       4.725   3.530  19.644  0.00  0.00    +0.000 C 
BRANCH  12  18
ATOM     13  O   UNL     1       0.215   2.242  18.341  0.00  0.00    +0.000 OA
ATOM     14  C   UNL     1       1.270   2.302  18.946  0.00  0.00    +0.000 C 
ATOM     15  N   UNL     1       1.401   2.542  20.271  0.00  0.00    +0.000 N 
ATOM     16  C   UNL     1       2.643   2.635  20.802  0.00  0.00    +0.000 C 
ATOM     17  O   UNL     1       2.819   2.887  21.987  0.00  0.00    +0.000 OA
ATOM     18  C   UNL     1       3.741   2.370  19.783  0.00  0.00    +0.000 C 
ATOM     19  S   UNL     1       2.837   2.104  18.209  0.00  0.00    +0.000 S 
ATOM     20  H   UNL     1       0.590   2.704  20.845  0.00  0.00    +0.000 HD
ENDBRANCH  12  18
ENDBRANCH   1  12
TORSDOF 3
ENDMDL
MODEL 8
REMARK VINA RESULT:      -7.4      4.364      5.959
REMARK  Name = 
REMARK  3 active torsions:
REMARK  status: ('A' for Active; 'I' for Inactive)
REMARK    1  A    between atoms: C_6  and  C_7
REMARK    2  A    between atoms: C_7  and  S_8
REMARK    3  A    between atoms: S_8  and  C_9
REMARK                            x       y       z     vdW  Elec       q    Type
REMARK                         _______ _______ _______ _____ _____    ______ ____
ROOT
ATOM      1  S   UNL     1       3.230   5.632  18.239  0.00  0.00    +0.000 S 
ENDROOT
BRANCH   1   2
ATOM      2  C   UNL     1       2.458   7.164  18.729  0.00  0.00    +0.000 A 
ATOM      3  C   UNL     1       2.180   8.158  17.795  0.00  0.00    +0.000 A 
ATOM      4  C   UNL     1       1.491   9.316  18.177  0.00  0.00    +0.000 A 
ATOM      5  C   UNL     1       1.068   9.499  19.505  0.00  0.00    +0.000 A 
ATOM      6  C   UNL     1       0.363  10.648  19.903  0.00  0.00    +0.000 A 
ATOM      7  C   UNL     1      -0.055  10.810  21.226  0.00  0.00    +0.000 A 
ATOM      8  C   UNL     1       0.229   9.826  22.168  0.00  0.00    +0.000 A 
ATOM      9  C   UNL     1       0.927   8.678  21.787  0.00  0.00    +0.000 A 
ATOM     10  C   UNL     1       1.355   8.499  20.460  0.00  0.00    +0.000 A 
ATOM     11  C   UNL     1       2.046   7.340  20.058  0.00  0.00    +0.000 A 
ENDBRANCH   1   2
BRANCH   1  12
ATOM     12  C   UNL     1       1.783   4.610  17.746  0.00  0.00    +0.000 C 
BRANCH  12  18
ATOM     13  O   UNL     1       2.514   2.808  22.209  0.00  0.00    +0.000 OA
ATOM     14  C   UNL     1       2.341   2.879  21.006  0.00  0.00    +0.000 C 
ATOM     15  N   UNL     1       3.143   2.330  20.065  0.00  0.00    +0.000 N 
ATOM     16  C   UNL     1       2.857   2.535  18.757  0.00  0.00    +0.000 C 
ATOM     17  O   UNL     1       3.570   2.094  17.866  0.00  0.00    +0.000 OA
ATOM     18  C   UNL     1       1.575   3.328  18.552  0.00  0.00    +0.000 C 
ATOM     19  S   UNL     1       1.016   3.725  20.254  0.00  0.00    +0.000 S 
ATOM     20  H   UNL     1       3.972   1.825  20.330  0.00  0.00    +0.000 HD
ENDBRANCH  12  18
ENDBRANCH   1  12
TORSDOF 3
ENDMDL
MODEL 9
REMARK VINA RESULT:      -7.3      3.455      4.343
REMARK  Name = 
REMARK  3 active torsions:
REMARK  status: ('A' for Active; 'I' for Inactive)
REMARK    1  A    between atoms: C_6  and  C_7
REMARK    2  A    between atoms: C_7  and  S_8
REMARK    3  A    between atoms: S_8  and  C_9
REMARK                            x       y       z     vdW  Elec       q    Type
REMARK                         _______ _______ _______ _____ _____    ______ ____
ROOT
ATOM      1  S   UNL     1       3.238   6.115  18.031  0.00  0.00    +0.000 S 
ENDROOT
BRANCH   1   2
ATOM      2  C   UNL     1       2.358   7.524  18.681  0.00  0.00    +0.000 A 
ATOM      3  C   UNL     1       1.951   8.563  17.848  0.00  0.00    +0.000 A 
ATOM      4  C   UNL     1       1.182   9.617  18.356  0.00  0.00    +0.000 A 
ATOM      5  C   UNL     1       0.806   9.651  19.710  0.00  0.00    +0.000 A 
ATOM      6  C   UNL     1       0.022  10.693  20.233  0.00  0.00    +0.000 A 
ATOM      7  C   UNL     1      -0.346  10.706  21.580  0.00  0.00    +0.000 A 
ATOM      8  C   UNL     1       0.066   9.677  22.422  0.00  0.00    +0.000 A 
ATOM      9  C   UNL     1       0.843   8.633  21.916  0.00  0.00    +0.000 A 
ATOM     10  C   UNL     1       1.223   8.605  20.563  0.00  0.00    +0.000 A 
ATOM     11  C   UNL     1       1.994   7.551  20.035  0.00  0.00    +0.000 A 
ENDBRANCH   1   2
BRANCH   1  12
ATOM     12  C   UNL     1       4.739   6.895  17.310  0.00  0.00    +0.000 C 
BRANCH  12  18
ATOM     13  O   UNL     1       7.935   5.214  20.575  0.00  0.00    +0.000 OA
ATOM     14  C   UNL     1       7.445   5.588  19.525  0.00  0.00    +0.000 C 
ATOM     15  N   UNL     1       7.950   6.555  18.725  0.00  0.00    +0.000 N 
ATOM     16  C   UNL     1       7.267   6.907  17.609  0.00  0.00    +0.000 C 
ATOM     17  O   UNL     1       7.659   7.800  16.870  0.00  0.00    +0.000 OA
ATOM     18  C   UNL     1       6.019   6.065  17.392  0.00  0.00    +0.000 C 
ATOM     19  S   UNL     1       5.969   4.952  18.850  0.00  0.00    +0.000 S 
ATOM     20  H   UNL     1       8.790   7.045  18.981  0.00  0.00    +0.000 HD
ENDBRANCH  12  18
ENDBRANCH   1  12
TORSDOF 3
ENDMDL
