MODEL 1
REMARK VINA RESULT:      -7.3      0.000      0.000
REMARK  Name = 
REMARK  6 active torsions:
REMARK  status: ('A' for Active; 'I' for Inactive)
REMARK    1  A    between atoms: C_1  and  C_2
REMARK    2  A    between atoms: C_2  and  C_3
REMARK    3  A    between atoms: N_4  and  C_5
REMARK    4  A    between atoms: C_6  and  C_7
REMARK    5  A    between atoms: C_11  and  C_12
REMARK    6  A    between atoms: N_14  and  C_15
REMARK                            x       y       z     vdW  Elec       q    Type
REMARK                         _______ _______ _______ _____ _____    ______ ____
ROOT
ATOM      1  C   UNL     1       4.428   4.348  19.500  0.00  0.00    +0.000 A 
ATOM      2  C   UNL     1       4.094   2.983  19.800  0.00  0.00    +0.000 A 
ATOM      3  C   UNL     1       2.852   2.785  19.265  0.00  0.00    +0.000 A 
ATOM      4  N   UNL     1       2.394   3.982  18.805  0.00  0.00    +0.000 N 
ATOM      5  C   UNL     1       3.322   4.979  18.927  0.00  0.00    +0.000 A 
ATOM      6  C   UNL     1       1.061   3.886  18.226  0.00  0.00    +0.000 C 
ATOM      7  C   UNL     1       0.596   2.491  18.690  0.00  0.00    +0.000 C 
ATOM      8  C   UNL     1       1.878   1.701  19.026  0.00  0.00    +0.000 C 
ENDROOT
BRANCH   5   9
ATOM      9  C   UNL     1       3.077   6.346  18.489  0.00  0.00    +0.000 C 
ATOM     10  O   UNL     1       3.675   6.801  17.517  0.00  0.00    +0.000 OA
ATOM     11  N   UNL     1       2.187   7.069  19.263  0.00  0.00    +0.000 N 
ATOM     12  H   UNL     1       1.837   6.592  20.089  0.00  0.00    +0.000 HD
BRANCH  11  13
ATOM     13  C   UNL     1       1.842   8.433  19.090  0.00  0.00    +0.000 A 
ATOM     14  C   UNL     1       2.202   9.180  17.961  0.00  0.00    +0.000 A 
ATOM     15  C   UNL     1       1.912  10.546  17.877  0.00  0.00    +0.000 A 
ATOM     16  C   UNL     1       1.252  11.178  18.924  0.00  0.00    +0.000 A 
ATOM     17 BR   UNL     1       0.924  13.037  18.840  0.00  0.00    +0.000 Br
ATOM     18  C   UNL     1       0.845  10.445  20.036  0.00  0.00    +0.000 A 
ATOM     19  C   UNL     1       1.126   9.072  20.110  0.00  0.00    +0.000 A 
ENDBRANCH  11  13
ENDBRANCH   5   9
BRANCH   1  21
ATOM     20  C   UNL     1       6.422   5.081  18.741  0.00  0.00    +0.000 C 
ATOM     21  N   UNL     1       5.647   4.997  19.777  0.00  0.00    +0.000 NA
BRANCH  20  23
ATOM     22  C   UNL     1       7.835   7.037  18.173  0.00  0.00    +0.000 C 
ATOM     23  C   UNL     1       7.801   5.674  18.842  0.00  0.00    +0.000 C 
ENDBRANCH  20  23
ENDBRANCH   1  21
BRANCH   2  24
ATOM     24  C   UNL     1       4.872   1.977  20.442  0.00  0.00    +0.000 C 
ATOM     25  N   UNL     1       5.472   1.140  20.982  0.00  0.00    +0.000 NA
ENDBRANCH   2  24
TORSDOF 5
ENDMDL
MODEL 2
REMARK VINA RESULT:      -7.3      2.249      2.614
REMARK  Name = 
REMARK  6 active torsions:
REMARK  status: ('A' for Active; 'I' for Inactive)
REMARK    1  A    between atoms: C_1  and  C_2
REMARK    2  A    between atoms: C_2  and  C_3
REMARK    3  A    between atoms: N_4  and  C_5
REMARK    4  A    between atoms: C_6  and  C_7
REMARK    5  A    between atoms: C_11  and  C_12
REMARK    6  A    between atoms: N_14  and  C_15
REMARK                            x       y       z     vdW  Elec       q    Type
REMARK                         _______ _______ _______ _____ _____    ______ ____
ROOT
ATOM      1  C   UNL     1       4.297   6.001  17.181  0.00  0.00    +0.000 A 
ATOM      2  C   UNL     1       4.441   4.608  16.858  0.00  0.00    +0.000 A 
ATOM      3  C   UNL     1       3.307   4.007  17.326  0.00  0.00    +0.000 A 
ATOM      4  N   UNL     1       2.592   4.935  18.020  0.00  0.00    +0.000 N 
ATOM      5  C   UNL     1       3.157   6.178  17.966  0.00  0.00    +0.000 A 
ATOM      6  C   UNL     1       1.363   4.389  18.581  0.00  0.00    +0.000 C 
ATOM      7  C   UNL     1       1.567   2.870  18.416  0.00  0.00    +0.000 C 
ATOM      8  C   UNL     1       2.626   2.697  17.306  0.00  0.00    +0.000 C 
ENDROOT
BRANCH   5   9
ATOM      9  C   UNL     1       2.570   7.343  18.615  0.00  0.00    +0.000 C 
ATOM     10  O   UNL     1       2.385   7.347  19.830  0.00  0.00    +0.000 OA
ATOM     11  N   UNL     1       2.209   8.377  17.770  0.00  0.00    +0.000 N 
ATOM     12  H   UNL     1       2.340   8.198  16.778  0.00  0.00    +0.000 HD
BRANCH  11  13
ATOM     13  C   UNL     1       1.556   9.578  18.146  0.00  0.00    +0.000 A 
ATOM     14  C   UNL     1       0.175   9.667  18.359  0.00  0.00    +0.000 A 
ATOM     15  C   UNL     1      -0.433  10.895  18.644  0.00  0.00    +0.000 A 
ATOM     16  C   UNL     1       0.340  12.047  18.723  0.00  0.00    +0.000 A 
ATOM     17 BR   UNL     1      -0.492  13.715  19.037  0.00  0.00    +0.000 Br
ATOM     18  C   UNL     1       1.721  11.973  18.559  0.00  0.00    +0.000 A 
ATOM     19  C   UNL     1       2.329  10.737  18.288  0.00  0.00    +0.000 A 
ENDBRANCH  11  13
ENDBRANCH   5   9
BRANCH   1  21
ATOM     20  C   UNL     1       6.319   6.968  17.442  0.00  0.00    +0.000 C 
ATOM     21  N   UNL     1       5.179   7.042  16.829  0.00  0.00    +0.000 NA
BRANCH  20  23
ATOM     22  C   UNL     1       8.332   8.016  18.440  0.00  0.00    +0.000 C 
ATOM     23  C   UNL     1       7.375   8.024  17.261  0.00  0.00    +0.000 C 
ENDBRANCH  20  23
ENDBRANCH   1  21
BRANCH   2  24
ATOM     24  C   UNL     1       5.475   3.944  16.138  0.00  0.00    +0.000 C 
ATOM     25  N   UNL     1       6.309   3.424  15.516  0.00  0.00    +0.000 NA
ENDBRANCH   2  24
TORSDOF 5
ENDMDL
MODEL 3
REMARK VINA RESULT:      -7.0      2.157      2.722
REMARK  Name = 
REMARK  6 active torsions:
REMARK  status: ('A' for Active; 'I' for Inactive)
REMARK    1  A    between atoms: C_1  and  C_2
REMARK    2  A    between atoms: C_2  and  C_3
REMARK    3  A    between atoms: N_4  and  C_5
REMARK    4  A    between atoms: C_6  and  C_7
REMARK    5  A    between atoms: C_11  and  C_12
REMARK    6  A    between atoms: N_14  and  C_15
REMARK                            x       y       z     vdW  Elec       q    Type
REMARK                         _______ _______ _______ _____ _____    ______ ____
ROOT
ATOM      1  C   UNL     1       3.917   5.533  17.871  0.00  0.00    +0.000 A 
ATOM      2  C   UNL     1       4.140   4.272  17.220  0.00  0.00    +0.000 A 
ATOM      3  C   UNL     1       3.156   3.444  17.685  0.00  0.00    +0.000 A 
ATOM      4  N   UNL     1       2.475   4.103  18.662  0.00  0.00    +0.000 N 
ATOM      5  C   UNL     1       2.904   5.391  18.820  0.00  0.00    +0.000 A 
ATOM      6  C   UNL     1       1.408   3.298  19.241  0.00  0.00    +0.000 C 
ATOM      7  C   UNL     1       1.727   1.888  18.706  0.00  0.00    +0.000 C 
ATOM      8  C   UNL     1       2.608   2.092  17.455  0.00  0.00    +0.000 C 
ENDROOT
BRANCH   5   9
ATOM      9  C   UNL     1       2.319   6.306  19.791  0.00  0.00    +0.000 C 
ATOM     10  O   UNL     1       2.017   5.907  20.914  0.00  0.00    +0.000 OA
ATOM     11  N   UNL     1       2.097   7.594  19.338  0.00  0.00    +0.000 N 
ATOM     12  H   UNL     1       2.314   7.757  18.358  0.00  0.00    +0.000 HD
BRANCH  11  13
ATOM     13  C   UNL     1       1.474   8.642  20.061  0.00  0.00    +0.000 A 
ATOM     14  C   UNL     1       1.317   8.627  21.453  0.00  0.00    +0.000 A 
ATOM     15  C   UNL     1       0.617   9.645  22.111  0.00  0.00    +0.000 A 
ATOM     16  C   UNL     1       0.072  10.693  21.380  0.00  0.00    +0.000 A 
ATOM     17 BR   UNL     1      -0.931  12.030  22.261  0.00  0.00    +0.000 Br
ATOM     18  C   UNL     1       0.257  10.751  20.000  0.00  0.00    +0.000 A 
ATOM     19  C   UNL     1       0.970   9.736  19.346  0.00  0.00    +0.000 A 
ENDBRANCH  11  13
ENDBRANCH   5   9
BRANCH   1  21
ATOM     20  C   UNL     1       5.914   6.557  17.637  0.00  0.00    +0.000 C 
ATOM     21  N   UNL     1       4.629   6.730  17.653  0.00  0.00    +0.000 NA
BRANCH  20  23
ATOM     22  C   UNL     1       8.124   7.471  18.291  0.00  0.00    +0.000 C 
ATOM     23  C   UNL     1       6.858   7.720  17.490  0.00  0.00    +0.000 C 
ENDBRANCH  20  23
ENDBRANCH   1  21
BRANCH   2  24
ATOM     24  C   UNL     1       5.106   3.914  16.236  0.00  0.00    +0.000 C 
ATOM     25  N   UNL     1       5.917   3.604  15.463  0.00  0.00    +0.000 NA
ENDBRANCH   2  24
TORSDOF 5
ENDMDL
MODEL 4
REMARK VINA RESULT:      -7.0      2.193      2.494
REMARK  Name = 
REMARK  6 active torsions:
REMARK  status: ('A' for Active; 'I' for Inactive)
REMARK    1  A    between atoms: C_1  and  C_2
REMARK    2  A    between atoms: C_2  and  C_3
REMARK    3  A    between atoms: N_4  and  C_5
REMARK    4  A    between atoms: C_6  and  C_7
REMARK    5  A    between atoms: C_11  and  C_12
REMARK    6  A    between atoms: N_14  and  C_15
REMARK                            x       y       z     vdW  Elec       q    Type
REMARK                         _______ _______ _______ _____ _____    ______ ____
ROOT
ATOM      1  C   UNL     1       4.286   6.038  17.256  0.00  0.00    +0.000 A 
ATOM      2  C   UNL     1       4.427   4.656  16.888  0.00  0.00    +0.000 A 
ATOM      3  C   UNL     1       3.302   4.038  17.356  0.00  0.00    +0.000 A 
ATOM      4  N   UNL     1       2.596   4.943  18.089  0.00  0.00    +0.000 N 
ATOM      5  C   UNL     1       3.158   6.188  18.064  0.00  0.00    +0.000 A 
ATOM      6  C   UNL     1       1.377   4.378  18.652  0.00  0.00    +0.000 C 
ATOM      7  C   UNL     1       1.581   2.864  18.438  0.00  0.00    +0.000 C 
ATOM      8  C   UNL     1       2.623   2.728  17.307  0.00  0.00    +0.000 C 
ENDROOT
BRANCH   5   9
ATOM      9  C   UNL     1       2.580   7.331  18.757  0.00  0.00    +0.000 C 
ATOM     10  O   UNL     1       2.334   7.267  19.959  0.00  0.00    +0.000 OA
ATOM     11  N   UNL     1       2.297   8.429  17.963  0.00  0.00    +0.000 N 
ATOM     12  H   UNL     1       2.471   8.307  16.970  0.00  0.00    +0.000 HD
BRANCH  11  13
ATOM     13  C   UNL     1       1.667   9.627  18.384  0.00  0.00    +0.000 A 
ATOM     14  C   UNL     1       2.129  10.902  18.033  0.00  0.00    +0.000 A 
ATOM     15  C   UNL     1       1.523  12.055  18.545  0.00  0.00    +0.000 A 
ATOM     16  C   UNL     1       0.442  11.941  19.412  0.00  0.00    +0.000 A 
ATOM     17 BR   UNL     1      -0.330  13.496  20.158  0.00  0.00    +0.000 Br
ATOM     18  C   UNL     1      -0.061  10.684  19.738  0.00  0.00    +0.000 A 
ATOM     19  C   UNL     1       0.541   9.531  19.211  0.00  0.00    +0.000 A 
ENDBRANCH  11  13
ENDBRANCH   5   9
BRANCH   1  21
ATOM     20  C   UNL     1       6.351   6.935  17.414  0.00  0.00    +0.000 C 
ATOM     21  N   UNL     1       5.161   7.091  16.922  0.00  0.00    +0.000 NA
BRANCH  20  23
ATOM     22  C   UNL     1       8.311   8.036  18.459  0.00  0.00    +0.000 C 
ATOM     23  C   UNL     1       7.415   7.984  17.234  0.00  0.00    +0.000 C 
ENDBRANCH  20  23
ENDBRANCH   1  21
BRANCH   2  24
ATOM     24  C   UNL     1       5.452   4.016  16.133  0.00  0.00    +0.000 C 
ATOM     25  N   UNL     1       6.312   3.528  15.521  0.00  0.00    +0.000 NA
ENDBRANCH   2  24
TORSDOF 5
ENDMDL
MODEL 5
REMARK VINA RESULT:      -7.0      2.267      2.903
REMARK  Name = 
REMARK  6 active torsions:
REMARK  status: ('A' for Active; 'I' for Inactive)
REMARK    1  A    between atoms: C_1  and  C_2
REMARK    2  A    between atoms: C_2  and  C_3
REMARK    3  A    between atoms: N_4  and  C_5
REMARK    4  A    between atoms: C_6  and  C_7
REMARK    5  A    between atoms: C_11  and  C_12
REMARK    6  A    between atoms: N_14  and  C_15
REMARK                            x       y       z     vdW  Elec       q    Type
REMARK                         _______ _______ _______ _____ _____    ______ ____
ROOT
ATOM      1  C   UNL     1       5.011   6.447  17.222  0.00  0.00    +0.000 A 
ATOM      2  C   UNL     1       5.434   5.081  17.077  0.00  0.00    +0.000 A 
ATOM      3  C   UNL     1       4.323   4.327  17.332  0.00  0.00    +0.000 A 
ATOM      4  N   UNL     1       3.332   5.161  17.751  0.00  0.00    +0.000 N 
ATOM      5  C   UNL     1       3.702   6.476  17.706  0.00  0.00    +0.000 A 
ATOM      6  C   UNL     1       2.100   4.452  18.069  0.00  0.00    +0.000 C 
ATOM      7  C   UNL     1       2.562   2.981  18.104  0.00  0.00    +0.000 C 
ATOM      8  C   UNL     1       3.869   2.922  17.286  0.00  0.00    +0.000 C 
ENDROOT
BRANCH   5   9
ATOM      9  C   UNL     1       2.810   7.563  18.087  0.00  0.00    +0.000 C 
ATOM     10  O   UNL     1       2.565   8.469  17.294  0.00  0.00    +0.000 OA
ATOM     11  N   UNL     1       2.327   7.511  19.383  0.00  0.00    +0.000 N 
ATOM     12  H   UNL     1       2.686   6.750  19.953  0.00  0.00    +0.000 HD
BRANCH  11  13
ATOM     13  C   UNL     1       1.509   8.482  20.012  0.00  0.00    +0.000 A 
ATOM     14  C   UNL     1       1.005   9.608  19.349  0.00  0.00    +0.000 A 
ATOM     15  C   UNL     1       0.274  10.583  20.037  0.00  0.00    +0.000 A 
ATOM     16  C   UNL     1       0.036  10.436  21.398  0.00  0.00    +0.000 A 
ATOM     17 BR   UNL     1      -0.890  11.788  22.340  0.00  0.00    +0.000 Br
ATOM     18  C   UNL     1       0.489   9.302  22.067  0.00  0.00    +0.000 A 
ATOM     19  C   UNL     1       1.210   8.320  21.370  0.00  0.00    +0.000 A 
ENDBRANCH  11  13
ENDBRANCH   5   9
BRANCH   1  21
ATOM     20  C   UNL     1       6.938   7.566  17.574  0.00  0.00    +0.000 C 
ATOM     21  N   UNL     1       5.786   7.598  16.979  0.00  0.00    +0.000 NA
BRANCH  20  23
ATOM     22  C   UNL     1       8.690   8.832  18.788  0.00  0.00    +0.000 C 
ATOM     23  C   UNL     1       7.888   8.731  17.502  0.00  0.00    +0.000 C 
ENDBRANCH  20  23
ENDBRANCH   1  21
BRANCH   2  24
ATOM     24  C   UNL     1       6.698   4.557  16.679  0.00  0.00    +0.000 C 
ATOM     25  N   UNL     1       7.737   4.167  16.335  0.00  0.00    +0.000 NA
ENDBRANCH   2  24
TORSDOF 5
ENDMDL
MODEL 6
REMARK VINA RESULT:      -6.9      2.124      3.651
REMARK  Name = 
REMARK  6 active torsions:
REMARK  status: ('A' for Active; 'I' for Inactive)
REMARK    1  A    between atoms: C_1  and  C_2
REMARK    2  A    between atoms: C_2  and  C_3
REMARK    3  A    between atoms: N_4  and  C_5
REMARK    4  A    between atoms: C_6  and  C_7
REMARK    5  A    between atoms: C_11  and  C_12
REMARK    6  A    between atoms: N_14  and  C_15
REMARK                            x       y       z     vdW  Elec       q    Type
REMARK                         _______ _______ _______ _____ _____    ______ ____
ROOT
ATOM      1  C   UNL     1       3.263   4.712  18.352  0.00  0.00    +0.000 A 
ATOM      2  C   UNL     1       3.892   3.620  17.662  0.00  0.00    +0.000 A 
ATOM      3  C   UNL     1       4.709   4.198  16.731  0.00  0.00    +0.000 A 
ATOM      4  N   UNL     1       4.483   5.541  16.746  0.00  0.00    +0.000 N 
ATOM      5  C   UNL     1       3.600   5.912  17.722  0.00  0.00    +0.000 A 
ATOM      6  C   UNL     1       5.296   6.256  15.772  0.00  0.00    +0.000 C 
ATOM      7  C   UNL     1       5.844   5.114  14.893  0.00  0.00    +0.000 C 
ATOM      8  C   UNL     1       5.744   3.831  15.745  0.00  0.00    +0.000 C 
ENDROOT
BRANCH   5   9
ATOM      9  C   UNL     1       3.210   7.296  17.951  0.00  0.00    +0.000 C 
ATOM     10  O   UNL     1       3.892   8.214  17.502  0.00  0.00    +0.000 OA
ATOM     11  N   UNL     1       2.081   7.476  18.731  0.00  0.00    +0.000 N 
ATOM     12  H   UNL     1       1.670   6.627  19.108  0.00  0.00    +0.000 HD
BRANCH  11  13
ATOM     13  C   UNL     1       1.545   8.717  19.156  0.00  0.00    +0.000 A 
ATOM     14  C   UNL     1       1.361   9.809  18.298  0.00  0.00    +0.000 A 
ATOM     15  C   UNL     1       0.910  11.041  18.786  0.00  0.00    +0.000 A 
ATOM     16  C   UNL     1       0.634  11.190  20.140  0.00  0.00    +0.000 A 
ATOM     17 BR   UNL     1       0.092  12.872  20.807  0.00  0.00    +0.000 Br
ATOM     18  C   UNL     1       0.766  10.104  21.002  0.00  0.00    +0.000 A 
ATOM     19  C   UNL     1       1.206   8.866  20.507  0.00  0.00    +0.000 A 
ENDBRANCH  11  13
ENDBRANCH   5   9
BRANCH   1  21
ATOM     20  C   UNL     1       2.948   4.078  20.494  0.00  0.00    +0.000 C 
ATOM     21  N   UNL     1       2.392   4.621  19.455  0.00  0.00    +0.000 NA
BRANCH  20  23
ATOM     22  C   UNL     1       1.437   2.494  21.658  0.00  0.00    +0.000 C 
ATOM     23  C   UNL     1       2.168   3.823  21.754  0.00  0.00    +0.000 C 
ENDBRANCH  20  23
ENDBRANCH   1  21
BRANCH   2  24
ATOM     24  C   UNL     1       3.792   2.218  17.896  0.00  0.00    +0.000 C 
ATOM     25  N   UNL     1       3.719   1.081  18.129  0.00  0.00    +0.000 NA
ENDBRANCH   2  24
TORSDOF 5
ENDMDL
MODEL 7
REMARK VINA RESULT:      -6.8      2.288      3.931
REMARK  Name = 
REMARK  6 active torsions:
REMARK  status: ('A' for Active; 'I' for Inactive)
REMARK    1  A    between atoms: C_1  and  C_2
REMARK    2  A    between atoms: C_2  and  C_3
REMARK    3  A    between atoms: N_4  and  C_5
REMARK    4  A    between atoms: C_6  and  C_7
REMARK    5  A    between atoms: C_11  and  C_12
REMARK    6  A    between atoms: N_14  and  C_15
REMARK                            x       y       z     vdW  Elec       q    Type
REMARK                         _______ _______ _______ _____ _____    ______ ____
ROOT
ATOM      1  C   UNL     1       3.078   4.709  18.544  0.00  0.00    +0.000 A 
ATOM      2  C   UNL     1       3.796   3.763  17.735  0.00  0.00    +0.000 A 
ATOM      3  C   UNL     1       4.545   4.515  16.873  0.00  0.00    +0.000 A 
ATOM      4  N   UNL     1       4.196   5.821  17.039  0.00  0.00    +0.000 N 
ATOM      5  C   UNL     1       3.295   5.997  18.051  0.00  0.00    +0.000 A 
ATOM      6  C   UNL     1       4.928   6.713  16.150  0.00  0.00    +0.000 C 
ATOM      7  C   UNL     1       5.569   5.732  15.147  0.00  0.00    +0.000 C 
ATOM      8  C   UNL     1       5.598   4.358  15.850  0.00  0.00    +0.000 C 
ENDROOT
BRANCH   5   9
ATOM      9  C   UNL     1       2.781   7.305  18.435  0.00  0.00    +0.000 C 
ATOM     10  O   UNL     1       3.090   8.304  17.790  0.00  0.00    +0.000 OA
ATOM     11  N   UNL     1       1.991   7.325  19.571  0.00  0.00    +0.000 N 
ATOM     12  H   UNL     1       1.894   6.436  20.052  0.00  0.00    +0.000 HD
BRANCH  11  13
ATOM     13  C   UNL     1       1.438   8.476  20.186  0.00  0.00    +0.000 A 
ATOM     14  C   UNL     1       1.293   8.611  21.573  0.00  0.00    +0.000 A 
ATOM     15  C   UNL     1       0.661   9.731  22.126  0.00  0.00    +0.000 A 
ATOM     16  C   UNL     1       0.171  10.730  21.293  0.00  0.00    +0.000 A 
ATOM     17 BR   UNL     1      -0.744  12.206  22.038  0.00  0.00    +0.000 Br
ATOM     18  C   UNL     1       0.346  10.637  19.915  0.00  0.00    +0.000 A 
ATOM     19  C   UNL     1       0.993   9.519  19.365  0.00  0.00    +0.000 A 
ENDBRANCH  11  13
ENDBRANCH   5   9
BRANCH   1  21
ATOM     20  C   UNL     1       2.882   4.031  20.686  0.00  0.00    +0.000 C 
ATOM     21  N   UNL     1       2.233   4.415  19.632  0.00  0.00    +0.000 NA
BRANCH  20  23
ATOM     22  C   UNL     1       1.247   2.425  21.633  0.00  0.00    +0.000 C 
ATOM     23  C   UNL     1       2.162   3.600  21.935  0.00  0.00    +0.000 C 
ENDBRANCH  20  23
ENDBRANCH   1  21
BRANCH   2  24
ATOM     24  C   UNL     1       3.829   2.341  17.811  0.00  0.00    +0.000 C 
ATOM     25  N   UNL     1       3.835   1.179  17.838  0.00  0.00    +0.000 NA
ENDBRANCH   2  24
TORSDOF 5
ENDMDL
MODEL 8
REMARK VINA RESULT:      -6.8      2.108      3.857
REMARK  Name = 
REMARK  6 active torsions:
REMARK  status: ('A' for Active; 'I' for Inactive)
REMARK    1  A    between atoms: C_1  and  C_2
REMARK    2  A    between atoms: C_2  and  C_3
REMARK    3  A    between atoms: N_4  and  C_5
REMARK    4  A    between atoms: C_6  and  C_7
REMARK    5  A    between atoms: C_11  and  C_12
REMARK    6  A    between atoms: N_14  and  C_15
REMARK                            x       y       z     vdW  Elec       q    Type
REMARK                         _______ _______ _______ _____ _____    ______ ____
ROOT
ATOM      1  C   UNL     1       3.499   4.581  18.405  0.00  0.00    +0.000 A 
ATOM      2  C   UNL     1       4.090   3.494  17.673  0.00  0.00    +0.000 A 
ATOM      3  C   UNL     1       4.812   4.079  16.671  0.00  0.00    +0.000 A 
ATOM      4  N   UNL     1       4.559   5.417  16.694  0.00  0.00    +0.000 N 
ATOM      5  C   UNL     1       3.755   5.780  17.738  0.00  0.00    +0.000 A 
ATOM      6  C   UNL     1       5.271   6.139  15.648  0.00  0.00    +0.000 C 
ATOM      7  C   UNL     1       5.767   4.999  14.735  0.00  0.00    +0.000 C 
ATOM      8  C   UNL     1       5.767   3.723  15.603  0.00  0.00    +0.000 C 
ENDROOT
BRANCH   5   9
ATOM      9  C   UNL     1       3.356   7.158  17.987  0.00  0.00    +0.000 C 
ATOM     10  O   UNL     1       4.095   8.085  17.663  0.00  0.00    +0.000 OA
ATOM     11  N   UNL     1       2.147   7.320  18.640  0.00  0.00    +0.000 N 
ATOM     12  H   UNL     1       1.686   6.460  18.927  0.00  0.00    +0.000 HD
BRANCH  11  13
ATOM     13  C   UNL     1       1.579   8.548  19.061  0.00  0.00    +0.000 A 
ATOM     14  C   UNL     1       1.365   8.876  20.406  0.00  0.00    +0.000 A 
ATOM     15  C   UNL     1       0.721  10.065  20.764  0.00  0.00    +0.000 A 
ATOM     16  C   UNL     1       0.287  10.942  19.777  0.00  0.00    +0.000 A 
ATOM     17 BR   UNL     1      -0.644  12.513  20.261  0.00  0.00    +0.000 Br
ATOM     18  C   UNL     1       0.530  10.657  18.435  0.00  0.00    +0.000 A 
ATOM     19  C   UNL     1       1.189   9.470  18.080  0.00  0.00    +0.000 A 
ENDBRANCH  11  13
ENDBRANCH   5   9
BRANCH   1  21
ATOM     20  C   UNL     1       1.728   3.665  19.461  0.00  0.00    +0.000 C 
ATOM     21  N   UNL     1       2.727   4.483  19.579  0.00  0.00    +0.000 NA
BRANCH  20  23
ATOM     22  C   UNL     1       1.364   2.656  21.696  0.00  0.00    +0.000 C 
ATOM     23  C   UNL     1       0.739   3.472  20.578  0.00  0.00    +0.000 C 
ENDBRANCH  20  23
ENDBRANCH   1  21
BRANCH   2  24
ATOM     24  C   UNL     1       4.041   2.093  17.928  0.00  0.00    +0.000 C 
ATOM     25  N   UNL     1       3.986   0.958  18.175  0.00  0.00    +0.000 NA
ENDBRANCH   2  24
TORSDOF 5
ENDMDL
MODEL 9
REMARK VINA RESULT:      -6.5      3.547      6.945
REMARK  Name = 
REMARK  6 active torsions:
REMARK  status: ('A' for Active; 'I' for Inactive)
REMARK    1  A    between atoms: C_1  and  C_2
REMARK    2  A    between atoms: C_2  and  C_3
REMARK    3  A    between atoms: N_4  and  C_5
REMARK    4  A    between atoms: C_6  and  C_7
REMARK    5  A    between atoms: C_11  and  C_12
REMARK    6  A    between atoms: N_14  and  C_15
REMARK                            x       y       z     vdW  Elec       q    Type
REMARK                         _______ _______ _______ _____ _____    ______ ____
ROOT
ATOM      1  C   UNL     1       1.477   8.321  20.651  0.00  0.00    +0.000 A 
ATOM      2  C   UNL     1       0.802   9.345  21.401  0.00  0.00    +0.000 A 
ATOM      3  C   UNL     1       0.513  10.328  20.497  0.00  0.00    +0.000 A 
ATOM      4  N   UNL     1       1.100  10.000  19.313  0.00  0.00    +0.000 N 
ATOM      5  C   UNL     1       1.710   8.778  19.352  0.00  0.00    +0.000 A 
ATOM      6  C   UNL     1       0.867  10.998  18.277  0.00  0.00    +0.000 C 
ATOM      7  C   UNL     1       0.309  12.189  19.082  0.00  0.00    +0.000 C 
ATOM      8  C   UNL     1      -0.231  11.600  20.403  0.00  0.00    +0.000 C 
ENDROOT
BRANCH   5   9
ATOM      9  C   UNL     1       2.393   8.197  18.205  0.00  0.00    +0.000 C 
ATOM     10  O   UNL     1       2.112   8.564  17.066  0.00  0.00    +0.000 OA
ATOM     11  N   UNL     1       3.309   7.202  18.497  0.00  0.00    +0.000 N 
ATOM     12  H   UNL     1       3.373   6.940  19.477  0.00  0.00    +0.000 HD
BRANCH  11  13
ATOM     13  C   UNL     1       4.043   6.435  17.557  0.00  0.00    +0.000 A 
ATOM     14  C   UNL     1       4.995   6.988  16.692  0.00  0.00    +0.000 A 
ATOM     15  C   UNL     1       5.629   6.203  15.722  0.00  0.00    +0.000 A 
ATOM     16  C   UNL     1       5.318   4.853  15.613  0.00  0.00    +0.000 A 
ATOM     17 BR   UNL     1       6.124   3.811  14.258  0.00  0.00    +0.000 Br
ATOM     18  C   UNL     1       4.408   4.274  16.494  0.00  0.00    +0.000 A 
ATOM     19  C   UNL     1       3.784   5.061  17.474  0.00  0.00    +0.000 A 
ENDBRANCH  11  13
ENDBRANCH   5   9
BRANCH   1  21
ATOM     20  C   UNL     1       1.303   6.074  20.555  0.00  0.00    +0.000 C 
ATOM     21  N   UNL     1       1.903   7.068  21.132  0.00  0.00    +0.000 NA
BRANCH  20  23
ATOM     22  C   UNL     1       1.056   3.692  19.912  0.00  0.00    +0.000 C 
ATOM     23  C   UNL     1       1.561   4.653  20.975  0.00  0.00    +0.000 C 
ENDBRANCH  20  23
ENDBRANCH   1  21
BRANCH   2  24
ATOM     24  C   UNL     1       0.416   9.362  22.772  0.00  0.00    +0.000 C 
ATOM     25  N   UNL     1       0.068   9.399  23.881  0.00  0.00    +0.000 NA
ENDBRANCH   2  24
TORSDOF 5
ENDMDL
