MODEL 1
REMARK VINA RESULT:      -8.2      0.000      0.000
REMARK  Name = 
REMARK  11 active torsions:
REMARK  status: ('A' for Active; 'I' for Inactive)
REMARK    1  A    between atoms: C_1  and  C_2
REMARK    2  A    between atoms: C_2  and  C_4
REMARK    3  A    between atoms: C_4  and  C_5
REMARK    4  A    between atoms: C_5  and  C_6
REMARK    5  A    between atoms: C_6  and  C_7
REMARK    6  A    between atoms: C_7  and  C_8
REMARK    7  A    between atoms: C_8  and  C_9
REMARK    8  A    between atoms: C_9  and  N_10
REMARK    9  A    between atoms: C_9  and  C_23
REMARK   10  A    between atoms: C_11  and  C_13
REMARK   11  A    between atoms: C_26  and  C_27
REMARK                            x       y       z     vdW  Elec       q    Type
REMARK                         _______ _______ _______ _____ _____    ______ ____
ROOT
ATOM      1  C   UNL     1       2.852   5.197  18.427  0.00  0.00    +0.000 C 
ENDROOT
BRANCH   1   2
ATOM      2  C   UNL     1       4.109   5.406  17.628  0.00  0.00    +0.000 A 
ATOM      3  N   UNL     1       5.146   6.155  17.952  0.00  0.00    +0.000 NA
ATOM      4  C   UNL     1       6.052   5.997  16.928  0.00  0.00    +0.000 A 
ATOM      5  C   UNL     1       5.557   5.168  15.939  0.00  0.00    +0.000 A 
ATOM      6  N   UNL     1       4.356   4.734  16.455  0.00  0.00    +0.000 N 
ATOM      7  H   UNL     1       3.758   4.035  16.039  0.00  0.00    +0.000 HD
BRANCH   5   8
ATOM      8  C   UNL     1       6.075   4.765  14.633  0.00  0.00    +0.000 A 
ATOM      9  C   UNL     1       7.265   5.303  14.124  0.00  0.00    +0.000 A 
ATOM     10  C   UNL     1       7.737   4.923  12.862  0.00  0.00    +0.000 A 
ATOM     11  C   UNL     1       7.023   4.009  12.091  0.00  0.00    +0.000 A 
ATOM     12  C   UNL     1       5.834   3.473  12.580  0.00  0.00    +0.000 A 
ATOM     13  C   UNL     1       5.366   3.849  13.842  0.00  0.00    +0.000 A 
ENDBRANCH   5   8
ENDBRANCH   1   2
BRANCH   1  14
ATOM     14  N   UNL     1       2.379   6.524  18.795  0.00  0.00    +0.000 N 
ATOM     15  C   UNL     1       2.012   6.845  20.077  0.00  0.00    +0.000 C 
ATOM     16  O   UNL     1       2.172   6.091  21.034  0.00  0.00    +0.000 OA
ATOM     17  H   UNL     1       2.328   7.204  18.044  0.00  0.00    +0.000 HD
BRANCH  15  18
ATOM     18  C   UNL     1       1.383   8.178  20.272  0.00  0.00    +0.000 A 
ATOM     19  C   UNL     1       0.639   8.410  21.436  0.00  0.00    +0.000 A 
ATOM     20  C   UNL     1      -0.036   9.623  21.606  0.00  0.00    +0.000 A 
ATOM     21  C   UNL     1       0.010  10.587  20.601  0.00  0.00    +0.000 A 
ATOM     22  C   UNL     1       0.771  10.367  19.449  0.00  0.00    +0.000 A 
ATOM     23  C   UNL     1       1.455   9.161  19.279  0.00  0.00    +0.000 A 
ATOM     24  O   UNL     1       0.865  11.275  18.425  0.00  0.00    +0.000 OA
ATOM     25  C   UNL     1       0.355  12.560  18.802  0.00  0.00    +0.000 C 
ATOM     26  C   UNL     1      -0.947  12.425  19.575  0.00  0.00    +0.000 C 
ATOM     27  O   UNL     1      -0.728  11.726  20.805  0.00  0.00    +0.000 OA
ENDBRANCH  15  18
ENDBRANCH   1  14
BRANCH   1  28
ATOM     28  C   UNL     1       1.750   4.455  17.642  0.00  0.00    +0.000 C 
BRANCH  28  29
ATOM     29  C   UNL     1       1.167   3.197  18.302  0.00  0.00    +0.000 C 
BRANCH  29  30
ATOM     30  C   UNL     1       0.912   3.306  19.810  0.00  0.00    +0.000 C 
BRANCH  30  31
ATOM     31  C   UNL     1       1.691   2.298  20.662  0.00  0.00    +0.000 C 
BRANCH  31  32
ATOM     32  C   UNL     1       3.048   2.830  21.111  0.00  0.00    +0.000 C 
BRANCH  32  34
ATOM     33  C   UNL     1       4.053   1.748  19.009  0.00  0.00    +0.000 C 
ATOM     34  C   UNL     1       4.178   2.052  20.480  0.00  0.00    +0.000 C 
ATOM     35  O   UNL     1       5.146   1.676  21.141  0.00  0.00    +0.000 OA
ENDBRANCH  32  34
ENDBRANCH  31  32
ENDBRANCH  30  31
ENDBRANCH  29  30
ENDBRANCH  28  29
ENDBRANCH   1  28
TORSDOF 10
ENDMDL
MODEL 2
REMARK VINA RESULT:      -8.0      1.608      2.485
REMARK  Name = 
REMARK  11 active torsions:
REMARK  status: ('A' for Active; 'I' for Inactive)
REMARK    1  A    between atoms: C_1  and  C_2
REMARK    2  A    between atoms: C_2  and  C_4
REMARK    3  A    between atoms: C_4  and  C_5
REMARK    4  A    between atoms: C_5  and  C_6
REMARK    5  A    between atoms: C_6  and  C_7
REMARK    6  A    between atoms: C_7  and  C_8
REMARK    7  A    between atoms: C_8  and  C_9
REMARK    8  A    between atoms: C_9  and  N_10
REMARK    9  A    between atoms: C_9  and  C_23
REMARK   10  A    between atoms: C_11  and  C_13
REMARK   11  A    between atoms: C_26  and  C_27
REMARK                            x       y       z     vdW  Elec       q    Type
REMARK                         _______ _______ _______ _____ _____    ______ ____
ROOT
ATOM      1  C   UNL     1       5.006   4.777  19.343  0.00  0.00    +0.000 C 
ENDROOT
BRANCH   1   2
ATOM      2  C   UNL     1       5.817   5.227  18.157  0.00  0.00    +0.000 A 
ATOM      3  N   UNL     1       6.654   6.246  18.102  0.00  0.00    +0.000 NA
ATOM      4  C   UNL     1       7.173   6.229  16.828  0.00  0.00    +0.000 A 
ATOM      5  C   UNL     1       6.625   5.210  16.071  0.00  0.00    +0.000 A 
ATOM      6  N   UNL     1       5.833   4.532  16.972  0.00  0.00    +0.000 N 
ATOM      7  H   UNL     1       5.347   3.666  16.789  0.00  0.00    +0.000 HD
BRANCH   5   8
ATOM      8  C   UNL     1       6.769   4.831  14.667  0.00  0.00    +0.000 A 
ATOM      9  C   UNL     1       7.686   5.479  13.828  0.00  0.00    +0.000 A 
ATOM     10  C   UNL     1       7.796   5.120  12.480  0.00  0.00    +0.000 A 
ATOM     11  C   UNL     1       6.987   4.115  11.952  0.00  0.00    +0.000 A 
ATOM     12  C   UNL     1       6.067   3.469  12.772  0.00  0.00    +0.000 A 
ATOM     13  C   UNL     1       5.959   3.825  14.119  0.00  0.00    +0.000 A 
ENDBRANCH   5   8
ENDBRANCH   1   2
BRANCH   1  14
ATOM     14  N   UNL     1       3.981   5.793  19.542  0.00  0.00    +0.000 N 
ATOM     15  C   UNL     1       3.290   6.355  18.499  0.00  0.00    +0.000 C 
ATOM     16  O   UNL     1       3.383   5.962  17.338  0.00  0.00    +0.000 OA
ATOM     17  H   UNL     1       3.808   6.072  20.502  0.00  0.00    +0.000 HD
BRANCH  15  18
ATOM     18  C   UNL     1       2.404   7.500  18.832  0.00  0.00    +0.000 A 
ATOM     19  C   UNL     1       2.067   8.411  17.821  0.00  0.00    +0.000 A 
ATOM     20  C   UNL     1       1.307   9.544  18.125  0.00  0.00    +0.000 A 
ATOM     21  C   UNL     1       0.912   9.782  19.440  0.00  0.00    +0.000 A 
ATOM     22  C   UNL     1       1.227   8.863  20.446  0.00  0.00    +0.000 A 
ATOM     23  C   UNL     1       1.977   7.724  20.146  0.00  0.00    +0.000 A 
ATOM     24  O   UNL     1       0.865   9.031  21.759  0.00  0.00    +0.000 OA
ATOM     25  C   UNL     1      -0.107  10.073  21.915  0.00  0.00    +0.000 C 
ATOM     26  C   UNL     1       0.250  11.284  21.068  0.00  0.00    +0.000 C 
ATOM     27  O   UNL     1       0.226  10.947  19.677  0.00  0.00    +0.000 OA
ENDBRANCH  15  18
ENDBRANCH   1  14
BRANCH   1  28
ATOM     28  C   UNL     1       4.337   3.403  19.135  0.00  0.00    +0.000 C 
BRANCH  28  29
ATOM     29  C   UNL     1       4.036   2.999  17.685  0.00  0.00    +0.000 C 
BRANCH  29  30
ATOM     30  C   UNL     1       2.648   2.391  17.450  0.00  0.00    +0.000 C 
BRANCH  30  31
ATOM     31  C   UNL     1       1.574   2.854  18.440  0.00  0.00    +0.000 C 
BRANCH  31  32
ATOM     32  C   UNL     1       1.578   2.046  19.734  0.00  0.00    +0.000 C 
BRANCH  32  34
ATOM     33  C   UNL     1       1.017   4.375  20.660  0.00  0.00    +0.000 C 
ATOM     34  C   UNL     1       1.357   2.934  20.936  0.00  0.00    +0.000 C 
ATOM     35  O   UNL     1       1.463   2.500  22.083  0.00  0.00    +0.000 OA
ENDBRANCH  32  34
ENDBRANCH  31  32
ENDBRANCH  30  31
ENDBRANCH  29  30
ENDBRANCH  28  29
ENDBRANCH   1  28
TORSDOF 10
ENDMDL
MODEL 3
REMARK VINA RESULT:      -7.9      4.664      7.832
REMARK  Name = 
REMARK  11 active torsions:
REMARK  status: ('A' for Active; 'I' for Inactive)
REMARK    1  A    between atoms: C_1  and  C_2
REMARK    2  A    between atoms: C_2  and  C_4
REMARK    3  A    between atoms: C_4  and  C_5
REMARK    4  A    between atoms: C_5  and  C_6
REMARK    5  A    between atoms: C_6  and  C_7
REMARK    6  A    between atoms: C_7  and  C_8
REMARK    7  A    between atoms: C_8  and  C_9
REMARK    8  A    between atoms: C_9  and  N_10
REMARK    9  A    between atoms: C_9  and  C_23
REMARK   10  A    between atoms: C_11  and  C_13
REMARK   11  A    between atoms: C_26  and  C_27
REMARK                            x       y       z     vdW  Elec       q    Type
REMARK                         _______ _______ _______ _____ _____    ______ ____
ROOT
ATOM      1  C   UNL     1       6.072   6.680  16.478  0.00  0.00    +0.000 C 
ENDROOT
BRANCH   1   2
ATOM      2  C   UNL     1       4.828   6.641  17.323  0.00  0.00    +0.000 A 
ATOM      3  N   UNL     1       4.069   7.662  17.675  0.00  0.00    +0.000 NA
ATOM      4  C   UNL     1       3.040   7.122  18.411  0.00  0.00    +0.000 A 
ATOM      5  C   UNL     1       3.180   5.753  18.549  0.00  0.00    +0.000 A 
ATOM      6  N   UNL     1       4.277   5.464  17.769  0.00  0.00    +0.000 N 
ATOM      7  H   UNL     1       4.618   4.537  17.558  0.00  0.00    +0.000 HD
BRANCH   5   8
ATOM      8  C   UNL     1       2.424   4.750  19.296  0.00  0.00    +0.000 A 
ATOM      9  C   UNL     1       1.506   3.905  18.657  0.00  0.00    +0.000 A 
ATOM     10  C   UNL     1       0.773   2.965  19.390  0.00  0.00    +0.000 A 
ATOM     11  C   UNL     1       0.942   2.863  20.769  0.00  0.00    +0.000 A 
ATOM     12  C   UNL     1       1.844   3.702  21.418  0.00  0.00    +0.000 A 
ATOM     13  C   UNL     1       2.578   4.637  20.686  0.00  0.00    +0.000 A 
ENDBRANCH   5   8
ENDBRANCH   1   2
BRANCH   1  14
ATOM     14  N   UNL     1       6.754   7.922  16.815  0.00  0.00    +0.000 N 
ATOM     15  C   UNL     1       7.706   7.994  17.799  0.00  0.00    +0.000 C 
ATOM     16  O   UNL     1       8.153   7.007  18.380  0.00  0.00    +0.000 OA
ATOM     17  H   UNL     1       6.479   8.741  16.284  0.00  0.00    +0.000 HD
BRANCH  15  18
ATOM     18  C   UNL     1       8.189   9.354  18.155  0.00  0.00    +0.000 A 
ATOM     19  C   UNL     1       7.779  10.443  17.375  0.00  0.00    +0.000 A 
ATOM     20  C   UNL     1       8.286  11.720  17.633  0.00  0.00    +0.000 A 
ATOM     21  C   UNL     1       9.223  11.901  18.649  0.00  0.00    +0.000 A 
ATOM     22  C   UNL     1       9.615  10.820  19.444  0.00  0.00    +0.000 A 
ATOM     23  C   UNL     1       9.104   9.544  19.197  0.00  0.00    +0.000 A 
ATOM     24  O   UNL     1      10.527  10.928  20.463  0.00  0.00    +0.000 OA
ATOM     25  C   UNL     1      10.789  12.296  20.803  0.00  0.00    +0.000 C 
ATOM     26  C   UNL     1      10.946  13.148  19.554  0.00  0.00    +0.000 C 
ATOM     27  O   UNL     1       9.727  13.168  18.804  0.00  0.00    +0.000 OA
ENDBRANCH  15  18
ENDBRANCH   1  14
BRANCH   1  28
ATOM     28  C   UNL     1       7.017   5.487  16.732  0.00  0.00    +0.000 C 
BRANCH  28  29
ATOM     29  C   UNL     1       7.227   4.517  15.561  0.00  0.00    +0.000 C 
BRANCH  29  30
ATOM     30  C   UNL     1       5.977   3.750  15.113  0.00  0.00    +0.000 C 
BRANCH  30  31
ATOM     31  C   UNL     1       5.473   4.115  13.713  0.00  0.00    +0.000 C 
BRANCH  31  32
ATOM     32  C   UNL     1       6.283   3.453  12.604  0.00  0.00    +0.000 C 
BRANCH  32  34
ATOM     33  C   UNL     1       4.084   3.233  11.295  0.00  0.00    +0.000 C 
ATOM     34  C   UNL     1       5.401   2.624  11.700  0.00  0.00    +0.000 C 
ATOM     35  O   UNL     1       5.740   1.501  11.326  0.00  0.00    +0.000 OA
ENDBRANCH  32  34
ENDBRANCH  31  32
ENDBRANCH  30  31
ENDBRANCH  29  30
ENDBRANCH  28  29
ENDBRANCH   1  28
TORSDOF 10
ENDMDL
MODEL 4
REMARK VINA RESULT:      -7.9      0.810      1.062
REMARK  Name = 
REMARK  11 active torsions:
REMARK  status: ('A' for Active; 'I' for Inactive)
REMARK    1  A    between atoms: C_1  and  C_2
REMARK    2  A    between atoms: C_2  and  C_4
REMARK    3  A    between atoms: C_4  and  C_5
REMARK    4  A    between atoms: C_5  and  C_6
REMARK    5  A    between atoms: C_6  and  C_7
REMARK    6  A    between atoms: C_7  and  C_8
REMARK    7  A    between atoms: C_8  and  C_9
REMARK    8  A    between atoms: C_9  and  N_10
REMARK    9  A    between atoms: C_9  and  C_23
REMARK   10  A    between atoms: C_11  and  C_13
REMARK   11  A    between atoms: C_26  and  C_27
REMARK                            x       y       z     vdW  Elec       q    Type
REMARK                         _______ _______ _______ _____ _____    ______ ____
ROOT
ATOM      1  C   UNL     1       3.018   5.401  18.324  0.00  0.00    +0.000 C 
ENDROOT
BRANCH   1   2
ATOM      2  C   UNL     1       4.251   5.599  17.484  0.00  0.00    +0.000 A 
ATOM      3  N   UNL     1       5.267   6.404  17.735  0.00  0.00    +0.000 NA
ATOM      4  C   UNL     1       6.156   6.208  16.703  0.00  0.00    +0.000 A 
ATOM      5  C   UNL     1       5.670   5.299  15.782  0.00  0.00    +0.000 A 
ATOM      6  N   UNL     1       4.497   4.860  16.353  0.00  0.00    +0.000 N 
ATOM      7  H   UNL     1       3.915   4.115  15.997  0.00  0.00    +0.000 HD
BRANCH   5   8
ATOM      8  C   UNL     1       6.176   4.827  14.494  0.00  0.00    +0.000 A 
ATOM      9  C   UNL     1       7.371   5.323  13.954  0.00  0.00    +0.000 A 
ATOM     10  C   UNL     1       7.830   4.878  12.710  0.00  0.00    +0.000 A 
ATOM     11  C   UNL     1       7.098   3.939  11.986  0.00  0.00    +0.000 A 
ATOM     12  C   UNL     1       5.905   3.444  12.506  0.00  0.00    +0.000 A 
ATOM     13  C   UNL     1       5.449   3.886  13.750  0.00  0.00    +0.000 A 
ENDBRANCH   5   8
ENDBRANCH   1   2
BRANCH   1  14
ATOM     14  N   UNL     1       2.680   6.711  18.864  0.00  0.00    +0.000 N 
ATOM     15  C   UNL     1       1.964   6.866  20.023  0.00  0.00    +0.000 C 
ATOM     16  O   UNL     1       1.666   5.931  20.763  0.00  0.00    +0.000 OA
ATOM     17  H   UNL     1       2.998   7.511  18.328  0.00  0.00    +0.000 HD
BRANCH  15  18
ATOM     18  C   UNL     1       1.540   8.250  20.360  0.00  0.00    +0.000 A 
ATOM     19  C   UNL     1       1.247   8.561  21.695  0.00  0.00    +0.000 A 
ATOM     20  C   UNL     1       0.762   9.829  22.028  0.00  0.00    +0.000 A 
ATOM     21  C   UNL     1       0.542  10.773  21.025  0.00  0.00    +0.000 A 
ATOM     22  C   UNL     1       0.856  10.472  19.696  0.00  0.00    +0.000 A 
ATOM     23  C   UNL     1       1.350   9.210  19.360  0.00  0.00    +0.000 A 
ATOM     24  O   UNL     1       0.671  11.354  18.662  0.00  0.00    +0.000 OA
ATOM     25  C   UNL     1       0.415  12.683  19.133  0.00  0.00    +0.000 C 
ATOM     26  C   UNL     1      -0.560  12.671  20.299  0.00  0.00    +0.000 C 
ATOM     27  O   UNL     1       0.003  11.973  21.415  0.00  0.00    +0.000 OA
ENDBRANCH  15  18
ENDBRANCH   1  14
BRANCH   1  28
ATOM     28  C   UNL     1       1.821   4.847  17.524  0.00  0.00    +0.000 C 
BRANCH  28  29
ATOM     29  C   UNL     1       1.293   3.468  17.947  0.00  0.00    +0.000 C 
BRANCH  29  30
ATOM     30  C   UNL     1       2.201   2.284  17.597  0.00  0.00    +0.000 C 
BRANCH  30  31
ATOM     31  C   UNL     1       2.791   1.554  18.809  0.00  0.00    +0.000 C 
BRANCH  31  32
ATOM     32  C   UNL     1       2.043   1.860  20.102  0.00  0.00    +0.000 C 
BRANCH  32  34
ATOM     33  C   UNL     1       4.380   2.730  20.715  0.00  0.00    +0.000 C 
ATOM     34  C   UNL     1       2.930   2.573  21.094  0.00  0.00    +0.000 C 
ATOM     35  O   UNL     1       2.490   2.993  22.164  0.00  0.00    +0.000 OA
ENDBRANCH  32  34
ENDBRANCH  31  32
ENDBRANCH  30  31
ENDBRANCH  29  30
ENDBRANCH  28  29
ENDBRANCH   1  28
TORSDOF 10
ENDMDL
MODEL 5
REMARK VINA RESULT:      -7.8      2.240      3.542
REMARK  Name = 
REMARK  11 active torsions:
REMARK  status: ('A' for Active; 'I' for Inactive)
REMARK    1  A    between atoms: C_1  and  C_2
REMARK    2  A    between atoms: C_2  and  C_4
REMARK    3  A    between atoms: C_4  and  C_5
REMARK    4  A    between atoms: C_5  and  C_6
REMARK    5  A    between atoms: C_6  and  C_7
REMARK    6  A    between atoms: C_7  and  C_8
REMARK    7  A    between atoms: C_8  and  C_9
REMARK    8  A    between atoms: C_9  and  N_10
REMARK    9  A    between atoms: C_9  and  C_23
REMARK   10  A    between atoms: C_11  and  C_13
REMARK   11  A    between atoms: C_26  and  C_27
REMARK                            x       y       z     vdW  Elec       q    Type
REMARK                         _______ _______ _______ _____ _____    ______ ____
ROOT
ATOM      1  C   UNL     1       1.920   7.445  20.574  0.00  0.00    +0.000 C 
ENDROOT
BRANCH   1   2
ATOM      2  C   UNL     1       2.595   7.374  19.231  0.00  0.00    +0.000 A 
ATOM      3  N   UNL     1       2.294   8.066  18.148  0.00  0.00    +0.000 NA
ATOM      4  C   UNL     1       3.210   7.679  17.196  0.00  0.00    +0.000 A 
ATOM      5  C   UNL     1       4.067   6.710  17.683  0.00  0.00    +0.000 A 
ATOM      6  N   UNL     1       3.710   6.602  19.008  0.00  0.00    +0.000 N 
ATOM      7  H   UNL     1       4.191   6.048  19.702  0.00  0.00    +0.000 HD
BRANCH   5   8
ATOM      8  C   UNL     1       5.130   5.924  17.059  0.00  0.00    +0.000 A 
ATOM      9  C   UNL     1       6.196   5.412  17.812  0.00  0.00    +0.000 A 
ATOM     10  C   UNL     1       7.217   4.681  17.196  0.00  0.00    +0.000 A 
ATOM     11  C   UNL     1       7.191   4.458  15.821  0.00  0.00    +0.000 A 
ATOM     12  C   UNL     1       6.143   4.967  15.059  0.00  0.00    +0.000 A 
ATOM     13  C   UNL     1       5.121   5.694  15.675  0.00  0.00    +0.000 A 
ENDBRANCH   5   8
ENDBRANCH   1   2
BRANCH   1  14
ATOM     14  N   UNL     1       1.024   8.593  20.517  0.00  0.00    +0.000 N 
ATOM     15  C   UNL     1       0.842   9.435  21.583  0.00  0.00    +0.000 C 
ATOM     16  O   UNL     1       1.506   9.373  22.616  0.00  0.00    +0.000 OA
ATOM     17  H   UNL     1       0.532   8.732  19.642  0.00  0.00    +0.000 HD
BRANCH  15  18
ATOM     18  C   UNL     1      -0.230  10.456  21.445  0.00  0.00    +0.000 A 
ATOM     19  C   UNL     1      -0.655  10.819  20.160  0.00  0.00    +0.000 A 
ATOM     20  C   UNL     1      -1.598  11.839  19.997  0.00  0.00    +0.000 A 
ATOM     21  C   UNL     1      -2.091  12.512  21.113  0.00  0.00    +0.000 A 
ATOM     22  C   UNL     1      -1.685  12.136  22.397  0.00  0.00    +0.000 A 
ATOM     23  C   UNL     1      -0.751  11.111  22.566  0.00  0.00    +0.000 A 
ATOM     24  O   UNL     1      -2.134  12.751  23.538  0.00  0.00    +0.000 OA
ATOM     25  C   UNL     1      -3.265  13.594  23.281  0.00  0.00    +0.000 C 
ATOM     26  C   UNL     1      -3.062  14.407  22.014  0.00  0.00    +0.000 C 
ATOM     27  O   UNL     1      -2.963  13.545  20.875  0.00  0.00    +0.000 OA
ENDBRANCH  15  18
ENDBRANCH   1  14
BRANCH   1  28
ATOM     28  C   UNL     1       1.112   6.176  20.915  0.00  0.00    +0.000 C 
BRANCH  28  29
ATOM     29  C   UNL     1       1.879   4.846  20.888  0.00  0.00    +0.000 C 
BRANCH  29  30
ATOM     30  C   UNL     1       1.014   3.595  20.701  0.00  0.00    +0.000 C 
BRANCH  30  31
ATOM     31  C   UNL     1       1.763   2.380  20.142  0.00  0.00    +0.000 C 
BRANCH  31  32
ATOM     32  C   UNL     1       1.448   2.118  18.673  0.00  0.00    +0.000 C 
BRANCH  32  34
ATOM     33  C   UNL     1       3.719   2.640  17.594  0.00  0.00    +0.000 C 
ATOM     34  C   UNL     1       2.268   3.006  17.769  0.00  0.00    +0.000 C 
ATOM     35  O   UNL     1       1.775   3.988  17.214  0.00  0.00    +0.000 OA
ENDBRANCH  32  34
ENDBRANCH  31  32
ENDBRANCH  30  31
ENDBRANCH  29  30
ENDBRANCH  28  29
ENDBRANCH   1  28
TORSDOF 10
ENDMDL
MODEL 6
REMARK VINA RESULT:      -7.7      3.616     10.765
REMARK  Name = 
REMARK  11 active torsions:
REMARK  status: ('A' for Active; 'I' for Inactive)
REMARK    1  A    between atoms: C_1  and  C_2
REMARK    2  A    between atoms: C_2  and  C_4
REMARK    3  A    between atoms: C_4  and  C_5
REMARK    4  A    between atoms: C_5  and  C_6
REMARK    5  A    between atoms: C_6  and  C_7
REMARK    6  A    between atoms: C_7  and  C_8
REMARK    7  A    between atoms: C_8  and  C_9
REMARK    8  A    between atoms: C_9  and  N_10
REMARK    9  A    between atoms: C_9  and  C_23
REMARK   10  A    between atoms: C_11  and  C_13
REMARK   11  A    between atoms: C_26  and  C_27
REMARK                            x       y       z     vdW  Elec       q    Type
REMARK                         _______ _______ _______ _____ _____    ______ ____
ROOT
ATOM      1  C   UNL     1      -0.091  10.304  19.277  0.00  0.00    +0.000 C 
ENDROOT
BRANCH   1   2
ATOM      2  C   UNL     1      -0.450  10.572  20.713  0.00  0.00    +0.000 A 
ATOM      3  N   UNL     1      -0.192   9.808  21.758  0.00  0.00    +0.000 NA
ATOM      4  C   UNL     1      -0.682  10.491  22.846  0.00  0.00    +0.000 A 
ATOM      5  C   UNL     1      -1.284  11.677  22.470  0.00  0.00    +0.000 A 
ATOM      6  N   UNL     1      -1.040  11.746  21.117  0.00  0.00    +0.000 N 
ATOM      7  H   UNL     1      -1.258  12.531  20.521  0.00  0.00    +0.000 HD
BRANCH   5   8
ATOM      8  C   UNL     1      -2.020  12.695  23.218  0.00  0.00    +0.000 A 
ATOM      9  C   UNL     1      -1.406  13.888  23.623  0.00  0.00    +0.000 A 
ATOM     10  C   UNL     1      -2.118  14.843  24.358  0.00  0.00    +0.000 A 
ATOM     11  C   UNL     1      -3.448  14.615  24.703  0.00  0.00    +0.000 A 
ATOM     12  C   UNL     1      -4.068  13.431  24.314  0.00  0.00    +0.000 A 
ATOM     13  C   UNL     1      -3.359  12.479  23.578  0.00  0.00    +0.000 A 
ENDBRANCH   5   8
ENDBRANCH   1   2
BRANCH   1  14
ATOM     14  N   UNL     1       0.865   9.205  19.296  0.00  0.00    +0.000 N 
ATOM     15  C   UNL     1       1.808   9.034  18.316  0.00  0.00    +0.000 C 
ATOM     16  O   UNL     1       2.009   9.854  17.422  0.00  0.00    +0.000 OA
ATOM     17  H   UNL     1       0.791   8.562  20.077  0.00  0.00    +0.000 HD
BRANCH  15  18
ATOM     18  C   UNL     1       2.599   7.777  18.369  0.00  0.00    +0.000 A 
ATOM     19  C   UNL     1       2.440   6.924  19.469  0.00  0.00    +0.000 A 
ATOM     20  C   UNL     1       3.233   5.780  19.589  0.00  0.00    +0.000 A 
ATOM     21  C   UNL     1       4.203   5.505  18.627  0.00  0.00    +0.000 A 
ATOM     22  C   UNL     1       4.348   6.341  17.516  0.00  0.00    +0.000 A 
ATOM     23  C   UNL     1       3.550   7.481  17.386  0.00  0.00    +0.000 A 
ATOM     24  O   UNL     1       5.277   6.128  16.529  0.00  0.00    +0.000 OA
ATOM     25  C   UNL     1       5.854   4.818  16.613  0.00  0.00    +0.000 C 
ATOM     26  C   UNL     1       6.184   4.459  18.053  0.00  0.00    +0.000 C 
ATOM     27  O   UNL     1       4.990   4.402  18.841  0.00  0.00    +0.000 OA
ENDBRANCH  15  18
ENDBRANCH   1  14
BRANCH   1  28
ATOM     28  C   UNL     1      -1.307   9.915  18.409  0.00  0.00    +0.000 C 
BRANCH  28  29
ATOM     29  C   UNL     1      -1.849  10.997  17.464  0.00  0.00    +0.000 C 
BRANCH  29  30
ATOM     30  C   UNL     1      -3.152  10.640  16.741  0.00  0.00    +0.000 C 
BRANCH  30  31
ATOM     31  C   UNL     1      -4.328  11.576  17.047  0.00  0.00    +0.000 C 
BRANCH  31  32
ATOM     32  C   UNL     1      -5.062  11.197  18.329  0.00  0.00    +0.000 C 
BRANCH  32  34
ATOM     33  C   UNL     1      -6.076  12.974  19.883  0.00  0.00    +0.000 C 
ATOM     34  C   UNL     1      -4.853  12.234  19.407  0.00  0.00    +0.000 C 
ATOM     35  O   UNL     1      -3.734  12.468  19.864  0.00  0.00    +0.000 OA
ENDBRANCH  32  34
ENDBRANCH  31  32
ENDBRANCH  30  31
ENDBRANCH  29  30
ENDBRANCH  28  29
ENDBRANCH   1  28
TORSDOF 10
ENDMDL
MODEL 7
REMARK VINA RESULT:      -7.7      1.190      1.867
REMARK  Name = 
REMARK  11 active torsions:
REMARK  status: ('A' for Active; 'I' for Inactive)
REMARK    1  A    between atoms: C_1  and  C_2
REMARK    2  A    between atoms: C_2  and  C_4
REMARK    3  A    between atoms: C_4  and  C_5
REMARK    4  A    between atoms: C_5  and  C_6
REMARK    5  A    between atoms: C_6  and  C_7
REMARK    6  A    between atoms: C_7  and  C_8
REMARK    7  A    between atoms: C_8  and  C_9
REMARK    8  A    between atoms: C_9  and  N_10
REMARK    9  A    between atoms: C_9  and  C_23
REMARK   10  A    between atoms: C_11  and  C_13
REMARK   11  A    between atoms: C_26  and  C_27
REMARK                            x       y       z     vdW  Elec       q    Type
REMARK                         _______ _______ _______ _____ _____    ______ ____
ROOT
ATOM      1  C   UNL     1       2.748   5.819  19.650  0.00  0.00    +0.000 C 
ENDROOT
BRANCH   1   2
ATOM      2  C   UNL     1       4.055   5.547  18.956  0.00  0.00    +0.000 A 
ATOM      3  N   UNL     1       5.259   5.532  19.497  0.00  0.00    +0.000 NA
ATOM      4  C   UNL     1       6.119   5.202  18.475  0.00  0.00    +0.000 A 
ATOM      5  C   UNL     1       5.447   5.046  17.278  0.00  0.00    +0.000 A 
ATOM      6  N   UNL     1       4.124   5.181  17.633  0.00  0.00    +0.000 N 
ATOM      7  H   UNL     1       3.335   5.033  17.021  0.00  0.00    +0.000 HD
BRANCH   5   8
ATOM      8  C   UNL     1       5.902   4.793  15.912  0.00  0.00    +0.000 A 
ATOM      9  C   UNL     1       7.133   5.280  15.452  0.00  0.00    +0.000 A 
ATOM     10  C   UNL     1       7.545   5.047  14.135  0.00  0.00    +0.000 A 
ATOM     11  C   UNL     1       6.729   4.333  13.260  0.00  0.00    +0.000 A 
ATOM     12  C   UNL     1       5.500   3.851  13.701  0.00  0.00    +0.000 A 
ATOM     13  C   UNL     1       5.091   4.079  15.017  0.00  0.00    +0.000 A 
ENDBRANCH   5   8
ENDBRANCH   1   2
BRANCH   1  14
ATOM     14  N   UNL     1       2.411   7.205  19.350  0.00  0.00    +0.000 N 
ATOM     15  C   UNL     1       1.621   7.963  20.175  0.00  0.00    +0.000 C 
ATOM     16  O   UNL     1       1.244   7.588  21.283  0.00  0.00    +0.000 OA
ATOM     17  H   UNL     1       2.789   7.580  18.487  0.00  0.00    +0.000 HD
BRANCH  15  18
ATOM     18  C   UNL     1       1.215   9.297  19.660  0.00  0.00    +0.000 A 
ATOM     19  C   UNL     1       1.898   9.834  18.560  0.00  0.00    +0.000 A 
ATOM     20  C   UNL     1       1.597  11.122  18.110  0.00  0.00    +0.000 A 
ATOM     21  C   UNL     1       0.637  11.883  18.775  0.00  0.00    +0.000 A 
ATOM     22  C   UNL     1      -0.062  11.341  19.858  0.00  0.00    +0.000 A 
ATOM     23  C   UNL     1       0.228  10.050  20.306  0.00  0.00    +0.000 A 
ATOM     24  O   UNL     1      -1.022  12.030  20.555  0.00  0.00    +0.000 OA
ATOM     25  C   UNL     1      -1.427  13.222  19.869  0.00  0.00    +0.000 C 
ATOM     26  C   UNL     1      -0.225  13.962  19.305  0.00  0.00    +0.000 C 
ATOM     27  O   UNL     1       0.439  13.162  18.320  0.00  0.00    +0.000 OA
ENDBRANCH  15  18
ENDBRANCH   1  14
BRANCH   1  28
ATOM     28  C   UNL     1       1.606   4.896  19.177  0.00  0.00    +0.000 C 
BRANCH  28  29
ATOM     29  C   UNL     1       0.884   4.087  20.265  0.00  0.00    +0.000 C 
BRANCH  29  30
ATOM     30  C   UNL     1       1.703   3.817  21.532  0.00  0.00    +0.000 C 
BRANCH  30  31
ATOM     31  C   UNL     1       2.634   2.603  21.441  0.00  0.00    +0.000 C 
BRANCH  31  32
ATOM     32  C   UNL     1       2.514   1.867  20.110  0.00  0.00    +0.000 C 
BRANCH  32  34
ATOM     33  C   UNL     1       3.703   1.745  17.837  0.00  0.00    +0.000 C 
ATOM     34  C   UNL     1       3.804   1.937  19.327  0.00  0.00    +0.000 C 
ATOM     35  O   UNL     1       4.884   2.129  19.885  0.00  0.00    +0.000 OA
ENDBRANCH  32  34
ENDBRANCH  31  32
ENDBRANCH  30  31
ENDBRANCH  29  30
ENDBRANCH  28  29
ENDBRANCH   1  28
TORSDOF 10
ENDMDL
MODEL 8
REMARK VINA RESULT:      -7.6      3.901      6.864
REMARK  Name = 
REMARK  11 active torsions:
REMARK  status: ('A' for Active; 'I' for Inactive)
REMARK    1  A    between atoms: C_1  and  C_2
REMARK    2  A    between atoms: C_2  and  C_4
REMARK    3  A    between atoms: C_4  and  C_5
REMARK    4  A    between atoms: C_5  and  C_6
REMARK    5  A    between atoms: C_6  and  C_7
REMARK    6  A    between atoms: C_7  and  C_8
REMARK    7  A    between atoms: C_8  and  C_9
REMARK    8  A    between atoms: C_9  and  N_10
REMARK    9  A    between atoms: C_9  and  C_23
REMARK   10  A    between atoms: C_11  and  C_13
REMARK   11  A    between atoms: C_26  and  C_27
REMARK                            x       y       z     vdW  Elec       q    Type
REMARK                         _______ _______ _______ _____ _____    ______ ____
ROOT
ATOM      1  C   UNL     1       1.222   9.230  20.160  0.00  0.00    +0.000 C 
ENDROOT
BRANCH   1   2
ATOM      2  C   UNL     1       1.960   8.250  19.289  0.00  0.00    +0.000 A 
ATOM      3  N   UNL     1       2.623   8.511  18.178  0.00  0.00    +0.000 NA
ATOM      4  C   UNL     1       3.150   7.307  17.770  0.00  0.00    +0.000 A 
ATOM      5  C   UNL     1       2.780   6.280  18.618  0.00  0.00    +0.000 A 
ATOM      6  N   UNL     1       2.100   6.926  19.626  0.00  0.00    +0.000 N 
ATOM      7  H   UNL     1       1.761   6.494  20.474  0.00  0.00    +0.000 HD
BRANCH   5   8
ATOM      8  C   UNL     1       2.996   4.835  18.576  0.00  0.00    +0.000 A 
ATOM      9  C   UNL     1       4.046   4.234  19.285  0.00  0.00    +0.000 A 
ATOM     10  C   UNL     1       4.253   2.852  19.217  0.00  0.00    +0.000 A 
ATOM     11  C   UNL     1       3.420   2.055  18.435  0.00  0.00    +0.000 A 
ATOM     12  C   UNL     1       2.378   2.639  17.720  0.00  0.00    +0.000 A 
ATOM     13  C   UNL     1       2.169   4.018  17.791  0.00  0.00    +0.000 A 
ENDBRANCH   5   8
ENDBRANCH   1   2
BRANCH   1  14
ATOM     14  N   UNL     1      -0.051   9.484  19.497  0.00  0.00    +0.000 N 
ATOM     15  C   UNL     1      -0.320  10.663  18.852  0.00  0.00    +0.000 C 
ATOM     16  O   UNL     1       0.521  11.540  18.667  0.00  0.00    +0.000 OA
ATOM     17  H   UNL     1      -0.736   8.737  19.545  0.00  0.00    +0.000 HD
BRANCH  15  18
ATOM     18  C   UNL     1      -1.715  10.853  18.375  0.00  0.00    +0.000 A 
ATOM     19  C   UNL     1      -2.079  10.333  17.125  0.00  0.00    +0.000 A 
ATOM     20  C   UNL     1      -3.358  10.572  16.613  0.00  0.00    +0.000 A 
ATOM     21  C   UNL     1      -4.259  11.353  17.335  0.00  0.00    +0.000 A 
ATOM     22  C   UNL     1      -3.906  11.853  18.592  0.00  0.00    +0.000 A 
ATOM     23  C   UNL     1      -2.633  11.609  19.113  0.00  0.00    +0.000 A 
ATOM     24  O   UNL     1      -4.744  12.623  19.358  0.00  0.00    +0.000 OA
ATOM     25  C   UNL     1      -6.091  12.597  18.866  0.00  0.00    +0.000 C 
ATOM     26  C   UNL     1      -6.121  12.722  17.352  0.00  0.00    +0.000 C 
ATOM     27  O   UNL     1      -5.471  11.602  16.743  0.00  0.00    +0.000 OA
ENDBRANCH  15  18
ENDBRANCH   1  14
BRANCH   1  28
ATOM     28  C   UNL     1       0.964   8.700  21.586  0.00  0.00    +0.000 C 
BRANCH  28  29
ATOM     29  C   UNL     1       0.737   9.755  22.679  0.00  0.00    +0.000 C 
BRANCH  29  30
ATOM     30  C   UNL     1      -0.727   9.989  23.069  0.00  0.00    +0.000 C 
BRANCH  30  31
ATOM     31  C   UNL     1      -1.384  11.194  22.386  0.00  0.00    +0.000 C 
BRANCH  31  32
ATOM     32  C   UNL     1      -0.815  12.525  22.866  0.00  0.00    +0.000 C 
BRANCH  32  34
ATOM     33  C   UNL     1      -0.918  14.131  20.864  0.00  0.00    +0.000 C 
ATOM     34  C   UNL     1      -0.087  13.243  21.754  0.00  0.00    +0.000 C 
ATOM     35  O   UNL     1       1.123  13.098  21.580  0.00  0.00    +0.000 OA
ENDBRANCH  32  34
ENDBRANCH  31  32
ENDBRANCH  30  31
ENDBRANCH  29  30
ENDBRANCH  28  29
ENDBRANCH   1  28
TORSDOF 10
ENDMDL
MODEL 9
REMARK VINA RESULT:      -7.6      3.571     10.821
REMARK  Name = 
REMARK  11 active torsions:
REMARK  status: ('A' for Active; 'I' for Inactive)
REMARK    1  A    between atoms: C_1  and  C_2
REMARK    2  A    between atoms: C_2  and  C_4
REMARK    3  A    between atoms: C_4  and  C_5
REMARK    4  A    between atoms: C_5  and  C_6
REMARK    5  A    between atoms: C_6  and  C_7
REMARK    6  A    between atoms: C_7  and  C_8
REMARK    7  A    between atoms: C_8  and  C_9
REMARK    8  A    between atoms: C_9  and  N_10
REMARK    9  A    between atoms: C_9  and  C_23
REMARK   10  A    between atoms: C_11  and  C_13
REMARK   11  A    between atoms: C_26  and  C_27
REMARK                            x       y       z     vdW  Elec       q    Type
REMARK                         _______ _______ _______ _____ _____    ______ ____
ROOT
ATOM      1  C   UNL     1       0.077  10.140  19.299  0.00  0.00    +0.000 C 
ENDROOT
BRANCH   1   2
ATOM      2  C   UNL     1      -0.285  10.410  20.734  0.00  0.00    +0.000 A 
ATOM      3  N   UNL     1       0.003   9.665  21.785  0.00  0.00    +0.000 NA
ATOM      4  C   UNL     1      -0.505  10.342  22.869  0.00  0.00    +0.000 A 
ATOM      5  C   UNL     1      -1.148  11.504  22.484  0.00  0.00    +0.000 A 
ATOM      6  N   UNL     1      -0.911  11.567  21.129  0.00  0.00    +0.000 N 
ATOM      7  H   UNL     1      -1.157  12.340  20.527  0.00  0.00    +0.000 HD
BRANCH   5   8
ATOM      8  C   UNL     1      -1.914  12.505  23.225  0.00  0.00    +0.000 A 
ATOM      9  C   UNL     1      -3.233  12.259  23.631  0.00  0.00    +0.000 A 
ATOM     10  C   UNL     1      -3.961  13.235  24.320  0.00  0.00    +0.000 A 
ATOM     11  C   UNL     1      -3.383  14.470  24.606  0.00  0.00    +0.000 A 
ATOM     12  C   UNL     1      -2.077  14.731  24.202  0.00  0.00    +0.000 A 
ATOM     13  C   UNL     1      -1.349  13.755  23.517  0.00  0.00    +0.000 A 
ENDBRANCH   5   8
ENDBRANCH   1   2
BRANCH   1  14
ATOM     14  N   UNL     1       1.020   9.029  19.320  0.00  0.00    +0.000 N 
ATOM     15  C   UNL     1       1.901   8.793  18.297  0.00  0.00    +0.000 C 
ATOM     16  O   UNL     1       2.060   9.562  17.352  0.00  0.00    +0.000 OA
ATOM     17  H   UNL     1       0.983   8.428  20.137  0.00  0.00    +0.000 HD
BRANCH  15  18
ATOM     18  C   UNL     1       2.678   7.528  18.371  0.00  0.00    +0.000 A 
ATOM     19  C   UNL     1       3.754   7.343  17.492  0.00  0.00    +0.000 A 
ATOM     20  C   UNL     1       4.446   6.129  17.478  0.00  0.00    +0.000 A 
ATOM     21  C   UNL     1       4.045   5.092  18.319  0.00  0.00    +0.000 A 
ATOM     22  C   UNL     1       2.986   5.283  19.213  0.00  0.00    +0.000 A 
ATOM     23  C   UNL     1       2.297   6.497  19.238  0.00  0.00    +0.000 A 
ATOM     24  O   UNL     1       2.543   4.309  20.072  0.00  0.00    +0.000 OA
ATOM     25  C   UNL     1       3.462   3.212  20.156  0.00  0.00    +0.000 C 
ATOM     26  C   UNL     1       3.981   2.828  18.780  0.00  0.00    +0.000 C 
ATOM     27  O   UNL     1       4.726   3.907  18.206  0.00  0.00    +0.000 OA
ENDBRANCH  15  18
ENDBRANCH   1  14
BRANCH   1  28
ATOM     28  C   UNL     1      -1.139   9.768  18.425  0.00  0.00    +0.000 C 
BRANCH  28  29
ATOM     29  C   UNL     1      -1.717  10.885  17.544  0.00  0.00    +0.000 C 
BRANCH  29  30
ATOM     30  C   UNL     1      -3.182  10.702  17.132  0.00  0.00    +0.000 C 
BRANCH  30  31
ATOM     31  C   UNL     1      -4.158  11.675  17.801  0.00  0.00    +0.000 C 
BRANCH  31  32
ATOM     32  C   UNL     1      -5.485  11.018  18.167  0.00  0.00    +0.000 C 
BRANCH  32  34
ATOM     33  C   UNL     1      -5.110  12.465  20.256  0.00  0.00    +0.000 C 
ATOM     34  C   UNL     1      -6.022  11.557  19.472  0.00  0.00    +0.000 C 
ATOM     35  O   UNL     1      -7.144  11.256  19.878  0.00  0.00    +0.000 OA
ENDBRANCH  32  34
ENDBRANCH  31  32
ENDBRANCH  30  31
ENDBRANCH  29  30
ENDBRANCH  28  29
ENDBRANCH   1  28
TORSDOF 10
ENDMDL
