MODEL 1
REMARK VINA RESULT:      -9.4      0.000      0.000
REMARK  Name = 
REMARK  7 active torsions:
REMARK  status: ('A' for Active; 'I' for Inactive)
REMARK    1  A    between atoms: C_1  and  C_2
REMARK    2  A    between atoms: C_6  and  O_7
REMARK    3  A    between atoms: O_7  and  C_8
REMARK    4  A    between atoms: C_8  and  C_9
REMARK    5  A    between atoms: N_11  and  C_12
REMARK    6  A    between atoms: C_13  and  C_14
REMARK    7  A    between atoms: N_19  and  C_20
REMARK                            x       y       z     vdW  Elec       q    Type
REMARK                         _______ _______ _______ _____ _____    ______ ____
ROOT
ATOM      1  C   UNL     1       3.535   5.821  19.163  0.00  0.00    +0.000 A 
ATOM      2  C   UNL     1       2.458   6.656  19.362  0.00  0.00    +0.000 A 
ATOM      3  O   UNL     1       1.496   5.995  20.094  0.00  0.00    +0.000 OA
ATOM      4  C   UNL     1       1.976   4.761  20.391  0.00  0.00    +0.000 A 
ATOM      5  C   UNL     1       1.293   3.772  21.106  0.00  0.00    +0.000 A 
ATOM      6  C   UNL     1       1.974   2.569  21.324  0.00  0.00    +0.000 A 
ATOM      7  C   UNL     1       3.273   2.382  20.849  0.00  0.00    +0.000 A 
ATOM      8  C   UNL     1       3.917   3.388  20.111  0.00  0.00    +0.000 A 
ATOM      9  C   UNL     1       3.249   4.601  19.855  0.00  0.00    +0.000 A 
ENDROOT
BRANCH   2  10
ATOM     10  C   UNL     1       2.121   7.948  18.776  0.00  0.00    +0.000 C 
ATOM     11  O   UNL     1       2.281   8.163  17.567  0.00  0.00    +0.000 OA
ATOM     12  N   UNL     1       1.556   8.912  19.598  0.00  0.00    +0.000 N 
ATOM     13  C   UNL     1       1.038  10.159  19.033  0.00  0.00    +0.000 C 
ATOM     14  C   UNL     1      -0.339  10.489  19.638  0.00  0.00    +0.000 C 
ATOM     15  N   UNL     1      -0.259  10.475  21.106  0.00  0.00    +0.000 N 
ATOM     16  C   UNL     1       0.323   9.273  21.727  0.00  0.00    +0.000 C 
ATOM     17  C   UNL     1       1.665   8.928  21.060  0.00  0.00    +0.000 C 
BRANCH  15  18
ATOM     18  C   UNL     1      -0.724  11.524  21.876  0.00  0.00    +0.000 A 
ATOM     19  C   UNL     1      -1.828  11.354  22.729  0.00  0.00    +0.000 A 
ATOM     20  C   UNL     1      -2.313  12.399  23.521  0.00  0.00    +0.000 A 
ATOM     21  C   UNL     1      -1.706  13.649  23.476  0.00  0.00    +0.000 A 
ATOM     22  C   UNL     1      -0.618  13.855  22.635  0.00  0.00    +0.000 A 
ATOM     23  C   UNL     1      -0.144  12.805  21.850  0.00  0.00    +0.000 A 
ATOM     24  F   UNL     1       0.920  13.052  21.067  0.00  0.00    +0.000 F 
ENDBRANCH  15  18
ENDBRANCH   2  10
BRANCH   1  27
ATOM     25  C   UNL     1       4.862   5.409  17.173  0.00  0.00    +0.000 C 
ATOM     26  O   UNL     1       4.094   4.581  16.709  0.00  0.00    +0.000 OA
ATOM     27  N   UNL     1       4.662   6.093  18.373  0.00  0.00    +0.000 N 
ATOM     28  H   UNL     1       5.096   6.995  18.485  0.00  0.00    +0.000 HD
BRANCH  25  29
ATOM     29  C   UNL     1       6.135   5.840  16.420  0.00  0.00    +0.000 C 
BRANCH  29  30
ATOM     30  O   UNL     1       6.786   4.678  15.905  0.00  0.00    +0.000 OA
BRANCH  30  36
ATOM     31  C   UNL     1       5.336   2.524  11.656  0.00  0.00    +0.000 C 
ATOM     32  C   UNL     1       6.172   3.508  12.419  0.00  0.00    +0.000 A 
ATOM     33  C   UNL     1       7.089   4.334  11.758  0.00  0.00    +0.000 A 
ATOM     34  C   UNL     1       7.861   5.240  12.482  0.00  0.00    +0.000 A 
ATOM     35  C   UNL     1       7.720   5.320  13.868  0.00  0.00    +0.000 A 
ATOM     36  C   UNL     1       6.809   4.503  14.547  0.00  0.00    +0.000 A 
ATOM     37  C   UNL     1       6.037   3.601  13.816  0.00  0.00    +0.000 A 
ENDBRANCH  30  36
ENDBRANCH  29  30
ENDBRANCH  25  29
ENDBRANCH   1  27
TORSDOF 6
ENDMDL
MODEL 2
REMARK VINA RESULT:      -9.4      1.132      1.224
REMARK  Name = 
REMARK  7 active torsions:
REMARK  status: ('A' for Active; 'I' for Inactive)
REMARK    1  A    between atoms: C_1  and  C_2
REMARK    2  A    between atoms: C_6  and  O_7
REMARK    3  A    between atoms: O_7  and  C_8
REMARK    4  A    between atoms: C_8  and  C_9
REMARK    5  A    between atoms: N_11  and  C_12
REMARK    6  A    between atoms: C_13  and  C_14
REMARK    7  A    between atoms: N_19  and  C_20
REMARK                            x       y       z     vdW  Elec       q    Type
REMARK                         _______ _______ _______ _____ _____    ______ ____
ROOT
ATOM      1  C   UNL     1       3.429   5.652  18.468  0.00  0.00    +0.000 A 
ATOM      2  C   UNL     1       2.569   6.653  18.863  0.00  0.00    +0.000 A 
ATOM      3  O   UNL     1       1.662   6.145  19.768  0.00  0.00    +0.000 OA
ATOM      4  C   UNL     1       1.970   4.840  19.976  0.00  0.00    +0.000 A 
ATOM      5  C   UNL     1       1.274   3.962  20.814  0.00  0.00    +0.000 A 
ATOM      6  C   UNL     1       1.767   2.655  20.905  0.00  0.00    +0.000 A 
ATOM      7  C   UNL     1       2.901   2.264  20.193  0.00  0.00    +0.000 A 
ATOM      8  C   UNL     1       3.559   3.165  19.340  0.00  0.00    +0.000 A 
ATOM      9  C   UNL     1       3.073   4.481  19.209  0.00  0.00    +0.000 A 
ENDROOT
BRANCH   2  10
ATOM     10  C   UNL     1       2.355   7.999  18.344  0.00  0.00    +0.000 C 
ATOM     11  O   UNL     1       2.768   8.325  17.224  0.00  0.00    +0.000 OA
ATOM     12  N   UNL     1       1.620   8.887  19.115  0.00  0.00    +0.000 N 
ATOM     13  C   UNL     1       1.225  10.189  18.574  0.00  0.00    +0.000 C 
ATOM     14  C   UNL     1      -0.252  10.479  18.899  0.00  0.00    +0.000 C 
ATOM     15  N   UNL     1      -0.488  10.324  20.342  0.00  0.00    +0.000 N 
ATOM     16  C   UNL     1      -0.043   9.062  20.956  0.00  0.00    +0.000 C 
ATOM     17  C   UNL     1       1.414   8.764  20.561  0.00  0.00    +0.000 C 
BRANCH  15  18
ATOM     18  C   UNL     1      -1.114  11.302  21.092  0.00  0.00    +0.000 A 
ATOM     19  C   UNL     1      -1.916  12.276  20.473  0.00  0.00    +0.000 A 
ATOM     20  C   UNL     1      -2.563  13.272  21.211  0.00  0.00    +0.000 A 
ATOM     21  C   UNL     1      -2.421  13.322  22.593  0.00  0.00    +0.000 A 
ATOM     22  C   UNL     1      -1.626  12.379  23.235  0.00  0.00    +0.000 A 
ATOM     23  C   UNL     1      -0.985  11.392  22.489  0.00  0.00    +0.000 A 
ATOM     24  F   UNL     1      -0.243  10.495  23.161  0.00  0.00    +0.000 F 
ENDBRANCH  15  18
ENDBRANCH   2  10
BRANCH   1  27
ATOM     25  C   UNL     1       5.767   5.810  17.832  0.00  0.00    +0.000 C 
ATOM     26  O   UNL     1       6.187   5.747  18.977  0.00  0.00    +0.000 OA
ATOM     27  N   UNL     1       4.418   5.750  17.477  0.00  0.00    +0.000 N 
ATOM     28  H   UNL     1       4.182   5.416  16.557  0.00  0.00    +0.000 HD
BRANCH  25  29
ATOM     29  C   UNL     1       6.720   5.896  16.626  0.00  0.00    +0.000 C 
BRANCH  29  30
ATOM     30  O   UNL     1       6.867   4.594  16.057  0.00  0.00    +0.000 OA
BRANCH  30  36
ATOM     31  C   UNL     1       5.209   2.723  11.750  0.00  0.00    +0.000 C 
ATOM     32  C   UNL     1       6.112   3.626  12.537  0.00  0.00    +0.000 A 
ATOM     33  C   UNL     1       7.054   4.436  11.891  0.00  0.00    +0.000 A 
ATOM     34  C   UNL     1       7.889   5.266  12.637  0.00  0.00    +0.000 A 
ATOM     35  C   UNL     1       7.785   5.286  14.029  0.00  0.00    +0.000 A 
ATOM     36  C   UNL     1       6.849   4.484  14.692  0.00  0.00    +0.000 A 
ATOM     37  C   UNL     1       6.015   3.658  13.939  0.00  0.00    +0.000 A 
ENDBRANCH  30  36
ENDBRANCH  29  30
ENDBRANCH  25  29
ENDBRANCH   1  27
TORSDOF 6
ENDMDL
MODEL 3
REMARK VINA RESULT:      -9.3      1.238      1.301
REMARK  Name = 
REMARK  7 active torsions:
REMARK  status: ('A' for Active; 'I' for Inactive)
REMARK    1  A    between atoms: C_1  and  C_2
REMARK    2  A    between atoms: C_6  and  O_7
REMARK    3  A    between atoms: O_7  and  C_8
REMARK    4  A    between atoms: C_8  and  C_9
REMARK    5  A    between atoms: N_11  and  C_12
REMARK    6  A    between atoms: C_13  and  C_14
REMARK    7  A    between atoms: N_19  and  C_20
REMARK                            x       y       z     vdW  Elec       q    Type
REMARK                         _______ _______ _______ _____ _____    ______ ____
ROOT
ATOM      1  C   UNL     1       3.397   5.685  18.436  0.00  0.00    +0.000 A 
ATOM      2  C   UNL     1       2.573   6.717  18.827  0.00  0.00    +0.000 A 
ATOM      3  O   UNL     1       1.630   6.239  19.712  0.00  0.00    +0.000 OA
ATOM      4  C   UNL     1       1.879   4.920  19.911  0.00  0.00    +0.000 A 
ATOM      5  C   UNL     1       1.134   4.065  20.728  0.00  0.00    +0.000 A 
ATOM      6  C   UNL     1       1.569   2.737  20.814  0.00  0.00    +0.000 A 
ATOM      7  C   UNL     1       2.698   2.305  20.117  0.00  0.00    +0.000 A 
ATOM      8  C   UNL     1       3.407   3.186  19.284  0.00  0.00    +0.000 A 
ATOM      9  C   UNL     1       2.979   4.522  19.159  0.00  0.00    +0.000 A 
ENDROOT
BRANCH   2  10
ATOM     10  C   UNL     1       2.425   8.076  18.320  0.00  0.00    +0.000 C 
ATOM     11  O   UNL     1       2.900   8.404  17.225  0.00  0.00    +0.000 OA
ATOM     12  N   UNL     1       1.682   8.976  19.068  0.00  0.00    +0.000 N 
ATOM     13  C   UNL     1       1.352  10.297  18.528  0.00  0.00    +0.000 C 
ATOM     14  C   UNL     1      -0.129  10.627  18.788  0.00  0.00    +0.000 C 
ATOM     15  N   UNL     1      -0.438  10.461  20.217  0.00  0.00    +0.000 N 
ATOM     16  C   UNL     1      -0.061   9.177  20.832  0.00  0.00    +0.000 C 
ATOM     17  C   UNL     1       1.403   8.839  20.501  0.00  0.00    +0.000 C 
BRANCH  15  18
ATOM     18  C   UNL     1      -1.069  11.448  20.950  0.00  0.00    +0.000 A 
ATOM     19  C   UNL     1      -0.589  11.817  22.218  0.00  0.00    +0.000 A 
ATOM     20  C   UNL     1      -1.208  12.815  22.976  0.00  0.00    +0.000 A 
ATOM     21  C   UNL     1      -2.332  13.470  22.486  0.00  0.00    +0.000 A 
ATOM     22  C   UNL     1      -2.839  13.121  21.239  0.00  0.00    +0.000 A 
ATOM     23  C   UNL     1      -2.214  12.124  20.492  0.00  0.00    +0.000 A 
ATOM     24  F   UNL     1      -2.734  11.837  19.287  0.00  0.00    +0.000 F 
ENDBRANCH  15  18
ENDBRANCH   2  10
BRANCH   1  27
ATOM     25  C   UNL     1       5.748   5.791  17.842  0.00  0.00    +0.000 C 
ATOM     26  O   UNL     1       6.146   5.738  18.995  0.00  0.00    +0.000 OA
ATOM     27  N   UNL     1       4.405   5.751  17.463  0.00  0.00    +0.000 N 
ATOM     28  H   UNL     1       4.180   5.407  16.543  0.00  0.00    +0.000 HD
BRANCH  25  29
ATOM     29  C   UNL     1       6.725   5.842  16.653  0.00  0.00    +0.000 C 
BRANCH  29  30
ATOM     30  O   UNL     1       6.816   4.542  16.070  0.00  0.00    +0.000 OA
BRANCH  30  36
ATOM     31  C   UNL     1       5.232   2.706  11.721  0.00  0.00    +0.000 C 
ATOM     32  C   UNL     1       6.116   3.609  12.530  0.00  0.00    +0.000 A 
ATOM     33  C   UNL     1       7.057   4.436  11.906  0.00  0.00    +0.000 A 
ATOM     34  C   UNL     1       7.873   5.266  12.672  0.00  0.00    +0.000 A 
ATOM     35  C   UNL     1       7.751   5.268  14.063  0.00  0.00    +0.000 A 
ATOM     36  C   UNL     1       6.816   4.448  14.704  0.00  0.00    +0.000 A 
ATOM     37  C   UNL     1       6.001   3.622  13.931  0.00  0.00    +0.000 A 
ENDBRANCH  30  36
ENDBRANCH  29  30
ENDBRANCH  25  29
ENDBRANCH   1  27
TORSDOF 6
ENDMDL
MODEL 4
REMARK VINA RESULT:      -9.1      3.810      6.910
REMARK  Name = 
REMARK  7 active torsions:
REMARK  status: ('A' for Active; 'I' for Inactive)
REMARK    1  A    between atoms: C_1  and  C_2
REMARK    2  A    between atoms: C_6  and  O_7
REMARK    3  A    between atoms: O_7  and  C_8
REMARK    4  A    between atoms: C_8  and  C_9
REMARK    5  A    between atoms: N_11  and  C_12
REMARK    6  A    between atoms: C_13  and  C_14
REMARK    7  A    between atoms: N_19  and  C_20
REMARK                            x       y       z     vdW  Elec       q    Type
REMARK                         _______ _______ _______ _____ _____    ______ ____
ROOT
ATOM      1  C   UNL     1       6.843   5.039  16.461  0.00  0.00    +0.000 A 
ATOM      2  C   UNL     1       5.766   4.265  16.832  0.00  0.00    +0.000 A 
ATOM      3  O   UNL     1       5.222   3.672  15.712  0.00  0.00    +0.000 OA
ATOM      4  C   UNL     1       5.975   4.037  14.643  0.00  0.00    +0.000 A 
ATOM      5  C   UNL     1       5.742   3.660  13.317  0.00  0.00    +0.000 A 
ATOM      6  C   UNL     1       6.650   4.128  12.360  0.00  0.00    +0.000 A 
ATOM      7  C   UNL     1       7.733   4.927  12.729  0.00  0.00    +0.000 A 
ATOM      8  C   UNL     1       7.920   5.308  14.068  0.00  0.00    +0.000 A 
ATOM      9  C   UNL     1       7.010   4.872  15.050  0.00  0.00    +0.000 A 
ENDROOT
BRANCH   2  10
ATOM     10  C   UNL     1       5.042   4.164  18.094  0.00  0.00    +0.000 C 
ATOM     11  O   UNL     1       5.322   3.287  18.922  0.00  0.00    +0.000 OA
ATOM     12  N   UNL     1       4.073   5.116  18.370  0.00  0.00    +0.000 N 
ATOM     13  C   UNL     1       3.439   5.170  19.689  0.00  0.00    +0.000 C 
ATOM     14  C   UNL     1       3.367   6.624  20.190  0.00  0.00    +0.000 C 
ATOM     15  N   UNL     1       2.728   7.474  19.174  0.00  0.00    +0.000 N 
ATOM     16  C   UNL     1       3.278   7.405  17.810  0.00  0.00    +0.000 C 
ATOM     17  C   UNL     1       3.401   5.940  17.360  0.00  0.00    +0.000 C 
BRANCH  15  18
ATOM     18  C   UNL     1       1.675   8.316  19.480  0.00  0.00    +0.000 A 
ATOM     19  C   UNL     1       1.040   8.245  20.731  0.00  0.00    +0.000 A 
ATOM     20  C   UNL     1      -0.023   9.089  21.064  0.00  0.00    +0.000 A 
ATOM     21  C   UNL     1      -0.485  10.027  20.148  0.00  0.00    +0.000 A 
ATOM     22  C   UNL     1       0.114  10.116  18.896  0.00  0.00    +0.000 A 
ATOM     23  C   UNL     1       1.174   9.269  18.575  0.00  0.00    +0.000 A 
ATOM     24  F   UNL     1       1.728   9.407  17.359  0.00  0.00    +0.000 F 
ENDBRANCH  15  18
ENDBRANCH   2  10
BRANCH   1  27
ATOM     25  C   UNL     1       7.345   7.259  17.306  0.00  0.00    +0.000 C 
ATOM     26  O   UNL     1       6.484   7.816  16.643  0.00  0.00    +0.000 OA
ATOM     27  N   UNL     1       7.586   5.884  17.300  0.00  0.00    +0.000 N 
ATOM     28  H   UNL     1       8.003   5.470  18.118  0.00  0.00    +0.000 HD
BRANCH  25  29
ATOM     29  C   UNL     1       8.231   8.038  18.296  0.00  0.00    +0.000 C 
BRANCH  29  30
ATOM     30  O   UNL     1       8.074   9.437  18.058  0.00  0.00    +0.000 OA
BRANCH  30  36
ATOM     31  C   UNL     1      11.850  12.639  17.526  0.00  0.00    +0.000 C 
ATOM     32  C   UNL     1      10.898  11.849  18.375  0.00  0.00    +0.000 A 
ATOM     33  C   UNL     1      10.960  11.915  19.772  0.00  0.00    +0.000 A 
ATOM     34  C   UNL     1      10.072  11.171  20.545  0.00  0.00    +0.000 A 
ATOM     35  C   UNL     1       9.121  10.360  19.924  0.00  0.00    +0.000 A 
ATOM     36  C   UNL     1       9.043  10.282  18.530  0.00  0.00    +0.000 A 
ATOM     37  C   UNL     1       9.934  11.030  17.761  0.00  0.00    +0.000 A 
ENDBRANCH  30  36
ENDBRANCH  29  30
ENDBRANCH  25  29
ENDBRANCH   1  27
TORSDOF 6
ENDMDL
MODEL 5
REMARK VINA RESULT:      -9.1      3.838      6.906
REMARK  Name = 
REMARK  7 active torsions:
REMARK  status: ('A' for Active; 'I' for Inactive)
REMARK    1  A    between atoms: C_1  and  C_2
REMARK    2  A    between atoms: C_6  and  O_7
REMARK    3  A    between atoms: O_7  and  C_8
REMARK    4  A    between atoms: C_8  and  C_9
REMARK    5  A    between atoms: N_11  and  C_12
REMARK    6  A    between atoms: C_13  and  C_14
REMARK    7  A    between atoms: N_19  and  C_20
REMARK                            x       y       z     vdW  Elec       q    Type
REMARK                         _______ _______ _______ _____ _____    ______ ____
ROOT
ATOM      1  C   UNL     1       6.792   5.114  16.535  0.00  0.00    +0.000 A 
ATOM      2  C   UNL     1       5.691   4.376  16.911  0.00  0.00    +0.000 A 
ATOM      3  O   UNL     1       5.155   3.758  15.802  0.00  0.00    +0.000 OA
ATOM      4  C   UNL     1       5.933   4.071  14.736  0.00  0.00    +0.000 A 
ATOM      5  C   UNL     1       5.715   3.656  13.418  0.00  0.00    +0.000 A 
ATOM      6  C   UNL     1       6.650   4.073  12.463  0.00  0.00    +0.000 A 
ATOM      7  C   UNL     1       7.744   4.860  12.826  0.00  0.00    +0.000 A 
ATOM      8  C   UNL     1       7.916   5.280  14.154  0.00  0.00    +0.000 A 
ATOM      9  C   UNL     1       6.980   4.896  15.134  0.00  0.00    +0.000 A 
ENDROOT
BRANCH   2  10
ATOM     10  C   UNL     1       4.944   4.331  18.163  0.00  0.00    +0.000 C 
ATOM     11  O   UNL     1       5.211   3.497  19.037  0.00  0.00    +0.000 OA
ATOM     12  N   UNL     1       3.966   5.291  18.375  0.00  0.00    +0.000 N 
ATOM     13  C   UNL     1       3.306   5.406  19.677  0.00  0.00    +0.000 C 
ATOM     14  C   UNL     1       3.220   6.882  20.106  0.00  0.00    +0.000 C 
ATOM     15  N   UNL     1       2.597   7.679  19.039  0.00  0.00    +0.000 N 
ATOM     16  C   UNL     1       3.174   7.548  17.690  0.00  0.00    +0.000 C 
ATOM     17  C   UNL     1       3.311   6.063  17.314  0.00  0.00    +0.000 C 
BRANCH  15  18
ATOM     18  C   UNL     1       1.535   8.530  19.283  0.00  0.00    +0.000 A 
ATOM     19  C   UNL     1       0.984   9.305  18.249  0.00  0.00    +0.000 A 
ATOM     20  C   UNL     1      -0.092  10.168  18.471  0.00  0.00    +0.000 A 
ATOM     21  C   UNL     1      -0.646  10.283  19.740  0.00  0.00    +0.000 A 
ATOM     22  C   UNL     1      -0.118   9.537  20.789  0.00  0.00    +0.000 A 
ATOM     23  C   UNL     1       0.956   8.680  20.556  0.00  0.00    +0.000 A 
ATOM     24  F   UNL     1       1.418   7.970  21.599  0.00  0.00    +0.000 F 
ENDBRANCH  15  18
ENDBRANCH   2  10
BRANCH   1  27
ATOM     25  C   UNL     1       7.310   7.346  17.337  0.00  0.00    +0.000 C 
ATOM     26  O   UNL     1       6.457   7.897  16.658  0.00  0.00    +0.000 OA
ATOM     27  N   UNL     1       7.539   5.969  17.360  0.00  0.00    +0.000 N 
ATOM     28  H   UNL     1       7.949   5.568  18.188  0.00  0.00    +0.000 HD
BRANCH  25  29
ATOM     29  C   UNL     1       8.200   8.137  18.313  0.00  0.00    +0.000 C 
BRANCH  29  30
ATOM     30  O   UNL     1       8.174   9.518  17.950  0.00  0.00    +0.000 OA
BRANCH  30  36
ATOM     31  C   UNL     1      11.979  12.720  17.699  0.00  0.00    +0.000 C 
ATOM     32  C   UNL     1      10.987  11.907  18.476  0.00  0.00    +0.000 A 
ATOM     33  C   UNL     1      10.984  11.927  19.876  0.00  0.00    +0.000 A 
ATOM     34  C   UNL     1      10.059  11.162  20.583  0.00  0.00    +0.000 A 
ATOM     35  C   UNL     1       9.136  10.375  19.892  0.00  0.00    +0.000 A 
ATOM     36  C   UNL     1       9.122  10.343  18.494  0.00  0.00    +0.000 A 
ATOM     37  C   UNL     1      10.050  11.112  17.792  0.00  0.00    +0.000 A 
ENDBRANCH  30  36
ENDBRANCH  29  30
ENDBRANCH  25  29
ENDBRANCH   1  27
TORSDOF 6
ENDMDL
MODEL 6
REMARK VINA RESULT:      -9.1      1.222      1.304
REMARK  Name = 
REMARK  7 active torsions:
REMARK  status: ('A' for Active; 'I' for Inactive)
REMARK    1  A    between atoms: C_1  and  C_2
REMARK    2  A    between atoms: C_6  and  O_7
REMARK    3  A    between atoms: O_7  and  C_8
REMARK    4  A    between atoms: C_8  and  C_9
REMARK    5  A    between atoms: N_11  and  C_12
REMARK    6  A    between atoms: C_13  and  C_14
REMARK    7  A    between atoms: N_19  and  C_20
REMARK                            x       y       z     vdW  Elec       q    Type
REMARK                         _______ _______ _______ _____ _____    ______ ____
ROOT
ATOM      1  C   UNL     1       3.896   5.133  19.150  0.00  0.00    +0.000 A 
ATOM      2  C   UNL     1       2.947   6.130  19.083  0.00  0.00    +0.000 A 
ATOM      3  O   UNL     1       1.819   5.735  19.770  0.00  0.00    +0.000 OA
ATOM      4  C   UNL     1       2.065   4.511  20.301  0.00  0.00    +0.000 A 
ATOM      5  C   UNL     1       1.163   3.754  21.056  0.00  0.00    +0.000 A 
ATOM      6  C   UNL     1       1.619   2.520  21.532  0.00  0.00    +0.000 A 
ATOM      7  C   UNL     1       2.917   2.082  21.263  0.00  0.00    +0.000 A 
ATOM      8  C   UNL     1       3.787   2.856  20.479  0.00  0.00    +0.000 A 
ATOM      9  C   UNL     1       3.349   4.093  19.966  0.00  0.00    +0.000 A 
ENDROOT
BRANCH   2  10
ATOM     10  C   UNL     1       2.883   7.344  18.279  0.00  0.00    +0.000 C 
ATOM     11  O   UNL     1       3.401   7.395  17.156  0.00  0.00    +0.000 OA
ATOM     12  N   UNL     1       2.168   8.423  18.779  0.00  0.00    +0.000 N 
ATOM     13  C   UNL     1       1.921   9.601  17.945  0.00  0.00    +0.000 C 
ATOM     14  C   UNL     1       0.453  10.047  18.071  0.00  0.00    +0.000 C 
ATOM     15  N   UNL     1       0.100  10.221  19.488  0.00  0.00    +0.000 N 
ATOM     16  C   UNL     1       0.395   9.094  20.388  0.00  0.00    +0.000 C 
ATOM     17  C   UNL     1       1.847   8.625  20.195  0.00  0.00    +0.000 C 
BRANCH  15  18
ATOM     18  C   UNL     1      -0.498  11.375  19.959  0.00  0.00    +0.000 A 
ATOM     19  C   UNL     1      -1.861  11.624  19.724  0.00  0.00    +0.000 A 
ATOM     20  C   UNL     1      -2.488  12.781  20.194  0.00  0.00    +0.000 A 
ATOM     21  C   UNL     1      -1.765  13.727  20.910  0.00  0.00    +0.000 A 
ATOM     22  C   UNL     1      -0.411  13.517  21.151  0.00  0.00    +0.000 A 
ATOM     23  C   UNL     1       0.204  12.359  20.677  0.00  0.00    +0.000 A 
ATOM     24  F   UNL     1       1.509  12.197  20.952  0.00  0.00    +0.000 F 
ENDBRANCH  15  18
ENDBRANCH   2  10
BRANCH   1  27
ATOM     25  C   UNL     1       5.295   4.355  17.326  0.00  0.00    +0.000 C 
ATOM     26  O   UNL     1       4.413   3.699  16.794  0.00  0.00    +0.000 OA
ATOM     27  N   UNL     1       5.131   5.116  18.484  0.00  0.00    +0.000 N 
ATOM     28  H   UNL     1       5.742   5.904  18.627  0.00  0.00    +0.000 HD
BRANCH  25  29
ATOM     29  C   UNL     1       6.703   4.462  16.710  0.00  0.00    +0.000 C 
BRANCH  29  30
ATOM     30  O   UNL     1       6.676   5.425  15.655  0.00  0.00    +0.000 OA
BRANCH  30  36
ATOM     31  C   UNL     1       5.401   2.484  11.844  0.00  0.00    +0.000 C 
ATOM     32  C   UNL     1       6.233   3.576  12.448  0.00  0.00    +0.000 A 
ATOM     33  C   UNL     1       7.231   4.214  11.701  0.00  0.00    +0.000 A 
ATOM     34  C   UNL     1       7.998   5.223  12.279  0.00  0.00    +0.000 A 
ATOM     35  C   UNL     1       7.771   5.595  13.605  0.00  0.00    +0.000 A 
ATOM     36  C   UNL     1       6.778   4.970  14.368  0.00  0.00    +0.000 A 
ATOM     37  C   UNL     1       6.012   3.963  13.782  0.00  0.00    +0.000 A 
ENDBRANCH  30  36
ENDBRANCH  29  30
ENDBRANCH  25  29
ENDBRANCH   1  27
TORSDOF 6
ENDMDL
MODEL 7
REMARK VINA RESULT:      -8.8      1.605      2.918
REMARK  Name = 
REMARK  7 active torsions:
REMARK  status: ('A' for Active; 'I' for Inactive)
REMARK    1  A    between atoms: C_1  and  C_2
REMARK    2  A    between atoms: C_6  and  O_7
REMARK    3  A    between atoms: O_7  and  C_8
REMARK    4  A    between atoms: C_8  and  C_9
REMARK    5  A    between atoms: N_11  and  C_12
REMARK    6  A    between atoms: C_13  and  C_14
REMARK    7  A    between atoms: N_19  and  C_20
REMARK                            x       y       z     vdW  Elec       q    Type
REMARK                         _______ _______ _______ _____ _____    ______ ____
ROOT
ATOM      1  C   UNL     1       3.442   5.628  18.790  0.00  0.00    +0.000 A 
ATOM      2  C   UNL     1       2.507   6.558  19.187  0.00  0.00    +0.000 A 
ATOM      3  O   UNL     1       1.743   6.032  20.207  0.00  0.00    +0.000 OA
ATOM      4  C   UNL     1       2.217   4.790  20.482  0.00  0.00    +0.000 A 
ATOM      5  C   UNL     1       1.700   3.916  21.443  0.00  0.00    +0.000 A 
ATOM      6  C   UNL     1       2.347   2.682  21.585  0.00  0.00    +0.000 A 
ATOM      7  C   UNL     1       3.456   2.359  20.802  0.00  0.00    +0.000 A 
ATOM      8  C   UNL     1       3.931   3.252  19.828  0.00  0.00    +0.000 A 
ATOM      9  C   UNL     1       3.287   4.491  19.645  0.00  0.00    +0.000 A 
ENDROOT
BRANCH   2  10
ATOM     10  C   UNL     1       2.096   7.824  18.593  0.00  0.00    +0.000 C 
ATOM     11  O   UNL     1       2.168   8.010  17.371  0.00  0.00    +0.000 OA
ATOM     12  N   UNL     1       1.562   8.795  19.426  0.00  0.00    +0.000 N 
ATOM     13  C   UNL     1       0.972  10.013  18.866  0.00  0.00    +0.000 C 
ATOM     14  C   UNL     1      -0.370  10.324  19.554  0.00  0.00    +0.000 C 
ATOM     15  N   UNL     1      -0.191  10.352  21.013  0.00  0.00    +0.000 N 
ATOM     16  C   UNL     1       0.464   9.184  21.624  0.00  0.00    +0.000 C 
ATOM     17  C   UNL     1       1.767   8.855  20.877  0.00  0.00    +0.000 C 
BRANCH  15  18
ATOM     18  C   UNL     1      -0.632  11.410  21.786  0.00  0.00    +0.000 A 
ATOM     19  C   UNL     1      -1.660  11.232  22.727  0.00  0.00    +0.000 A 
ATOM     20  C   UNL     1      -2.119  12.286  23.523  0.00  0.00    +0.000 A 
ATOM     21  C   UNL     1      -1.562  13.553  23.394  0.00  0.00    +0.000 A 
ATOM     22  C   UNL     1      -0.551  13.766  22.464  0.00  0.00    +0.000 A 
ATOM     23  C   UNL     1      -0.101  12.708  21.676  0.00  0.00    +0.000 A 
ATOM     24  F   UNL     1       0.890  12.964  20.805  0.00  0.00    +0.000 F 
ENDBRANCH  15  18
ENDBRANCH   2  10
BRANCH   1  27
ATOM     25  C   UNL     1       4.310   4.809  16.676  0.00  0.00    +0.000 C 
ATOM     26  O   UNL     1       3.538   3.865  16.609  0.00  0.00    +0.000 OA
ATOM     27  N   UNL     1       4.326   5.750  17.708  0.00  0.00    +0.000 N 
ATOM     28  H   UNL     1       4.686   6.669  17.508  0.00  0.00    +0.000 HD
BRANCH  25  29
ATOM     29  C   UNL     1       5.328   5.100  15.558  0.00  0.00    +0.000 C 
BRANCH  29  30
ATOM     30  O   UNL     1       6.639   4.786  16.031  0.00  0.00    +0.000 OA
BRANCH  30  36
ATOM     31  C   UNL     1       8.170   9.138  17.904  0.00  0.00    +0.000 C 
ATOM     32  C   UNL     1       7.959   7.657  18.008  0.00  0.00    +0.000 A 
ATOM     33  C   UNL     1       8.341   6.958  19.160  0.00  0.00    +0.000 A 
ATOM     34  C   UNL     1       8.143   5.581  19.239  0.00  0.00    +0.000 A 
ATOM     35  C   UNL     1       7.566   4.900  18.166  0.00  0.00    +0.000 A 
ATOM     36  C   UNL     1       7.177   5.581  17.007  0.00  0.00    +0.000 A 
ATOM     37  C   UNL     1       7.376   6.959  16.936  0.00  0.00    +0.000 A 
ENDBRANCH  30  36
ENDBRANCH  29  30
ENDBRANCH  25  29
ENDBRANCH   1  27
TORSDOF 6
ENDMDL
MODEL 8
REMARK VINA RESULT:      -8.8      1.354      1.748
REMARK  Name = 
REMARK  7 active torsions:
REMARK  status: ('A' for Active; 'I' for Inactive)
REMARK    1  A    between atoms: C_1  and  C_2
REMARK    2  A    between atoms: C_6  and  O_7
REMARK    3  A    between atoms: O_7  and  C_8
REMARK    4  A    between atoms: C_8  and  C_9
REMARK    5  A    between atoms: N_11  and  C_12
REMARK    6  A    between atoms: C_13  and  C_14
REMARK    7  A    between atoms: N_19  and  C_20
REMARK                            x       y       z     vdW  Elec       q    Type
REMARK                         _______ _______ _______ _____ _____    ______ ____
ROOT
ATOM      1  C   UNL     1       3.611   5.905  18.757  0.00  0.00    +0.000 A 
ATOM      2  C   UNL     1       2.601   6.816  18.980  0.00  0.00    +0.000 A 
ATOM      3  O   UNL     1       1.601   6.217  19.717  0.00  0.00    +0.000 OA
ATOM      4  C   UNL     1       1.992   4.947  19.991  0.00  0.00    +0.000 A 
ATOM      5  C   UNL     1       1.247   4.002  20.703  0.00  0.00    +0.000 A 
ATOM      6  C   UNL     1       1.839   2.748  20.897  0.00  0.00    +0.000 A 
ATOM      7  C   UNL     1       3.114   2.473  20.401  0.00  0.00    +0.000 A 
ATOM      8  C   UNL     1       3.822   3.438  19.667  0.00  0.00    +0.000 A 
ATOM      9  C   UNL     1       3.243   4.701  19.437  0.00  0.00    +0.000 A 
ENDROOT
BRANCH   2  10
ATOM     10  C   UNL     1       2.354   8.137  18.416  0.00  0.00    +0.000 C 
ATOM     11  O   UNL     1       2.750   8.432  17.281  0.00  0.00    +0.000 OA
ATOM     12  N   UNL     1       1.606   9.037  19.161  0.00  0.00    +0.000 N 
ATOM     13  C   UNL     1       1.178  10.310  18.577  0.00  0.00    +0.000 C 
ATOM     14  C   UNL     1      -0.302  10.579  18.905  0.00  0.00    +0.000 C 
ATOM     15  N   UNL     1      -0.522  10.471  20.356  0.00  0.00    +0.000 N 
ATOM     16  C   UNL     1      -0.045   9.242  21.010  0.00  0.00    +0.000 C 
ATOM     17  C   UNL     1       1.414   8.961  20.612  0.00  0.00    +0.000 C 
BRANCH  15  18
ATOM     18  C   UNL     1      -1.164  11.462  21.075  0.00  0.00    +0.000 A 
ATOM     19  C   UNL     1      -0.728  11.808  22.365  0.00  0.00    +0.000 A 
ATOM     20  C   UNL     1      -1.358  12.809  23.110  0.00  0.00    +0.000 A 
ATOM     21  C   UNL     1      -2.448  13.491  22.583  0.00  0.00    +0.000 A 
ATOM     22  C   UNL     1      -2.912  13.167  21.313  0.00  0.00    +0.000 A 
ATOM     23  C   UNL     1      -2.276  12.166  20.580  0.00  0.00    +0.000 A 
ATOM     24  F   UNL     1      -2.753  11.903  19.351  0.00  0.00    +0.000 F 
ENDBRANCH  15  18
ENDBRANCH   2  10
BRANCH   1  27
ATOM     25  C   UNL     1       6.023   5.912  18.484  0.00  0.00    +0.000 C 
ATOM     26  O   UNL     1       6.254   5.537  19.623  0.00  0.00    +0.000 OA
ATOM     27  N   UNL     1       4.745   6.104  17.955  0.00  0.00    +0.000 N 
ATOM     28  H   UNL     1       4.625   6.022  16.958  0.00  0.00    +0.000 HD
BRANCH  25  29
ATOM     29  C   UNL     1       7.155   6.153  17.468  0.00  0.00    +0.000 C 
BRANCH  29  30
ATOM     30  O   UNL     1       7.536   4.903  16.893  0.00  0.00    +0.000 OA
BRANCH  30  36
ATOM     31  C   UNL     1       7.528   4.988  11.914  0.00  0.00    +0.000 C 
ATOM     32  C   UNL     1       6.939   4.570  13.229  0.00  0.00    +0.000 A 
ATOM     33  C   UNL     1       5.766   3.806  13.278  0.00  0.00    +0.000 A 
ATOM     34  C   UNL     1       5.229   3.431  14.507  0.00  0.00    +0.000 A 
ATOM     35  C   UNL     1       5.861   3.819  15.689  0.00  0.00    +0.000 A 
ATOM     36  C   UNL     1       7.033   4.582  15.661  0.00  0.00    +0.000 A 
ATOM     37  C   UNL     1       7.567   4.953  14.427  0.00  0.00    +0.000 A 
ENDBRANCH  30  36
ENDBRANCH  29  30
ENDBRANCH  25  29
ENDBRANCH   1  27
TORSDOF 6
ENDMDL
MODEL 9
REMARK VINA RESULT:      -8.8      1.792      3.103
REMARK  Name = 
REMARK  7 active torsions:
REMARK  status: ('A' for Active; 'I' for Inactive)
REMARK    1  A    between atoms: C_1  and  C_2
REMARK    2  A    between atoms: C_6  and  O_7
REMARK    3  A    between atoms: O_7  and  C_8
REMARK    4  A    between atoms: C_8  and  C_9
REMARK    5  A    between atoms: N_11  and  C_12
REMARK    6  A    between atoms: C_13  and  C_14
REMARK    7  A    between atoms: N_19  and  C_20
REMARK                            x       y       z     vdW  Elec       q    Type
REMARK                         _______ _______ _______ _____ _____    ______ ____
ROOT
ATOM      1  C   UNL     1       3.510   5.766  18.643  0.00  0.00    +0.000 A 
ATOM      2  C   UNL     1       2.603   6.722  19.045  0.00  0.00    +0.000 A 
ATOM      3  O   UNL     1       1.832   6.218  20.070  0.00  0.00    +0.000 OA
ATOM      4  C   UNL     1       2.272   4.964  20.342  0.00  0.00    +0.000 A 
ATOM      5  C   UNL     1       1.737   4.104  21.307  0.00  0.00    +0.000 A 
ATOM      6  C   UNL     1       2.351   2.853  21.446  0.00  0.00    +0.000 A 
ATOM      7  C   UNL     1       3.445   2.499  20.657  0.00  0.00    +0.000 A 
ATOM      8  C   UNL     1       3.939   3.378  19.679  0.00  0.00    +0.000 A 
ATOM      9  C   UNL     1       3.328   4.634  19.499  0.00  0.00    +0.000 A 
ENDROOT
BRANCH   2  10
ATOM     10  C   UNL     1       2.224   7.999  18.452  0.00  0.00    +0.000 C 
ATOM     11  O   UNL     1       2.477   8.254  17.268  0.00  0.00    +0.000 OA
ATOM     12  N   UNL     1       1.514   8.898  19.234  0.00  0.00    +0.000 N 
ATOM     13  C   UNL     1       0.956  10.117  18.644  0.00  0.00    +0.000 C 
ATOM     14  C   UNL     1      -0.492  10.329  19.123  0.00  0.00    +0.000 C 
ATOM     15  N   UNL     1      -0.547  10.285  20.592  0.00  0.00    +0.000 N 
ATOM     16  C   UNL     1       0.066   9.117  21.245  0.00  0.00    +0.000 C 
ATOM     17  C   UNL     1       1.486   8.888  20.700  0.00  0.00    +0.000 C 
BRANCH  15  18
ATOM     18  C   UNL     1      -1.159  11.279  21.333  0.00  0.00    +0.000 A 
ATOM     19  C   UNL     1      -1.642  12.443  20.711  0.00  0.00    +0.000 A 
ATOM     20  C   UNL     1      -2.269  13.459  21.439  0.00  0.00    +0.000 A 
ATOM     21  C   UNL     1      -2.426  13.338  22.815  0.00  0.00    +0.000 A 
ATOM     22  C   UNL     1      -1.950  12.204  23.463  0.00  0.00    +0.000 A 
ATOM     23  C   UNL     1      -1.326  11.198  22.727  0.00  0.00    +0.000 A 
ATOM     24  F   UNL     1      -0.899  10.115  23.399  0.00  0.00    +0.000 F 
ENDBRANCH  15  18
ENDBRANCH   2  10
BRANCH   1  27
ATOM     25  C   UNL     1       4.398   4.878  16.566  0.00  0.00    +0.000 C 
ATOM     26  O   UNL     1       3.651   3.912  16.541  0.00  0.00    +0.000 OA
ATOM     27  N   UNL     1       4.390   5.863  17.555  0.00  0.00    +0.000 N 
ATOM     28  H   UNL     1       4.726   6.782  17.315  0.00  0.00    +0.000 HD
BRANCH  25  29
ATOM     29  C   UNL     1       5.408   5.146  15.435  0.00  0.00    +0.000 C 
BRANCH  29  30
ATOM     30  O   UNL     1       6.723   4.848  15.906  0.00  0.00    +0.000 OA
BRANCH  30  36
ATOM     31  C   UNL     1       8.191   9.144  17.953  0.00  0.00    +0.000 C 
ATOM     32  C   UNL     1       7.978   7.660  18.008  0.00  0.00    +0.000 A 
ATOM     33  C   UNL     1       8.322   6.928  19.151  0.00  0.00    +0.000 A 
ATOM     34  C   UNL     1       8.123   5.550  19.183  0.00  0.00    +0.000 A 
ATOM     35  C   UNL     1       7.580   4.900  18.073  0.00  0.00    +0.000 A 
ATOM     36  C   UNL     1       7.229   5.614  16.922  0.00  0.00    +0.000 A 
ATOM     37  C   UNL     1       7.430   6.994  16.897  0.00  0.00    +0.000 A 
ENDBRANCH  30  36
ENDBRANCH  29  30
ENDBRANCH  25  29
ENDBRANCH   1  27
TORSDOF 6
ENDMDL
