MODEL 1
REMARK VINA RESULT:      -8.2      0.000      0.000
REMARK  Name = 
REMARK  7 active torsions:
REMARK  status: ('A' for Active; 'I' for Inactive)
REMARK    1  A    between atoms: C_1  and  C_2
REMARK    2  A    between atoms: C_2  and  C_3
REMARK    3  A    between atoms: C_8  and  C_9
REMARK    4  A    between atoms: C_13  and  O_14
REMARK    5  A    between atoms: O_14  and  C_15
REMARK    6  A    between atoms: C_18  and  O_19
REMARK    7  A    between atoms: C_22  and  O_23
REMARK                            x       y       z     vdW  Elec       q    Type
REMARK                         _______ _______ _______ _____ _____    ______ ____
ROOT
ATOM      1  C   UNL     1       2.593   2.332  21.575  0.00  0.00    +0.000 C 
ATOM      2  C   UNL     1       2.477   3.369  20.443  0.00  0.00    +0.000 C 
ATOM      3  C   UNL     1       1.364   2.901  19.489  0.00  0.00    +0.000 C 
ATOM      4  O   UNL     1       2.079   4.611  21.068  0.00  0.00    +0.000 OA
ATOM      5  C   UNL     1       2.157   5.736  20.292  0.00  0.00    +0.000 A 
ATOM      6  C   UNL     1       1.458   6.853  20.749  0.00  0.00    +0.000 A 
ATOM      7  C   UNL     1       1.481   8.047  20.020  0.00  0.00    +0.000 A 
ATOM      8  C   UNL     1       2.200   8.123  18.821  0.00  0.00    +0.000 A 
ATOM      9  C   UNL     1       2.919   7.011  18.380  0.00  0.00    +0.000 A 
ATOM     10  C   UNL     1       2.937   5.821  19.136  0.00  0.00    +0.000 A 
ATOM     11  C   UNL     1       3.840   4.674  18.744  0.00  0.00    +0.000 C 
ATOM     12  C   UNL     1       3.856   3.512  19.764  0.00  0.00    +0.000 C 
ENDROOT
BRANCH   8  13
ATOM     13  C   UNL     1       2.208   9.342  18.064  0.00  0.00    +0.000 C 
ATOM     14  N   UNL     1       2.211  10.324  17.450  0.00  0.00    +0.000 NA
ENDBRANCH   8  13
BRANCH  12  15
ATOM     15  O   UNL     1       4.294   2.282  19.167  0.00  0.00    +0.000 OA
ATOM     16  H   UNL     1       3.941   1.531  19.672  0.00  0.00    +0.000 HD
ENDBRANCH  12  15
BRANCH  11  17
ATOM     17  O   UNL     1       5.176   5.086  18.392  0.00  0.00    +0.000 OA
BRANCH  17  18
ATOM     18  C   UNL     1       5.617   5.032  17.101  0.00  0.00    +0.000 A 
ATOM     19  C   UNL     1       4.987   4.423  16.019  0.00  0.00    +0.000 A 
ATOM     20  C   UNL     1       5.586   4.431  14.762  0.00  0.00    +0.000 A 
ATOM     21  C   UNL     1       6.810   5.055  14.631  0.00  0.00    +0.000 A 
ATOM     22  N   UNL     1       7.450   5.669  15.637  0.00  0.00    +0.000 NA
ATOM     23  C   UNL     1       6.839   5.646  16.846  0.00  0.00    +0.000 A 
BRANCH  21  24
ATOM     24  O   UNL     1       7.458   5.070  13.433  0.00  0.00    +0.000 OA
ATOM     25  H   UNL     1       7.563   5.995  13.167  0.00  0.00    +0.000 HD
ENDBRANCH  21  24
ENDBRANCH  17  18
ENDBRANCH  11  17
TORSDOF 5
ENDMDL
MODEL 2
REMARK VINA RESULT:      -7.9      3.264      6.773
REMARK  Name = 
REMARK  7 active torsions:
REMARK  status: ('A' for Active; 'I' for Inactive)
REMARK    1  A    between atoms: C_1  and  C_2
REMARK    2  A    between atoms: C_2  and  C_3
REMARK    3  A    between atoms: C_8  and  C_9
REMARK    4  A    between atoms: C_13  and  O_14
REMARK    5  A    between atoms: O_14  and  C_15
REMARK    6  A    between atoms: C_18  and  O_19
REMARK    7  A    between atoms: C_22  and  O_23
REMARK                            x       y       z     vdW  Elec       q    Type
REMARK                         _______ _______ _______ _____ _____    ______ ____
ROOT
ATOM      1  C   UNL     1       7.959   6.575  18.511  0.00  0.00    +0.000 C 
ATOM      2  C   UNL     1       6.916   6.177  17.450  0.00  0.00    +0.000 C 
ATOM      3  C   UNL     1       6.072   7.423  17.130  0.00  0.00    +0.000 C 
ATOM      4  O   UNL     1       7.661   5.791  16.272  0.00  0.00    +0.000 OA
ATOM      5  C   UNL     1       6.954   5.160  15.284  0.00  0.00    +0.000 A 
ATOM      6  C   UNL     1       7.560   5.104  14.029  0.00  0.00    +0.000 A 
ATOM      7  C   UNL     1       6.911   4.479  12.959  0.00  0.00    +0.000 A 
ATOM      8  C   UNL     1       5.643   3.914  13.141  0.00  0.00    +0.000 A 
ATOM      9  C   UNL     1       5.051   3.949  14.405  0.00  0.00    +0.000 A 
ATOM     10  C   UNL     1       5.722   4.536  15.497  0.00  0.00    +0.000 A 
ATOM     11  C   UNL     1       5.156   4.435  16.894  0.00  0.00    +0.000 C 
ATOM     12  C   UNL     1       6.091   4.991  17.992  0.00  0.00    +0.000 C 
ENDROOT
BRANCH   8  13
ATOM     13  C   UNL     1       4.969   3.289  12.039  0.00  0.00    +0.000 C 
ATOM     14  N   UNL     1       4.427   2.780  11.151  0.00  0.00    +0.000 NA
ENDBRANCH   8  13
BRANCH  12  15
ATOM     15  O   UNL     1       5.369   5.336  19.185  0.00  0.00    +0.000 OA
ATOM     16  H   UNL     1       4.766   4.611  19.421  0.00  0.00    +0.000 HD
ENDBRANCH  12  15
BRANCH  11  17
ATOM     17  O   UNL     1       4.675   3.116  17.227  0.00  0.00    +0.000 OA
BRANCH  17  18
ATOM     18  C   UNL     1       3.524   2.939  17.939  0.00  0.00    +0.000 A 
ATOM     19  C   UNL     1       3.366   2.229  19.126  0.00  0.00    +0.000 A 
ATOM     20  C   UNL     1       2.110   2.117  19.716  0.00  0.00    +0.000 A 
ATOM     21  C   UNL     1       1.043   2.727  19.088  0.00  0.00    +0.000 A 
ATOM     22  N   UNL     1       1.144   3.434  17.954  0.00  0.00    +0.000 NA
ATOM     23  C   UNL     1       2.381   3.527  17.407  0.00  0.00    +0.000 A 
BRANCH  21  24
ATOM     24  O   UNL     1      -0.215   2.628  19.603  0.00  0.00    +0.000 OA
ATOM     25  H   UNL     1      -0.833   2.566  18.860  0.00  0.00    +0.000 HD
ENDBRANCH  21  24
ENDBRANCH  17  18
ENDBRANCH  11  17
TORSDOF 5
ENDMDL
MODEL 3
REMARK VINA RESULT:      -7.8      3.215      6.768
REMARK  Name = 
REMARK  7 active torsions:
REMARK  status: ('A' for Active; 'I' for Inactive)
REMARK    1  A    between atoms: C_1  and  C_2
REMARK    2  A    between atoms: C_2  and  C_3
REMARK    3  A    between atoms: C_8  and  C_9
REMARK    4  A    between atoms: C_13  and  O_14
REMARK    5  A    between atoms: O_14  and  C_15
REMARK    6  A    between atoms: C_18  and  O_19
REMARK    7  A    between atoms: C_22  and  O_23
REMARK                            x       y       z     vdW  Elec       q    Type
REMARK                         _______ _______ _______ _____ _____    ______ ____
ROOT
ATOM      1  C   UNL     1       7.957   6.373  18.655  0.00  0.00    +0.000 C 
ATOM      2  C   UNL     1       6.920   6.076  17.556  0.00  0.00    +0.000 C 
ATOM      3  C   UNL     1       6.231   7.403  17.191  0.00  0.00    +0.000 C 
ATOM      4  O   UNL     1       7.663   5.594  16.414  0.00  0.00    +0.000 OA
ATOM      5  C   UNL     1       6.930   5.030  15.404  0.00  0.00    +0.000 A 
ATOM      6  C   UNL     1       7.575   4.890  14.175  0.00  0.00    +0.000 A 
ATOM      7  C   UNL     1       6.903   4.325  13.086  0.00  0.00    +0.000 A 
ATOM      8  C   UNL     1       5.575   3.905  13.222  0.00  0.00    +0.000 A 
ATOM      9  C   UNL     1       4.941   4.023  14.461  0.00  0.00    +0.000 A 
ATOM     10  C   UNL     1       5.630   4.548  15.572  0.00  0.00    +0.000 A 
ATOM     11  C   UNL     1       5.001   4.530  16.947  0.00  0.00    +0.000 C 
ATOM     12  C   UNL     1       5.948   4.995  18.076  0.00  0.00    +0.000 C 
ENDROOT
BRANCH   8  13
ATOM     13  C   UNL     1       4.880   3.342  12.100  0.00  0.00    +0.000 C 
ATOM     14  N   UNL     1       4.316   2.893  11.193  0.00  0.00    +0.000 NA
ENDBRANCH   8  13
BRANCH  12  15
ATOM     15  O   UNL     1       5.223   5.434  19.235  0.00  0.00    +0.000 OA
ATOM     16  H   UNL     1       5.646   6.228  19.603  0.00  0.00    +0.000 HD
ENDBRANCH  12  15
BRANCH  11  17
ATOM     17  O   UNL     1       4.366   3.276  17.273  0.00  0.00    +0.000 OA
BRANCH  17  18
ATOM     18  C   UNL     1       3.360   3.209  18.194  0.00  0.00    +0.000 A 
ATOM     19  C   UNL     1       2.110   3.818  18.123  0.00  0.00    +0.000 A 
ATOM     20  C   UNL     1       1.200   3.676  19.167  0.00  0.00    +0.000 A 
ATOM     21  C   UNL     1       1.578   2.920  20.259  0.00  0.00    +0.000 A 
ATOM     22  N   UNL     1       2.763   2.302  20.368  0.00  0.00    +0.000 NA
ATOM     23  C   UNL     1       3.624   2.458  19.334  0.00  0.00    +0.000 A 
BRANCH  21  24
ATOM     24  O   UNL     1       0.741   2.769  21.323  0.00  0.00    +0.000 OA
ATOM     25  H   UNL     1      -0.087   2.390  20.995  0.00  0.00    +0.000 HD
ENDBRANCH  21  24
ENDBRANCH  17  18
ENDBRANCH  11  17
TORSDOF 5
ENDMDL
MODEL 4
REMARK VINA RESULT:      -7.5      0.740      1.064
REMARK  Name = 
REMARK  7 active torsions:
REMARK  status: ('A' for Active; 'I' for Inactive)
REMARK    1  A    between atoms: C_1  and  C_2
REMARK    2  A    between atoms: C_2  and  C_3
REMARK    3  A    between atoms: C_8  and  C_9
REMARK    4  A    between atoms: C_13  and  O_14
REMARK    5  A    between atoms: O_14  and  C_15
REMARK    6  A    between atoms: C_18  and  O_19
REMARK    7  A    between atoms: C_22  and  O_23
REMARK                            x       y       z     vdW  Elec       q    Type
REMARK                         _______ _______ _______ _____ _____    ______ ____
ROOT
ATOM      1  C   UNL     1       2.674   2.291  21.579  0.00  0.00    +0.000 C 
ATOM      2  C   UNL     1       2.530   3.335  20.457  0.00  0.00    +0.000 C 
ATOM      3  C   UNL     1       1.402   2.866  19.521  0.00  0.00    +0.000 C 
ATOM      4  O   UNL     1       2.135   4.570  21.098  0.00  0.00    +0.000 OA
ATOM      5  C   UNL     1       2.191   5.701  20.328  0.00  0.00    +0.000 A 
ATOM      6  C   UNL     1       1.493   6.810  20.806  0.00  0.00    +0.000 A 
ATOM      7  C   UNL     1       1.494   8.008  20.085  0.00  0.00    +0.000 A 
ATOM      8  C   UNL     1       2.189   8.098  18.874  0.00  0.00    +0.000 A 
ATOM      9  C   UNL     1       2.907   6.994  18.411  0.00  0.00    +0.000 A 
ATOM     10  C   UNL     1       2.948   5.799  19.158  0.00  0.00    +0.000 A 
ATOM     11  C   UNL     1       3.851   4.661  18.741  0.00  0.00    +0.000 C 
ATOM     12  C   UNL     1       3.894   3.492  19.753  0.00  0.00    +0.000 C 
ENDROOT
BRANCH   8  13
ATOM     13  C   UNL     1       2.174   9.322  18.125  0.00  0.00    +0.000 C 
ATOM     14  N   UNL     1       2.165  10.308  17.517  0.00  0.00    +0.000 NA
ENDBRANCH   8  13
BRANCH  12  15
ATOM     15  O   UNL     1       4.329   2.270  19.138  0.00  0.00    +0.000 OA
ATOM     16  H   UNL     1       5.272   2.129  19.327  0.00  0.00    +0.000 HD
ENDBRANCH  12  15
BRANCH  11  17
ATOM     17  O   UNL     1       5.177   5.085  18.366  0.00  0.00    +0.000 OA
BRANCH  17  18
ATOM     18  C   UNL     1       5.670   4.848  17.115  0.00  0.00    +0.000 A 
ATOM     19  C   UNL     1       6.977   5.037  16.674  0.00  0.00    +0.000 A 
ATOM     20  C   UNL     1       7.315   4.774  15.349  0.00  0.00    +0.000 A 
ATOM     21  C   UNL     1       6.321   4.327  14.502  0.00  0.00    +0.000 A 
ATOM     22  N   UNL     1       5.053   4.114  14.882  0.00  0.00    +0.000 NA
ATOM     23  C   UNL     1       4.757   4.377  16.178  0.00  0.00    +0.000 A 
BRANCH  21  24
ATOM     24  O   UNL     1       6.586   4.081  13.189  0.00  0.00    +0.000 OA
ATOM     25  H   UNL     1       7.541   4.169  13.059  0.00  0.00    +0.000 HD
ENDBRANCH  21  24
ENDBRANCH  17  18
ENDBRANCH  11  17
TORSDOF 5
ENDMDL
MODEL 5
REMARK VINA RESULT:      -7.4      2.535      5.102
REMARK  Name = 
REMARK  7 active torsions:
REMARK  status: ('A' for Active; 'I' for Inactive)
REMARK    1  A    between atoms: C_1  and  C_2
REMARK    2  A    between atoms: C_2  and  C_3
REMARK    3  A    between atoms: C_8  and  C_9
REMARK    4  A    between atoms: C_13  and  O_14
REMARK    5  A    between atoms: O_14  and  C_15
REMARK    6  A    between atoms: C_18  and  O_19
REMARK    7  A    between atoms: C_22  and  O_23
REMARK                            x       y       z     vdW  Elec       q    Type
REMARK                         _______ _______ _______ _____ _____    ______ ____
ROOT
ATOM      1  C   UNL     1       7.295   5.377  15.289  0.00  0.00    +0.000 C 
ATOM      2  C   UNL     1       6.650   5.810  16.619  0.00  0.00    +0.000 C 
ATOM      3  C   UNL     1       7.519   6.930  17.218  0.00  0.00    +0.000 C 
ATOM      4  O   UNL     1       5.348   6.343  16.286  0.00  0.00    +0.000 OA
ATOM      5  C   UNL     1       4.492   6.558  17.333  0.00  0.00    +0.000 A 
ATOM      6  C   UNL     1       3.397   7.383  17.078  0.00  0.00    +0.000 A 
ATOM      7  C   UNL     1       2.471   7.659  18.088  0.00  0.00    +0.000 A 
ATOM      8  C   UNL     1       2.644   7.115  19.366  0.00  0.00    +0.000 A 
ATOM      9  C   UNL     1       3.727   6.269  19.612  0.00  0.00    +0.000 A 
ATOM     10  C   UNL     1       4.637   5.951  18.583  0.00  0.00    +0.000 A 
ATOM     11  C   UNL     1       5.715   4.914  18.801  0.00  0.00    +0.000 C 
ATOM     12  C   UNL     1       6.522   4.570  17.529  0.00  0.00    +0.000 C 
ENDROOT
BRANCH   8  13
ATOM     13  C   UNL     1       1.704   7.414  20.409  0.00  0.00    +0.000 C 
ATOM     14  N   UNL     1       0.945   7.660  21.249  0.00  0.00    +0.000 NA
ENDBRANCH   8  13
BRANCH  12  15
ATOM     15  O   UNL     1       7.799   3.997  17.845  0.00  0.00    +0.000 OA
ATOM     16  H   UNL     1       7.675   3.219  18.415  0.00  0.00    +0.000 HD
ENDBRANCH  12  15
BRANCH  11  17
ATOM     17  O   UNL     1       5.242   3.723  19.466  0.00  0.00    +0.000 OA
BRANCH  17  18
ATOM     18  C   UNL     1       4.046   3.155  19.136  0.00  0.00    +0.000 A 
ATOM     19  C   UNL     1       3.621   2.757  17.871  0.00  0.00    +0.000 A 
ATOM     20  C   UNL     1       2.350   2.216  17.695  0.00  0.00    +0.000 A 
ATOM     21  C   UNL     1       1.540   2.091  18.805  0.00  0.00    +0.000 A 
ATOM     22  N   UNL     1       1.907   2.444  20.046  0.00  0.00    +0.000 NA
ATOM     23  C   UNL     1       3.151   2.964  20.183  0.00  0.00    +0.000 A 
BRANCH  21  24
ATOM     24  O   UNL     1       0.276   1.595  18.691  0.00  0.00    +0.000 OA
ATOM     25  H   UNL     1       0.346   0.640  18.548  0.00  0.00    +0.000 HD
ENDBRANCH  21  24
ENDBRANCH  17  18
ENDBRANCH  11  17
TORSDOF 5
ENDMDL
MODEL 6
REMARK VINA RESULT:      -7.3      1.663      2.138
REMARK  Name = 
REMARK  7 active torsions:
REMARK  status: ('A' for Active; 'I' for Inactive)
REMARK    1  A    between atoms: C_1  and  C_2
REMARK    2  A    between atoms: C_2  and  C_3
REMARK    3  A    between atoms: C_8  and  C_9
REMARK    4  A    between atoms: C_13  and  O_14
REMARK    5  A    between atoms: O_14  and  C_15
REMARK    6  A    between atoms: C_18  and  O_19
REMARK    7  A    between atoms: C_22  and  O_23
REMARK                            x       y       z     vdW  Elec       q    Type
REMARK                         _______ _______ _______ _____ _____    ______ ____
ROOT
ATOM      1  C   UNL     1       2.534   2.253  21.298  0.00  0.00    +0.000 C 
ATOM      2  C   UNL     1       2.170   3.335  20.265  0.00  0.00    +0.000 C 
ATOM      3  C   UNL     1       0.722   3.081  19.810  0.00  0.00    +0.000 C 
ATOM      4  O   UNL     1       2.236   4.601  20.961  0.00  0.00    +0.000 OA
ATOM      5  C   UNL     1       2.197   5.727  20.183  0.00  0.00    +0.000 A 
ATOM      6  C   UNL     1       1.905   6.923  20.838  0.00  0.00    +0.000 A 
ATOM      7  C   UNL     1       1.843   8.123  20.123  0.00  0.00    +0.000 A 
ATOM      8  C   UNL     1       2.065   8.128  18.741  0.00  0.00    +0.000 A 
ATOM      9  C   UNL     1       2.381   6.933  18.092  0.00  0.00    +0.000 A 
ATOM     10  C   UNL     1       2.491   5.729  18.817  0.00  0.00    +0.000 A 
ATOM     11  C   UNL     1       2.988   4.469  18.146  0.00  0.00    +0.000 C 
ATOM     12  C   UNL     1       3.200   3.284  19.116  0.00  0.00    +0.000 C 
ENDROOT
BRANCH   8  13
ATOM     13  C   UNL     1       1.983   9.356  18.004  0.00  0.00    +0.000 C 
ATOM     14  N   UNL     1       1.916  10.345  17.404  0.00  0.00    +0.000 NA
ENDBRANCH   8  13
BRANCH  12  15
ATOM     15  O   UNL     1       3.182   2.022  18.431  0.00  0.00    +0.000 OA
ATOM     16  H   UNL     1       2.691   2.112  17.597  0.00  0.00    +0.000 HD
ENDBRANCH  12  15
BRANCH  11  17
ATOM     17  O   UNL     1       4.143   4.679  17.308  0.00  0.00    +0.000 OA
BRANCH  17  18
ATOM     18  C   UNL     1       5.282   5.247  17.801  0.00  0.00    +0.000 A 
ATOM     19  C   UNL     1       5.980   4.880  18.949  0.00  0.00    +0.000 A 
ATOM     20  C   UNL     1       7.117   5.585  19.335  0.00  0.00    +0.000 A 
ATOM     21  C   UNL     1       7.520   6.646  18.549  0.00  0.00    +0.000 A 
ATOM     22  N   UNL     1       6.893   7.029  17.427  0.00  0.00    +0.000 NA
ATOM     23  C   UNL     1       5.792   6.321  17.078  0.00  0.00    +0.000 A 
BRANCH  21  24
ATOM     24  O   UNL     1       8.609   7.390  18.891  0.00  0.00    +0.000 OA
ATOM     25  H   UNL     1       9.176   6.842  19.453  0.00  0.00    +0.000 HD
ENDBRANCH  21  24
ENDBRANCH  17  18
ENDBRANCH  11  17
TORSDOF 5
ENDMDL
MODEL 7
REMARK VINA RESULT:      -7.3      1.808      2.185
REMARK  Name = 
REMARK  7 active torsions:
REMARK  status: ('A' for Active; 'I' for Inactive)
REMARK    1  A    between atoms: C_1  and  C_2
REMARK    2  A    between atoms: C_2  and  C_3
REMARK    3  A    between atoms: C_8  and  C_9
REMARK    4  A    between atoms: C_13  and  O_14
REMARK    5  A    between atoms: O_14  and  C_15
REMARK    6  A    between atoms: C_18  and  O_19
REMARK    7  A    between atoms: C_22  and  O_23
REMARK                            x       y       z     vdW  Elec       q    Type
REMARK                         _______ _______ _______ _____ _____    ______ ____
ROOT
ATOM      1  C   UNL     1       2.363   2.127  21.238  0.00  0.00    +0.000 C 
ATOM      2  C   UNL     1       2.024   3.227  20.216  0.00  0.00    +0.000 C 
ATOM      3  C   UNL     1       0.558   3.036  19.789  0.00  0.00    +0.000 C 
ATOM      4  O   UNL     1       2.156   4.486  20.913  0.00  0.00    +0.000 OA
ATOM      5  C   UNL     1       2.148   5.616  20.140  0.00  0.00    +0.000 A 
ATOM      6  C   UNL     1       1.921   6.820  20.804  0.00  0.00    +0.000 A 
ATOM      7  C   UNL     1       1.895   8.025  20.094  0.00  0.00    +0.000 A 
ATOM      8  C   UNL     1       2.088   8.026  18.708  0.00  0.00    +0.000 A 
ATOM      9  C   UNL     1       2.341   6.821  18.049  0.00  0.00    +0.000 A 
ATOM     10  C   UNL     1       2.415   5.611  18.768  0.00  0.00    +0.000 A 
ATOM     11  C   UNL     1       2.845   4.334  18.084  0.00  0.00    +0.000 C 
ATOM     12  C   UNL     1       3.027   3.137  19.046  0.00  0.00    +0.000 C 
ENDROOT
BRANCH   8  13
ATOM     13  C   UNL     1       2.043   9.259  17.976  0.00  0.00    +0.000 C 
ATOM     14  N   UNL     1       2.010  10.257  17.388  0.00  0.00    +0.000 NA
ENDBRANCH   8  13
BRANCH  12  15
ATOM     15  O   UNL     1       2.942   1.880  18.357  0.00  0.00    +0.000 OA
ATOM     16  H   UNL     1       3.347   1.184  18.902  0.00  0.00    +0.000 HD
ENDBRANCH  12  15
BRANCH  11  17
ATOM     17  O   UNL     1       3.991   4.498  17.223  0.00  0.00    +0.000 OA
BRANCH  17  18
ATOM     18  C   UNL     1       5.113   5.146  17.653  0.00  0.00    +0.000 A 
ATOM     19  C   UNL     1       5.734   6.242  17.059  0.00  0.00    +0.000 A 
ATOM     20  C   UNL     1       6.898   6.773  17.609  0.00  0.00    +0.000 A 
ATOM     21  C   UNL     1       7.406   6.180  18.747  0.00  0.00    +0.000 A 
ATOM     22  N   UNL     1       6.838   5.135  19.365  0.00  0.00    +0.000 NA
ATOM     23  C   UNL     1       5.705   4.644  18.807  0.00  0.00    +0.000 A 
BRANCH  21  24
ATOM     24  O   UNL     1       8.558   6.638  19.314  0.00  0.00    +0.000 OA
ATOM     25  H   UNL     1       9.217   5.932  19.252  0.00  0.00    +0.000 HD
ENDBRANCH  21  24
ENDBRANCH  17  18
ENDBRANCH  11  17
TORSDOF 5
ENDMDL
MODEL 8
REMARK VINA RESULT:      -7.2      2.317      5.092
REMARK  Name = 
REMARK  7 active torsions:
REMARK  status: ('A' for Active; 'I' for Inactive)
REMARK    1  A    between atoms: C_1  and  C_2
REMARK    2  A    between atoms: C_2  and  C_3
REMARK    3  A    between atoms: C_8  and  C_9
REMARK    4  A    between atoms: C_13  and  O_14
REMARK    5  A    between atoms: O_14  and  C_15
REMARK    6  A    between atoms: C_18  and  O_19
REMARK    7  A    between atoms: C_22  and  O_23
REMARK                            x       y       z     vdW  Elec       q    Type
REMARK                         _______ _______ _______ _____ _____    ______ ____
ROOT
ATOM      1  C   UNL     1       7.197   5.343  15.283  0.00  0.00    +0.000 C 
ATOM      2  C   UNL     1       6.565   5.763  16.622  0.00  0.00    +0.000 C 
ATOM      3  C   UNL     1       7.444   6.872  17.229  0.00  0.00    +0.000 C 
ATOM      4  O   UNL     1       5.264   6.307  16.306  0.00  0.00    +0.000 OA
ATOM      5  C   UNL     1       4.417   6.515  17.361  0.00  0.00    +0.000 A 
ATOM      6  C   UNL     1       3.324   7.348  17.124  0.00  0.00    +0.000 A 
ATOM      7  C   UNL     1       2.407   7.618  18.145  0.00  0.00    +0.000 A 
ATOM      8  C   UNL     1       2.586   7.058  19.415  0.00  0.00    +0.000 A 
ATOM      9  C   UNL     1       3.667   6.203  19.642  0.00  0.00    +0.000 A 
ATOM     10  C   UNL     1       4.567   5.892  18.603  0.00  0.00    +0.000 A 
ATOM     11  C   UNL     1       5.641   4.847  18.802  0.00  0.00    +0.000 C 
ATOM     12  C   UNL     1       6.437   4.514  17.519  0.00  0.00    +0.000 C 
ENDROOT
BRANCH   8  13
ATOM     13  C   UNL     1       1.656   7.349  20.468  0.00  0.00    +0.000 C 
ATOM     14  N   UNL     1       0.908   7.584  21.321  0.00  0.00    +0.000 NA
ENDBRANCH   8  13
BRANCH  12  15
ATOM     15  O   UNL     1       7.714   3.930  17.819  0.00  0.00    +0.000 OA
ATOM     16  H   UNL     1       8.356   4.634  18.013  0.00  0.00    +0.000 HD
ENDBRANCH  12  15
BRANCH  11  17
ATOM     17  O   UNL     1       5.168   3.651  19.456  0.00  0.00    +0.000 OA
BRANCH  17  18
ATOM     18  C   UNL     1       3.883   3.218  19.297  0.00  0.00    +0.000 A 
ATOM     19  C   UNL     1       2.927   3.029  20.292  0.00  0.00    +0.000 A 
ATOM     20  C   UNL     1       1.661   2.549  19.967  0.00  0.00    +0.000 A 
ATOM     21  C   UNL     1       1.394   2.271  18.642  0.00  0.00    +0.000 A 
ATOM     22  N   UNL     1       2.273   2.450  17.646  0.00  0.00    +0.000 NA
ATOM     23  C   UNL     1       3.495   2.921  17.995  0.00  0.00    +0.000 A 
BRANCH  21  24
ATOM     24  O   UNL     1       0.182   1.772  18.268  0.00  0.00    +0.000 OA
ATOM     25  H   UNL     1       0.339   0.940  17.798  0.00  0.00    +0.000 HD
ENDBRANCH  21  24
ENDBRANCH  17  18
ENDBRANCH  11  17
TORSDOF 5
ENDMDL
MODEL 9
REMARK VINA RESULT:      -7.1      2.183      5.839
REMARK  Name = 
REMARK  7 active torsions:
REMARK  status: ('A' for Active; 'I' for Inactive)
REMARK    1  A    between atoms: C_1  and  C_2
REMARK    2  A    between atoms: C_2  and  C_3
REMARK    3  A    between atoms: C_8  and  C_9
REMARK    4  A    between atoms: C_13  and  O_14
REMARK    5  A    between atoms: O_14  and  C_15
REMARK    6  A    between atoms: C_18  and  O_19
REMARK    7  A    between atoms: C_22  and  O_23
REMARK                            x       y       z     vdW  Elec       q    Type
REMARK                         _______ _______ _______ _____ _____    ______ ____
ROOT
ATOM      1  C   UNL     1       2.410   1.897  17.820  0.00  0.00    +0.000 C 
ATOM      2  C   UNL     1       3.246   3.109  18.270  0.00  0.00    +0.000 C 
ATOM      3  C   UNL     1       3.820   2.792  19.662  0.00  0.00    +0.000 C 
ATOM      4  O   UNL     1       4.331   3.230  17.322  0.00  0.00    +0.000 OA
ATOM      5  C   UNL     1       5.061   4.387  17.375  0.00  0.00    +0.000 A 
ATOM      6  C   UNL     1       6.297   4.370  16.731  0.00  0.00    +0.000 A 
ATOM      7  C   UNL     1       7.111   5.508  16.734  0.00  0.00    +0.000 A 
ATOM      8  C   UNL     1       6.691   6.669  17.393  0.00  0.00    +0.000 A 
ATOM      9  C   UNL     1       5.440   6.691  18.015  0.00  0.00    +0.000 A 
ATOM     10  C   UNL     1       4.598   5.562  17.974  0.00  0.00    +0.000 A 
ATOM     11  C   UNL     1       3.185   5.636  18.505  0.00  0.00    +0.000 C 
ATOM     12  C   UNL     1       2.347   4.364  18.240  0.00  0.00    +0.000 C 
ENDROOT
BRANCH   8  13
ATOM     13  C   UNL     1       7.533   7.830  17.412  0.00  0.00    +0.000 C 
ATOM     14  N   UNL     1       8.214   8.768  17.432  0.00  0.00    +0.000 NA
ENDBRANCH   8  13
BRANCH  12  15
ATOM     15  O   UNL     1       1.239   4.256  19.146  0.00  0.00    +0.000 OA
ATOM     16  H   UNL     1       0.479   4.748  18.790  0.00  0.00    +0.000 HD
ENDBRANCH  12  15
BRANCH  11  17
ATOM     17  O   UNL     1       2.479   6.827  18.102  0.00  0.00    +0.000 OA
BRANCH  17  18
ATOM     18  C   UNL     1       1.987   7.706  19.024  0.00  0.00    +0.000 A 
ATOM     19  C   UNL     1       1.828   7.494  20.391  0.00  0.00    +0.000 A 
ATOM     20  C   UNL     1       1.280   8.488  21.196  0.00  0.00    +0.000 A 
ATOM     21  C   UNL     1       0.905   9.674  20.598  0.00  0.00    +0.000 A 
ATOM     22  N   UNL     1       1.050   9.933  19.291  0.00  0.00    +0.000 NA
ATOM     23  C   UNL     1       1.590   8.946  18.535  0.00  0.00    +0.000 A 
BRANCH  21  24
ATOM     24  O   UNL     1       0.336  10.673  21.330  0.00  0.00    +0.000 OA
ATOM     25  H   UNL     1       0.280  10.370  22.248  0.00  0.00    +0.000 HD
ENDBRANCH  21  24
ENDBRANCH  17  18
ENDBRANCH  11  17
TORSDOF 5
ENDMDL
