MODEL 1
REMARK VINA RESULT:      -7.8      0.000      0.000
REMARK  Name = 
REMARK  9 active torsions:
REMARK  status: ('A' for Active; 'I' for Inactive)
REMARK    1  A    between atoms: C_1  and  C_2
REMARK    2  A    between atoms: C_2  and  C_3
REMARK    3  A    between atoms: C_7  and  N_8
REMARK    4  A    between atoms: N_8  and  C_9
REMARK    5  A    between atoms: N_12  and  C_13
REMARK    6  A    between atoms: C_15  and  C_16
REMARK    7  A    between atoms: C_16  and  C_17
REMARK    8  A    between atoms: C_19  and  S_20
REMARK    9  A    between atoms: S_20  and  C_21
REMARK                            x       y       z     vdW  Elec       q    Type
REMARK                         _______ _______ _______ _____ _____    ______ ____
ROOT
ATOM      1  N   UNL     1       3.278   4.536  19.628  0.00  0.00    +0.000 N 
ATOM      2  C   UNL     1       3.008   3.095  19.708  0.00  0.00    +0.000 C 
ATOM      3  C   UNL     1       2.327   5.422  20.128  0.00  0.00    +0.000 C 
ATOM      4  N   UNL     1       1.124   5.083  20.491  0.00  0.00    +0.000 NA
ATOM      5  N   UNL     1       2.743   6.725  20.303  0.00  0.00    +0.000 N 
ATOM      6  H   UNL     1       0.942   4.097  20.317  0.00  0.00    +0.000 HD
ATOM      7  H   UNL     1       3.534   6.820  20.930  0.00  0.00    +0.000 HD
ENDROOT
BRANCH   5   8
ATOM      8  C   UNL     1       1.838   7.819  20.368  0.00  0.00    +0.000 A 
ATOM      9  C   UNL     1       1.220   8.116  21.597  0.00  0.00    +0.000 A 
ATOM     10  C   UNL     1       0.320   9.165  21.735  0.00  0.00    +0.000 A 
ATOM     11  C   UNL     1       0.082   9.988  20.629  0.00  0.00    +0.000 A 
ATOM     12  C   UNL     1       0.648   9.713  19.364  0.00  0.00    +0.000 A 
ATOM     13  C   UNL     1       1.493   8.589  19.235  0.00  0.00    +0.000 A 
ATOM     14 CL   UNL     1       2.086   8.039  17.698  0.00  0.00    +0.000 Cl
BRANCH  10  15
ATOM     15  C   UNL     1      -0.407   9.360  23.043  0.00  0.00    +0.000 C 
ATOM     16  C   UNL     1      -1.137  10.689  23.140  0.00  0.00    +0.000 C 
ENDBRANCH  10  15
BRANCH  12  17
ATOM     17  S   UNL     1       0.052  10.810  18.062  0.00  0.00    +0.000 S 
ATOM     18  C   UNL     1      -1.552  10.111  17.582  0.00  0.00    +0.000 C 
ENDBRANCH  12  17
ENDBRANCH   5   8
BRANCH   1  23
ATOM     19  C   UNL     1       6.384   5.850  17.912  0.00  0.00    +0.000 A 
ATOM     20  C   UNL     1       6.030   5.659  16.573  0.00  0.00    +0.000 A 
ATOM     21  C   UNL     1       4.809   5.080  16.246  0.00  0.00    +0.000 A 
ATOM     22  C   UNL     1       3.926   4.689  17.256  0.00  0.00    +0.000 A 
ATOM     23  C   UNL     1       4.226   4.881  18.620  0.00  0.00    +0.000 A 
ATOM     24  C   UNL     1       5.481   5.450  18.918  0.00  0.00    +0.000 A 
BRANCH  19  26
ATOM     25  C   UNL     1       7.807   7.947  17.681  0.00  0.00    +0.000 C 
ATOM     26  C   UNL     1       7.679   6.544  18.255  0.00  0.00    +0.000 C 
ENDBRANCH  19  26
ENDBRANCH   1  23
TORSDOF 5
ENDMDL
MODEL 2
REMARK VINA RESULT:      -7.4      1.108      1.123
REMARK  Name = 
REMARK  9 active torsions:
REMARK  status: ('A' for Active; 'I' for Inactive)
REMARK    1  A    between atoms: C_1  and  C_2
REMARK    2  A    between atoms: C_2  and  C_3
REMARK    3  A    between atoms: C_7  and  N_8
REMARK    4  A    between atoms: N_8  and  C_9
REMARK    5  A    between atoms: N_12  and  C_13
REMARK    6  A    between atoms: C_15  and  C_16
REMARK    7  A    between atoms: C_16  and  C_17
REMARK    8  A    between atoms: C_19  and  S_20
REMARK    9  A    between atoms: S_20  and  C_21
REMARK                            x       y       z     vdW  Elec       q    Type
REMARK                         _______ _______ _______ _____ _____    ______ ____
ROOT
ATOM      1  N   UNL     1       3.442   3.842  19.218  0.00  0.00    +0.000 N 
ATOM      2  C   UNL     1       3.036   2.437  19.097  0.00  0.00    +0.000 C 
ATOM      3  C   UNL     1       2.502   4.775  19.649  0.00  0.00    +0.000 C 
ATOM      4  N   UNL     1       1.230   4.533  19.771  0.00  0.00    +0.000 NA
ATOM      5  N   UNL     1       2.996   6.005  20.028  0.00  0.00    +0.000 N 
ATOM      6  H   UNL     1       0.993   3.593  19.466  0.00  0.00    +0.000 HD
ATOM      7  H   UNL     1       3.672   5.958  20.781  0.00  0.00    +0.000 HD
ENDROOT
BRANCH   5   8
ATOM      8  C   UNL     1       2.195   7.178  20.062  0.00  0.00    +0.000 A 
ATOM      9  C   UNL     1       1.337   7.382  21.158  0.00  0.00    +0.000 A 
ATOM     10  C   UNL     1       0.519   8.501  21.257  0.00  0.00    +0.000 A 
ATOM     11  C   UNL     1       0.612   9.483  20.265  0.00  0.00    +0.000 A 
ATOM     12  C   UNL     1       1.430   9.311  19.124  0.00  0.00    +0.000 A 
ATOM     13  C   UNL     1       2.185   8.124  19.011  0.00  0.00    +0.000 A 
ATOM     14 CL   UNL     1       3.069   7.713  17.574  0.00  0.00    +0.000 Cl
BRANCH  10  15
ATOM     15  C   UNL     1      -0.471   8.607  22.390  0.00  0.00    +0.000 C 
ATOM     16  C   UNL     1      -0.507   9.980  23.040  0.00  0.00    +0.000 C 
ENDBRANCH  10  15
BRANCH  12  17
ATOM     17  S   UNL     1       1.243  10.629  17.908  0.00  0.00    +0.000 S 
ATOM     18  C   UNL     1       0.897  12.110  18.896  0.00  0.00    +0.000 C 
ENDBRANCH  12  17
ENDBRANCH   5   8
BRANCH   1  23
ATOM     19  C   UNL     1       6.704   5.380  18.070  0.00  0.00    +0.000 A 
ATOM     20  C   UNL     1       6.757   4.904  16.756  0.00  0.00    +0.000 A 
ATOM     21  C   UNL     1       5.756   4.069  16.272  0.00  0.00    +0.000 A 
ATOM     22  C   UNL     1       4.688   3.703  17.096  0.00  0.00    +0.000 A 
ATOM     23  C   UNL     1       4.578   4.174  18.421  0.00  0.00    +0.000 A 
ATOM     24  C   UNL     1       5.619   5.002  18.888  0.00  0.00    +0.000 A 
BRANCH  19  26
ATOM     25  C   UNL     1       7.797   7.663  17.808  0.00  0.00    +0.000 C 
ATOM     26  C   UNL     1       7.756   6.343  18.563  0.00  0.00    +0.000 C 
ENDBRANCH  19  26
ENDBRANCH   1  23
TORSDOF 5
ENDMDL
MODEL 3
REMARK VINA RESULT:      -7.4      0.876      1.812
REMARK  Name = 
REMARK  9 active torsions:
REMARK  status: ('A' for Active; 'I' for Inactive)
REMARK    1  A    between atoms: C_1  and  C_2
REMARK    2  A    between atoms: C_2  and  C_3
REMARK    3  A    between atoms: C_7  and  N_8
REMARK    4  A    between atoms: N_8  and  C_9
REMARK    5  A    between atoms: N_12  and  C_13
REMARK    6  A    between atoms: C_15  and  C_16
REMARK    7  A    between atoms: C_16  and  C_17
REMARK    8  A    between atoms: C_19  and  S_20
REMARK    9  A    between atoms: S_20  and  C_21
REMARK                            x       y       z     vdW  Elec       q    Type
REMARK                         _______ _______ _______ _____ _____    ______ ____
ROOT
ATOM      1  N   UNL     1       3.571   4.381  19.356  0.00  0.00    +0.000 N 
ATOM      2  C   UNL     1       3.298   2.948  19.189  0.00  0.00    +0.000 C 
ATOM      3  C   UNL     1       2.539   5.212  19.785  0.00  0.00    +0.000 C 
ATOM      4  N   UNL     1       1.292   4.852  19.868  0.00  0.00    +0.000 NA
ATOM      5  N   UNL     1       2.909   6.471  20.208  0.00  0.00    +0.000 N 
ATOM      6  H   UNL     1       1.150   3.903  19.533  0.00  0.00    +0.000 HD
ATOM      7  H   UNL     1       3.569   6.465  20.978  0.00  0.00    +0.000 HD
ENDROOT
BRANCH   5   8
ATOM      8  C   UNL     1       2.004   7.565  20.251  0.00  0.00    +0.000 A 
ATOM      9  C   UNL     1       1.241   7.769  21.415  0.00  0.00    +0.000 A 
ATOM     10  C   UNL     1       0.331   8.813  21.527  0.00  0.00    +0.000 A 
ATOM     11  C   UNL     1       0.229   9.724  20.470  0.00  0.00    +0.000 A 
ATOM     12  C   UNL     1       0.945   9.544  19.265  0.00  0.00    +0.000 A 
ATOM     13  C   UNL     1       1.799   8.427  19.149  0.00  0.00    +0.000 A 
ATOM     14 CL   UNL     1       2.574   7.994  17.657  0.00  0.00    +0.000 Cl
BRANCH  10  15
ATOM     15  C   UNL     1      -0.550   8.910  22.748  0.00  0.00    +0.000 C 
ATOM     16  C   UNL     1      -0.851  10.339  23.168  0.00  0.00    +0.000 C 
ENDBRANCH  10  15
BRANCH  12  17
ATOM     17  S   UNL     1       0.512  10.747  17.993  0.00  0.00    +0.000 S 
ATOM     18  C   UNL     1      -1.101  11.394  18.513  0.00  0.00    +0.000 C 
ENDBRANCH  12  17
ENDBRANCH   5   8
BRANCH   1  23
ATOM     19  C   UNL     1       5.807   5.306  16.446  0.00  0.00    +0.000 A 
ATOM     20  C   UNL     1       6.982   5.636  17.128  0.00  0.00    +0.000 A 
ATOM     21  C   UNL     1       7.024   5.585  18.516  0.00  0.00    +0.000 A 
ATOM     22  C   UNL     1       5.892   5.200  19.239  0.00  0.00    +0.000 A 
ATOM     23  C   UNL     1       4.690   4.837  18.598  0.00  0.00    +0.000 A 
ATOM     24  C   UNL     1       4.673   4.919  17.190  0.00  0.00    +0.000 A 
BRANCH  19  26
ATOM     25  C   UNL     1       6.091   3.938  14.320  0.00  0.00    +0.000 C 
ATOM     26  C   UNL     1       5.791   5.295  14.937  0.00  0.00    +0.000 C 
ENDBRANCH  19  26
ENDBRANCH   1  23
TORSDOF 5
ENDMDL
MODEL 4
REMARK VINA RESULT:      -6.8      1.242      1.918
REMARK  Name = 
REMARK  9 active torsions:
REMARK  status: ('A' for Active; 'I' for Inactive)
REMARK    1  A    between atoms: C_1  and  C_2
REMARK    2  A    between atoms: C_2  and  C_3
REMARK    3  A    between atoms: C_7  and  N_8
REMARK    4  A    between atoms: N_8  and  C_9
REMARK    5  A    between atoms: N_12  and  C_13
REMARK    6  A    between atoms: C_15  and  C_16
REMARK    7  A    between atoms: C_16  and  C_17
REMARK    8  A    between atoms: C_19  and  S_20
REMARK    9  A    between atoms: S_20  and  C_21
REMARK                            x       y       z     vdW  Elec       q    Type
REMARK                         _______ _______ _______ _____ _____    ______ ____
ROOT
ATOM      1  N   UNL     1       3.179   4.816  19.314  0.00  0.00    +0.000 N 
ATOM      2  C   UNL     1       2.969   3.371  19.462  0.00  0.00    +0.000 C 
ATOM      3  C   UNL     1       2.305   5.687  19.961  0.00  0.00    +0.000 C 
ATOM      4  N   UNL     1       1.195   5.323  20.534  0.00  0.00    +0.000 NA
ATOM      5  N   UNL     1       2.706   7.003  20.040  0.00  0.00    +0.000 N 
ATOM      6  H   UNL     1       1.015   4.330  20.410  0.00  0.00    +0.000 HD
ATOM      7  H   UNL     1       3.592   7.131  20.516  0.00  0.00    +0.000 HD
ENDROOT
BRANCH   5   8
ATOM      8  C   UNL     1       1.795   8.074  20.247  0.00  0.00    +0.000 A 
ATOM      9  C   UNL     1       1.324   8.321  21.549  0.00  0.00    +0.000 A 
ATOM     10  C   UNL     1       0.427   9.345  21.827  0.00  0.00    +0.000 A 
ATOM     11  C   UNL     1       0.042  10.195  20.784  0.00  0.00    +0.000 A 
ATOM     12  C   UNL     1       0.458   9.969  19.451  0.00  0.00    +0.000 A 
ATOM     13  C   UNL     1       1.302   8.869  19.187  0.00  0.00    +0.000 A 
ATOM     14 CL   UNL     1       1.717   8.377  17.575  0.00  0.00    +0.000 Cl
BRANCH  10  15
ATOM     15  C   UNL     1      -0.142   9.486  23.217  0.00  0.00    +0.000 C 
ATOM     16  C   UNL     1      -1.204  10.566  23.333  0.00  0.00    +0.000 C 
ENDBRANCH  10  15
BRANCH  12  17
ATOM     17  S   UNL     1      -0.310  11.090  18.266  0.00  0.00    +0.000 S 
ATOM     18  C   UNL     1      -0.166  12.727  19.033  0.00  0.00    +0.000 C 
ENDBRANCH  12  17
ENDBRANCH   5   8
BRANCH   1  23
ATOM     19  C   UNL     1       5.168   4.554  16.106  0.00  0.00    +0.000 A 
ATOM     20  C   UNL     1       5.508   5.897  15.911  0.00  0.00    +0.000 A 
ATOM     21  C   UNL     1       5.064   6.868  16.801  0.00  0.00    +0.000 A 
ATOM     22  C   UNL     1       4.276   6.507  17.898  0.00  0.00    +0.000 A 
ATOM     23  C   UNL     1       3.925   5.165  18.150  0.00  0.00    +0.000 A 
ATOM     24  C   UNL     1       4.374   4.207  17.218  0.00  0.00    +0.000 A 
BRANCH  19  26
ATOM     25  C   UNL     1       6.236   4.041  13.854  0.00  0.00    +0.000 C 
ATOM     26  C   UNL     1       5.715   3.499  15.176  0.00  0.00    +0.000 C 
ENDBRANCH  19  26
ENDBRANCH   1  23
TORSDOF 5
ENDMDL
MODEL 5
REMARK VINA RESULT:      -6.6      2.533      7.416
REMARK  Name = 
REMARK  9 active torsions:
REMARK  status: ('A' for Active; 'I' for Inactive)
REMARK    1  A    between atoms: C_1  and  C_2
REMARK    2  A    between atoms: C_2  and  C_3
REMARK    3  A    between atoms: C_7  and  N_8
REMARK    4  A    between atoms: N_8  and  C_9
REMARK    5  A    between atoms: N_12  and  C_13
REMARK    6  A    between atoms: C_15  and  C_16
REMARK    7  A    between atoms: C_16  and  C_17
REMARK    8  A    between atoms: C_19  and  S_20
REMARK    9  A    between atoms: S_20  and  C_21
REMARK                            x       y       z     vdW  Elec       q    Type
REMARK                         _______ _______ _______ _____ _____    ______ ____
ROOT
ATOM      1  N   UNL     1       1.093  10.054  19.322  0.00  0.00    +0.000 N 
ATOM      2  C   UNL     1       0.691  11.187  18.481  0.00  0.00    +0.000 C 
ATOM      3  C   UNL     1       1.607   8.914  18.706  0.00  0.00    +0.000 C 
ATOM      4  N   UNL     1       1.580   8.697  17.423  0.00  0.00    +0.000 NA
ATOM      5  N   UNL     1       2.239   8.010  19.532  0.00  0.00    +0.000 N 
ATOM      6  H   UNL     1       1.093   9.438  16.925  0.00  0.00    +0.000 HD
ATOM      7  H   UNL     1       3.024   8.401  20.040  0.00  0.00    +0.000 HD
ENDROOT
BRANCH   5   8
ATOM      8  C   UNL     1       2.417   6.643  19.183  0.00  0.00    +0.000 A 
ATOM      9  C   UNL     1       1.638   5.670  19.835  0.00  0.00    +0.000 A 
ATOM     10  C   UNL     1       1.761   4.315  19.551  0.00  0.00    +0.000 A 
ATOM     11  C   UNL     1       2.641   3.925  18.535  0.00  0.00    +0.000 A 
ATOM     12  C   UNL     1       3.473   4.858  17.875  0.00  0.00    +0.000 A 
ATOM     13  C   UNL     1       3.384   6.218  18.244  0.00  0.00    +0.000 A 
ATOM     14 CL   UNL     1       4.486   7.421  17.649  0.00  0.00    +0.000 Cl
BRANCH  10  15
ATOM     15  C   UNL     1       0.992   3.307  20.368  0.00  0.00    +0.000 C 
ATOM     16  C   UNL     1       1.748   2.810  21.589  0.00  0.00    +0.000 C 
ENDBRANCH  10  15
BRANCH  12  17
ATOM     17  S   UNL     1       4.640   4.090  16.735  0.00  0.00    +0.000 S 
ATOM     18  C   UNL     1       6.269   4.439  17.454  0.00  0.00    +0.000 C 
ENDBRANCH  12  17
ENDBRANCH   5   8
BRANCH   1  23
ATOM     19  C   UNL     1      -0.752  11.175  22.430  0.00  0.00    +0.000 A 
ATOM     20  C   UNL     1      -0.671  10.013  23.203  0.00  0.00    +0.000 A 
ATOM     21  C   UNL     1      -0.050   8.876  22.696  0.00  0.00    +0.000 A 
ATOM     22  C   UNL     1       0.500   8.891  21.411  0.00  0.00    +0.000 A 
ATOM     23  C   UNL     1       0.464  10.044  20.602  0.00  0.00    +0.000 A 
ATOM     24  C   UNL     1      -0.191  11.173  21.136  0.00  0.00    +0.000 A 
BRANCH  19  26
ATOM     25  C   UNL     1      -2.841  12.299  23.349  0.00  0.00    +0.000 C 
ATOM     26  C   UNL     1      -1.363  12.425  23.014  0.00  0.00    +0.000 C 
ENDBRANCH  19  26
ENDBRANCH   1  23
TORSDOF 5
ENDMDL
MODEL 6
REMARK VINA RESULT:      -6.5      4.979      7.070
REMARK  Name = 
REMARK  9 active torsions:
REMARK  status: ('A' for Active; 'I' for Inactive)
REMARK    1  A    between atoms: C_1  and  C_2
REMARK    2  A    between atoms: C_2  and  C_3
REMARK    3  A    between atoms: C_7  and  N_8
REMARK    4  A    between atoms: N_8  and  C_9
REMARK    5  A    between atoms: N_12  and  C_13
REMARK    6  A    between atoms: C_15  and  C_16
REMARK    7  A    between atoms: C_16  and  C_17
REMARK    8  A    between atoms: C_19  and  S_20
REMARK    9  A    between atoms: S_20  and  C_21
REMARK                            x       y       z     vdW  Elec       q    Type
REMARK                         _______ _______ _______ _____ _____    ______ ____
ROOT
ATOM      1  N   UNL     1      -1.072  10.715  18.561  0.00  0.00    +0.000 N 
ATOM      2  C   UNL     1      -2.118   9.998  17.824  0.00  0.00    +0.000 C 
ATOM      3  C   UNL     1      -0.883  12.071  18.304  0.00  0.00    +0.000 C 
ATOM      4  N   UNL     1      -1.436  12.716  17.318  0.00  0.00    +0.000 NA
ATOM      5  N   UNL     1      -0.110  12.761  19.213  0.00  0.00    +0.000 N 
ATOM      6  H   UNL     1      -1.984  12.099  16.724  0.00  0.00    +0.000 HD
ATOM      7  H   UNL     1      -0.469  12.729  20.161  0.00  0.00    +0.000 HD
ENDROOT
BRANCH   5   8
ATOM      8  C   UNL     1       0.541  13.984  18.898  0.00  0.00    +0.000 A 
ATOM      9  C   UNL     1      -0.210  15.174  18.911  0.00  0.00    +0.000 A 
ATOM     10  C   UNL     1       0.356  16.407  18.607  0.00  0.00    +0.000 A 
ATOM     11  C   UNL     1       1.730  16.463  18.351  0.00  0.00    +0.000 A 
ATOM     12  C   UNL     1       2.522  15.294  18.290  0.00  0.00    +0.000 A 
ATOM     13  C   UNL     1       1.901  14.047  18.520  0.00  0.00    +0.000 A 
ATOM     14 CL   UNL     1       2.722  12.536  18.280  0.00  0.00    +0.000 Cl
BRANCH  10  15
ATOM     15  C   UNL     1      -0.521  17.630  18.513  0.00  0.00    +0.000 C 
ATOM     16  C   UNL     1      -0.389  18.373  17.194  0.00  0.00    +0.000 C 
ENDBRANCH  10  15
BRANCH  12  17
ATOM     17  S   UNL     1       4.220  15.610  17.770  0.00  0.00    +0.000 S 
ATOM     18  C   UNL     1       5.227  15.137  19.203  0.00  0.00    +0.000 C 
ENDBRANCH  12  17
ENDBRANCH   5   8
BRANCH   1  23
ATOM     19  C   UNL     1       1.938   8.432  18.778  0.00  0.00    +0.000 A 
ATOM     20  C   UNL     1       1.880   8.067  20.127  0.00  0.00    +0.000 A 
ATOM     21  C   UNL     1       0.889   8.589  20.951  0.00  0.00    +0.000 A 
ATOM     22  C   UNL     1      -0.056   9.479  20.435  0.00  0.00    +0.000 A 
ATOM     23  C   UNL     1      -0.053   9.860  19.078  0.00  0.00    +0.000 A 
ATOM     24  C   UNL     1       0.976   9.330  18.273  0.00  0.00    +0.000 A 
BRANCH  19  26
ATOM     25  C   UNL     1       3.383   6.397  18.279  0.00  0.00    +0.000 C 
ATOM     26  C   UNL     1       2.972   7.805  17.875  0.00  0.00    +0.000 C 
ENDBRANCH  19  26
ENDBRANCH   1  23
TORSDOF 5
ENDMDL
MODEL 7
REMARK VINA RESULT:      -6.4      5.897      8.506
REMARK  Name = 
REMARK  9 active torsions:
REMARK  status: ('A' for Active; 'I' for Inactive)
REMARK    1  A    between atoms: C_1  and  C_2
REMARK    2  A    between atoms: C_2  and  C_3
REMARK    3  A    between atoms: C_7  and  N_8
REMARK    4  A    between atoms: N_8  and  C_9
REMARK    5  A    between atoms: N_12  and  C_13
REMARK    6  A    between atoms: C_15  and  C_16
REMARK    7  A    between atoms: C_16  and  C_17
REMARK    8  A    between atoms: C_19  and  S_20
REMARK    9  A    between atoms: S_20  and  C_21
REMARK                            x       y       z     vdW  Elec       q    Type
REMARK                         _______ _______ _______ _____ _____    ______ ____
ROOT
ATOM      1  N   UNL     1       0.558  11.690  19.765  0.00  0.00    +0.000 N 
ATOM      2  C   UNL     1       1.695  12.603  19.936  0.00  0.00    +0.000 C 
ATOM      3  C   UNL     1      -0.213  11.793  18.610  0.00  0.00    +0.000 C 
ATOM      4  N   UNL     1      -0.124  12.766  17.751  0.00  0.00    +0.000 NA
ATOM      5  N   UNL     1      -1.068  10.742  18.354  0.00  0.00    +0.000 N 
ATOM      6  H   UNL     1       0.543  13.473  18.050  0.00  0.00    +0.000 HD
ATOM      7  H   UNL     1      -0.600   9.847  18.270  0.00  0.00    +0.000 HD
ENDROOT
BRANCH   5   8
ATOM      8  C   UNL     1      -2.207  10.865  17.513  0.00  0.00    +0.000 A 
ATOM      9  C   UNL     1      -2.140  10.357  16.203  0.00  0.00    +0.000 A 
ATOM     10  C   UNL     1      -3.211  10.446  15.322  0.00  0.00    +0.000 A 
ATOM     11  C   UNL     1      -4.410  10.997  15.785  0.00  0.00    +0.000 A 
ATOM     12  C   UNL     1      -4.520  11.554  17.080  0.00  0.00    +0.000 A 
ATOM     13  C   UNL     1      -3.388  11.524  17.923  0.00  0.00    +0.000 A 
ATOM     14 CL   UNL     1      -3.341  12.347  19.451  0.00  0.00    +0.000 Cl
BRANCH  10  15
ATOM     15  C   UNL     1      -3.042   9.998  13.891  0.00  0.00    +0.000 C 
ATOM     16  C   UNL     1      -4.355   9.851  13.141  0.00  0.00    +0.000 C 
ENDBRANCH  10  15
BRANCH  12  17
ATOM     17  S   UNL     1      -6.106  12.359  17.377  0.00  0.00    +0.000 S 
ATOM     18  C   UNL     1      -6.906  11.329  18.638  0.00  0.00    +0.000 C 
ENDBRANCH  12  17
ENDBRANCH   5   8
BRANCH   1  23
ATOM     19  C   UNL     1      -1.474  11.187  22.918  0.00  0.00    +0.000 A 
ATOM     20  C   UNL     1      -0.780  10.119  23.495  0.00  0.00    +0.000 A 
ATOM     21  C   UNL     1       0.312   9.558  22.843  0.00  0.00    +0.000 A 
ATOM     22  C   UNL     1       0.725  10.061  21.606  0.00  0.00    +0.000 A 
ATOM     23  C   UNL     1       0.073  11.151  20.994  0.00  0.00    +0.000 A 
ATOM     24  C   UNL     1      -1.043  11.684  21.670  0.00  0.00    +0.000 A 
BRANCH  19  26
ATOM     25  C   UNL     1      -2.956  13.237  23.186  0.00  0.00    +0.000 C 
ATOM     26  C   UNL     1      -2.612  11.836  23.666  0.00  0.00    +0.000 C 
ENDBRANCH  19  26
ENDBRANCH   1  23
TORSDOF 5
ENDMDL
MODEL 8
REMARK VINA RESULT:      -6.4      5.187      7.179
REMARK  Name = 
REMARK  9 active torsions:
REMARK  status: ('A' for Active; 'I' for Inactive)
REMARK    1  A    between atoms: C_1  and  C_2
REMARK    2  A    between atoms: C_2  and  C_3
REMARK    3  A    between atoms: C_7  and  N_8
REMARK    4  A    between atoms: N_8  and  C_9
REMARK    5  A    between atoms: N_12  and  C_13
REMARK    6  A    between atoms: C_15  and  C_16
REMARK    7  A    between atoms: C_16  and  C_17
REMARK    8  A    between atoms: C_19  and  S_20
REMARK    9  A    between atoms: S_20  and  C_21
REMARK                            x       y       z     vdW  Elec       q    Type
REMARK                         _______ _______ _______ _____ _____    ______ ____
ROOT
ATOM      1  N   UNL     1      -0.821  10.866  18.741  0.00  0.00    +0.000 N 
ATOM      2  C   UNL     1      -1.980  10.262  18.074  0.00  0.00    +0.000 C 
ATOM      3  C   UNL     1      -0.507  12.195  18.464  0.00  0.00    +0.000 C 
ATOM      4  N   UNL     1      -1.048  12.893  17.508  0.00  0.00    +0.000 NA
ATOM      5  N   UNL     1       0.388  12.800  19.320  0.00  0.00    +0.000 N 
ATOM      6  H   UNL     1      -1.693  12.337  16.953  0.00  0.00    +0.000 HD
ATOM      7  H   UNL     1       0.086  12.806  20.288  0.00  0.00    +0.000 HD
ENDROOT
BRANCH   5   8
ATOM      8  C   UNL     1       1.143  13.948  18.958  0.00  0.00    +0.000 A 
ATOM      9  C   UNL     1       2.475  13.778  18.536  0.00  0.00    +0.000 A 
ATOM     10  C   UNL     1       3.276  14.854  18.173  0.00  0.00    +0.000 A 
ATOM     11  C   UNL     1       2.709  16.133  18.164  0.00  0.00    +0.000 A 
ATOM     12  C   UNL     1       1.389  16.363  18.613  0.00  0.00    +0.000 A 
ATOM     13  C   UNL     1       0.627  15.260  19.055  0.00  0.00    +0.000 A 
ATOM     14 CL   UNL     1      -0.927  15.441  19.808  0.00  0.00    +0.000 Cl
BRANCH  10  15
ATOM     15  C   UNL     1       4.732  14.627  17.850  0.00  0.00    +0.000 C 
ATOM     16  C   UNL     1       5.661  15.655  18.474  0.00  0.00    +0.000 C 
ENDBRANCH  10  15
BRANCH  12  17
ATOM     17  S   UNL     1       0.950  18.111  18.672  0.00  0.00    +0.000 S 
ATOM     18  C   UNL     1      -0.357  18.291  17.427  0.00  0.00    +0.000 C 
ENDBRANCH  12  17
ENDBRANCH   5   8
BRANCH   1  23
ATOM     19  C   UNL     1       2.007   8.352  18.807  0.00  0.00    +0.000 A 
ATOM     20  C   UNL     1       1.928   7.919  20.134  0.00  0.00    +0.000 A 
ATOM     21  C   UNL     1       0.984   8.469  20.995  0.00  0.00    +0.000 A 
ATOM     22  C   UNL     1       0.106   9.455  20.537  0.00  0.00    +0.000 A 
ATOM     23  C   UNL     1       0.132   9.909  19.202  0.00  0.00    +0.000 A 
ATOM     24  C   UNL     1       1.114   9.347  18.360  0.00  0.00    +0.000 A 
BRANCH  19  26
ATOM     25  C   UNL     1       3.202   6.215  18.115  0.00  0.00    +0.000 C 
ATOM     26  C   UNL     1       2.986   7.699  17.862  0.00  0.00    +0.000 C 
ENDBRANCH  19  26
ENDBRANCH   1  23
TORSDOF 5
ENDMDL
MODEL 9
REMARK VINA RESULT:      -6.4      2.214      4.322
REMARK  Name = 
REMARK  9 active torsions:
REMARK  status: ('A' for Active; 'I' for Inactive)
REMARK    1  A    between atoms: C_1  and  C_2
REMARK    2  A    between atoms: C_2  and  C_3
REMARK    3  A    between atoms: C_7  and  N_8
REMARK    4  A    between atoms: N_8  and  C_9
REMARK    5  A    between atoms: N_12  and  C_13
REMARK    6  A    between atoms: C_15  and  C_16
REMARK    7  A    between atoms: C_16  and  C_17
REMARK    8  A    between atoms: C_19  and  S_20
REMARK    9  A    between atoms: S_20  and  C_21
REMARK                            x       y       z     vdW  Elec       q    Type
REMARK                         _______ _______ _______ _____ _____    ______ ____
ROOT
ATOM      1  N   UNL     1       3.988   5.551  17.333  0.00  0.00    +0.000 N 
ATOM      2  C   UNL     1       5.316   5.273  16.774  0.00  0.00    +0.000 C 
ATOM      3  C   UNL     1       3.672   6.861  17.686  0.00  0.00    +0.000 C 
ATOM      4  N   UNL     1       4.532   7.836  17.738  0.00  0.00    +0.000 NA
ATOM      5  N   UNL     1       2.339   7.122  17.922  0.00  0.00    +0.000 N 
ATOM      6  H   UNL     1       5.477   7.516  17.539  0.00  0.00    +0.000 HD
ATOM      7  H   UNL     1       1.738   6.919  17.131  0.00  0.00    +0.000 HD
ENDROOT
BRANCH   5   8
ATOM      8  C   UNL     1       1.898   8.229  18.696  0.00  0.00    +0.000 A 
ATOM      9  C   UNL     1       1.927   9.513  18.121  0.00  0.00    +0.000 A 
ATOM     10  C   UNL     1       1.518  10.643  18.819  0.00  0.00    +0.000 A 
ATOM     11  C   UNL     1       0.997  10.477  20.106  0.00  0.00    +0.000 A 
ATOM     12  C   UNL     1       0.978   9.215  20.743  0.00  0.00    +0.000 A 
ATOM     13  C   UNL     1       1.480   8.099  20.039  0.00  0.00    +0.000 A 
ATOM     14 CL   UNL     1       1.690   6.544  20.783  0.00  0.00    +0.000 Cl
BRANCH  10  15
ATOM     15  C   UNL     1       1.689  12.008  18.199  0.00  0.00    +0.000 C 
ATOM     16  C   UNL     1       0.579  12.982  18.558  0.00  0.00    +0.000 C 
ENDBRANCH  10  15
BRANCH  12  17
ATOM     17  S   UNL     1       0.426   9.291  22.458  0.00  0.00    +0.000 S 
ATOM     18  C   UNL     1      -0.598  10.786  22.538  0.00  0.00    +0.000 C 
ENDBRANCH  12  17
ENDBRANCH   5   8
BRANCH   1  23
ATOM     19  C   UNL     1       2.735   3.029  19.862  0.00  0.00    +0.000 A 
ATOM     20  C   UNL     1       2.220   2.051  19.006  0.00  0.00    +0.000 A 
ATOM     21  C   UNL     1       2.257   2.235  17.629  0.00  0.00    +0.000 A 
ATOM     22  C   UNL     1       2.813   3.399  17.091  0.00  0.00    +0.000 A 
ATOM     23  C   UNL     1       3.365   4.405  17.910  0.00  0.00    +0.000 A 
ATOM     24  C   UNL     1       3.293   4.197  19.303  0.00  0.00    +0.000 A 
BRANCH  19  26
ATOM     25  C   UNL     1       1.382   2.577  21.969  0.00  0.00    +0.000 C 
ATOM     26  C   UNL     1       2.756   2.789  21.352  0.00  0.00    +0.000 C 
ENDBRANCH  19  26
ENDBRANCH   1  23
TORSDOF 5
ENDMDL
