MODEL 1
REMARK VINA RESULT:      -8.1      0.000      0.000
REMARK  Name = 
REMARK  2 active torsions:
REMARK  status: ('A' for Active; 'I' for Inactive)
REMARK    1  A    between atoms: N_3  and  C_4
REMARK    2  A    between atoms: N_13  and  C_14
REMARK                            x       y       z     vdW  Elec       q    Type
REMARK                         _______ _______ _______ _____ _____    ______ ____
ROOT
ATOM      1  O   UNL     1       7.967   6.746  15.709  0.00  0.00    +0.000 OA
ATOM      2  C   UNL     1       7.318   6.603  16.750  0.00  0.00    +0.000 C 
ATOM      3  N   UNL     1       7.416   7.501  17.895  0.00  0.00    +0.000 N 
ATOM      4  N   UNL     1       6.276   5.266  16.934  0.00  0.00    +0.000 N 
ATOM      5  C   UNL     1       5.141   4.264  17.744  0.00  0.00    +0.000 A 
ATOM      6  N   UNL     1       5.699   4.653  18.856  0.00  0.00    +0.000 NA
ATOM      7  N   UNL     1       4.687   4.914  19.633  0.00  0.00    +0.000 N 
ATOM      8  C   UNL     1       4.367   3.577  19.969  0.00  0.00    +0.000 A 
ATOM      9  O   UNL     1       5.057   2.593  20.261  0.00  0.00    +0.000 OA
ATOM     10  C   UNL     1       3.235   3.202  19.255  0.00  0.00    +0.000 A 
ATOM     11  C   UNL     1       2.357   2.566  20.428  0.00  0.00    +0.000 A 
ATOM     12  C   UNL     1       1.039   2.335  20.333  0.00  0.00    +0.000 A 
ATOM     13  C   UNL     1       0.716   2.746  19.082  0.00  0.00    +0.000 A 
ATOM     14  C   UNL     1       1.825   3.306  17.962  0.00  0.00    +0.000 A 
ATOM     15  C   UNL     1       3.269   3.733  17.846  0.00  0.00    +0.000 A 
ATOM     16  H   UNL     1       7.121   7.095  18.765  0.00  0.00    +0.000 HD
ATOM     17  H   UNL     1       6.926   5.048  17.719  0.00  0.00    +0.000 HD
ENDROOT
BRANCH   3  18
ATOM     18  C   UNL     1       8.264   8.762  18.129  0.00  0.00    +0.000 A 
ATOM     19  C   UNL     1       9.042   8.932  19.322  0.00  0.00    +0.000 A 
ATOM     20  C   UNL     1       9.526  10.203  19.789  0.00  0.00    +0.000 A 
ATOM     21  C   UNL     1       9.325  11.353  19.041  0.00  0.00    +0.000 A 
ATOM     22  C   UNL     1       8.664  11.212  17.824  0.00  0.00    +0.000 A 
ATOM     23  C   UNL     1       8.166   9.940  17.364  0.00  0.00    +0.000 A 
ENDBRANCH   3  18
BRANCH   7  24
ATOM     24  C   UNL     1       3.681   5.970  18.860  0.00  0.00    +0.000 A 
ATOM     25  C   UNL     1       4.215   6.673  17.803  0.00  0.00    +0.000 A 
ATOM     26  C   UNL     1       3.574   7.827  17.300  0.00  0.00    +0.000 A 
ATOM     27  C   UNL     1       2.341   8.302  17.767  0.00  0.00    +0.000 A 
ATOM     28  C   UNL     1       1.775   7.712  18.864  0.00  0.00    +0.000 A 
ATOM     29  C   UNL     1       2.426   6.584  19.390  0.00  0.00    +0.000 A 
ENDBRANCH   7  24
TORSDOF 2
ENDMDL
MODEL 2
REMARK VINA RESULT:      -7.9      7.499     10.584
REMARK  Name = 
REMARK  2 active torsions:
REMARK  status: ('A' for Active; 'I' for Inactive)
REMARK    1  A    between atoms: N_3  and  C_4
REMARK    2  A    between atoms: N_13  and  C_14
REMARK                            x       y       z     vdW  Elec       q    Type
REMARK                         _______ _______ _______ _____ _____    ______ ____
ROOT
ATOM      1  O   UNL     1      -2.319  14.787  21.978  0.00  0.00    +0.000 OA
ATOM      2  C   UNL     1      -2.269  13.583  21.708  0.00  0.00    +0.000 C 
ATOM      3  N   UNL     1      -3.410  12.681  21.817  0.00  0.00    +0.000 N 
ATOM      4  N   UNL     1      -0.795  12.871  21.231  0.00  0.00    +0.000 N 
ATOM      5  C   UNL     1       0.239  11.595  20.729  0.00  0.00    +0.000 A 
ATOM      6  N   UNL     1      -0.535  10.797  21.409  0.00  0.00    +0.000 NA
ATOM      7  N   UNL     1      -0.707   9.782  20.611  0.00  0.00    +0.000 N 
ATOM      8  C   UNL     1       0.546   9.163  20.831  0.00  0.00    +0.000 A 
ATOM      9  O   UNL     1       1.221   8.965  21.849  0.00  0.00    +0.000 OA
ATOM     10  C   UNL     1       1.358   9.405  19.729  0.00  0.00    +0.000 A 
ATOM     11  C   UNL     1       1.895   7.930  19.442  0.00  0.00    +0.000 A 
ATOM     12  C   UNL     1       2.472   7.556  18.289  0.00  0.00    +0.000 A 
ATOM     13  C   UNL     1       2.470   8.682  17.533  0.00  0.00    +0.000 A 
ATOM     14  C   UNL     1       1.931  10.172  18.069  0.00  0.00    +0.000 A 
ATOM     15  C   UNL     1       1.190  10.813  19.219  0.00  0.00    +0.000 A 
ATOM     16  H   UNL     1      -3.163  11.711  21.907  0.00  0.00    +0.000 HD
ATOM     17  H   UNL     1      -0.945  12.315  22.100  0.00  0.00    +0.000 HD
ENDROOT
BRANCH   3  18
ATOM     18  C   UNL     1      -4.864  12.928  22.252  0.00  0.00    +0.000 A 
ATOM     19  C   UNL     1      -5.229  13.001  23.637  0.00  0.00    +0.000 A 
ATOM     20  C   UNL     1      -6.573  12.833  24.122  0.00  0.00    +0.000 A 
ATOM     21  C   UNL     1      -7.627  12.667  23.236  0.00  0.00    +0.000 A 
ATOM     22  C   UNL     1      -7.325  12.695  21.877  0.00  0.00    +0.000 A 
ATOM     23  C   UNL     1      -5.976  12.849  21.393  0.00  0.00    +0.000 A 
ENDBRANCH   3  18
BRANCH   7  24
ATOM     24  C   UNL     1      -1.254  10.338  19.155  0.00  0.00    +0.000 A 
ATOM     25  C   UNL     1      -2.172  11.364  19.189  0.00  0.00    +0.000 A 
ATOM     26  C   UNL     1      -2.953  11.678  18.054  0.00  0.00    +0.000 A 
ATOM     27  C   UNL     1      -2.815  11.043  16.811  0.00  0.00    +0.000 A 
ATOM     28  C   UNL     1      -1.982   9.963  16.706  0.00  0.00    +0.000 A 
ATOM     29  C   UNL     1      -1.229   9.625  17.842  0.00  0.00    +0.000 A 
ENDBRANCH   7  24
TORSDOF 2
ENDMDL
MODEL 3
REMARK VINA RESULT:      -7.8      5.064      8.234
REMARK  Name = 
REMARK  2 active torsions:
REMARK  status: ('A' for Active; 'I' for Inactive)
REMARK    1  A    between atoms: N_3  and  C_4
REMARK    2  A    between atoms: N_13  and  C_14
REMARK                            x       y       z     vdW  Elec       q    Type
REMARK                         _______ _______ _______ _____ _____    ______ ____
ROOT
ATOM      1  O   UNL     1       3.897   8.186  17.467  0.00  0.00    +0.000 OA
ATOM      2  C   UNL     1       2.742   8.230  17.902  0.00  0.00    +0.000 C 
ATOM      3  N   UNL     1       1.995   7.055  18.336  0.00  0.00    +0.000 N 
ATOM      4  N   UNL     1       1.906   9.715  17.968  0.00  0.00    +0.000 N 
ATOM      5  C   UNL     1       0.579  10.752  18.300  0.00  0.00    +0.000 A 
ATOM      6  N   UNL     1      -0.189   9.726  18.064  0.00  0.00    +0.000 NA
ATOM      7  N   UNL     1      -1.060   9.764  19.032  0.00  0.00    +0.000 N 
ATOM      8  C   UNL     1      -1.865  10.805  18.510  0.00  0.00    +0.000 A 
ATOM      9  O   UNL     1      -2.282  11.059  17.374  0.00  0.00    +0.000 OA
ATOM     10  C   UNL     1      -1.594  11.970  19.218  0.00  0.00    +0.000 A 
ATOM     11  C   UNL     1      -3.078  12.453  19.551  0.00  0.00    +0.000 A 
ATOM     12  C   UNL     1      -3.375  13.366  20.489  0.00  0.00    +0.000 A 
ATOM     13  C   UNL     1      -2.171  13.722  21.001  0.00  0.00    +0.000 A 
ATOM     14  C   UNL     1      -0.703  13.151  20.436  0.00  0.00    +0.000 A 
ATOM     15  C   UNL     1      -0.122  12.108  19.511  0.00  0.00    +0.000 A 
ATOM     16  H   UNL     1       0.998   7.175  18.332  0.00  0.00    +0.000 HD
ATOM     17  H   UNL     1       1.268   9.223  17.306  0.00  0.00    +0.000 HD
ENDROOT
BRANCH   3  18
ATOM     18  C   UNL     1       2.377   5.566  18.380  0.00  0.00    +0.000 A 
ATOM     19  C   UNL     1       3.610   5.126  18.966  0.00  0.00    +0.000 A 
ATOM     20  C   UNL     1       4.212   3.847  18.702  0.00  0.00    +0.000 A 
ATOM     21  C   UNL     1       3.567   2.915  17.903  0.00  0.00    +0.000 A 
ATOM     22  C   UNL     1       2.317   3.266  17.400  0.00  0.00    +0.000 A 
ATOM     23  C   UNL     1       1.722   4.554  17.654  0.00  0.00    +0.000 A 
ENDBRANCH   3  18
BRANCH   7  24
ATOM     24  C   UNL     1      -0.253   9.813  20.472  0.00  0.00    +0.000 A 
ATOM     25  C   UNL     1       0.836   8.980  20.600  0.00  0.00    +0.000 A 
ATOM     26  C   UNL     1       1.380   8.686  21.870  0.00  0.00    +0.000 A 
ATOM     27  C   UNL     1       0.922   9.254  23.067  0.00  0.00    +0.000 A 
ATOM     28  C   UNL     1      -0.202  10.033  23.044  0.00  0.00    +0.000 A 
ATOM     29  C   UNL     1      -0.768  10.301  21.787  0.00  0.00    +0.000 A 
ENDBRANCH   7  24
TORSDOF 2
ENDMDL
MODEL 4
REMARK VINA RESULT:      -7.7      5.024      8.348
REMARK  Name = 
REMARK  2 active torsions:
REMARK  status: ('A' for Active; 'I' for Inactive)
REMARK    1  A    between atoms: N_3  and  C_4
REMARK    2  A    between atoms: N_13  and  C_14
REMARK                            x       y       z     vdW  Elec       q    Type
REMARK                         _______ _______ _______ _____ _____    ______ ____
ROOT
ATOM      1  O   UNL     1       3.922   8.111  17.479  0.00  0.00    +0.000 OA
ATOM      2  C   UNL     1       2.766   8.167  17.910  0.00  0.00    +0.000 C 
ATOM      3  N   UNL     1       2.009   7.001  18.350  0.00  0.00    +0.000 N 
ATOM      4  N   UNL     1       1.941   9.658  17.963  0.00  0.00    +0.000 N 
ATOM      5  C   UNL     1       0.621  10.708  18.284  0.00  0.00    +0.000 A 
ATOM      6  N   UNL     1      -0.154   9.687  18.053  0.00  0.00    +0.000 NA
ATOM      7  N   UNL     1      -1.027   9.739  19.018  0.00  0.00    +0.000 N 
ATOM      8  C   UNL     1      -1.823  10.782  18.487  0.00  0.00    +0.000 A 
ATOM      9  O   UNL     1      -2.234  11.031  17.347  0.00  0.00    +0.000 OA
ATOM     10  C   UNL     1      -1.544  11.949  19.187  0.00  0.00    +0.000 A 
ATOM     11  C   UNL     1      -3.026  12.446  19.512  0.00  0.00    +0.000 A 
ATOM     12  C   UNL     1      -3.318  13.369  20.443  0.00  0.00    +0.000 A 
ATOM     13  C   UNL     1      -2.113  13.719  20.956  0.00  0.00    +0.000 A 
ATOM     14  C   UNL     1      -0.648  13.133  20.399  0.00  0.00    +0.000 A 
ATOM     15  C   UNL     1      -0.072  12.078  19.484  0.00  0.00    +0.000 A 
ATOM     16  H   UNL     1       1.013   7.128  18.343  0.00  0.00    +0.000 HD
ATOM     17  H   UNL     1       1.302   9.167  17.303  0.00  0.00    +0.000 HD
ENDROOT
BRANCH   3  18
ATOM     18  C   UNL     1       2.379   5.509  18.406  0.00  0.00    +0.000 A 
ATOM     19  C   UNL     1       1.566   4.511  17.774  0.00  0.00    +0.000 A 
ATOM     20  C   UNL     1       1.614   3.111  18.103  0.00  0.00    +0.000 A 
ATOM     21  C   UNL     1       2.536   2.634  19.021  0.00  0.00    +0.000 A 
ATOM     22  C   UNL     1       3.415   3.559  19.580  0.00  0.00    +0.000 A 
ATOM     23  C   UNL     1       3.356   4.963  19.260  0.00  0.00    +0.000 A 
ENDBRANCH   3  18
BRANCH   7  24
ATOM     24  C   UNL     1      -0.223   9.792  20.460  0.00  0.00    +0.000 A 
ATOM     25  C   UNL     1       0.867   8.960  20.592  0.00  0.00    +0.000 A 
ATOM     26  C   UNL     1       1.408   8.670  21.864  0.00  0.00    +0.000 A 
ATOM     27  C   UNL     1       0.946   9.240  23.059  0.00  0.00    +0.000 A 
ATOM     28  C   UNL     1      -0.180  10.016  23.032  0.00  0.00    +0.000 A 
ATOM     29  C   UNL     1      -0.743  10.281  21.773  0.00  0.00    +0.000 A 
ENDBRANCH   7  24
TORSDOF 2
ENDMDL
MODEL 5
REMARK VINA RESULT:      -7.7      5.651      8.657
REMARK  Name = 
REMARK  2 active torsions:
REMARK  status: ('A' for Active; 'I' for Inactive)
REMARK    1  A    between atoms: N_3  and  C_4
REMARK    2  A    between atoms: N_13  and  C_14
REMARK                            x       y       z     vdW  Elec       q    Type
REMARK                         _______ _______ _______ _____ _____    ______ ____
ROOT
ATOM      1  O   UNL     1       1.414   6.751  21.019  0.00  0.00    +0.000 OA
ATOM      2  C   UNL     1       1.426   7.851  20.457  0.00  0.00    +0.000 C 
ATOM      3  N   UNL     1       2.036   8.088  19.153  0.00  0.00    +0.000 N 
ATOM      4  N   UNL     1       0.756   9.216  21.229  0.00  0.00    +0.000 N 
ATOM      5  C   UNL     1       0.308  10.866  21.383  0.00  0.00    +0.000 A 
ATOM      6  N   UNL     1       1.332  11.141  20.625  0.00  0.00    +0.000 NA
ATOM      7  N   UNL     1       0.864  12.012  19.778  0.00  0.00    +0.000 N 
ATOM      8  C   UNL     1       0.884  13.133  20.641  0.00  0.00    +0.000 A 
ATOM      9  O   UNL     1       1.706  13.545  21.468  0.00  0.00    +0.000 OA
ATOM     10  C   UNL     1      -0.417  13.398  21.050  0.00  0.00    +0.000 A 
ATOM     11  C   UNL     1      -0.488  14.969  20.776  0.00  0.00    +0.000 A 
ATOM     12  C   UNL     1      -1.633  15.666  20.709  0.00  0.00    +0.000 A 
ATOM     13  C   UNL     1      -2.600  14.741  20.930  0.00  0.00    +0.000 A 
ATOM     14  C   UNL     1      -2.300  13.136  21.293  0.00  0.00    +0.000 A 
ATOM     15  C   UNL     1      -1.176  12.127  21.335  0.00  0.00    +0.000 A 
ATOM     16  H   UNL     1       2.279   9.047  18.979  0.00  0.00    +0.000 HD
ATOM     17  H   UNL     1       1.738   9.560  21.162  0.00  0.00    +0.000 HD
ENDROOT
BRANCH   3  18
ATOM     18  C   UNL     1       2.768   7.143  18.187  0.00  0.00    +0.000 A 
ATOM     19  C   UNL     1       2.473   5.739  18.143  0.00  0.00    +0.000 A 
ATOM     20  C   UNL     1       3.354   4.751  17.580  0.00  0.00    +0.000 A 
ATOM     21  C   UNL     1       4.535   5.131  16.961  0.00  0.00    +0.000 A 
ATOM     22  C   UNL     1       4.807   6.495  16.890  0.00  0.00    +0.000 A 
ATOM     23  C   UNL     1       3.930   7.483  17.468  0.00  0.00    +0.000 A 
ENDBRANCH   3  18
BRANCH   7  24
ATOM     24  C   UNL     1      -0.485  11.384  19.061  0.00  0.00    +0.000 A 
ATOM     25  C   UNL     1      -0.362  10.132  18.499  0.00  0.00    +0.000 A 
ATOM     26  C   UNL     1      -1.320   9.652  17.579  0.00  0.00    +0.000 A 
ATOM     27  C   UNL     1      -2.481  10.352  17.223  0.00  0.00    +0.000 A 
ATOM     28  C   UNL     1      -2.647  11.634  17.672  0.00  0.00    +0.000 A 
ATOM     29  C   UNL     1      -1.680  12.129  18.561  0.00  0.00    +0.000 A 
ENDBRANCH   7  24
TORSDOF 2
ENDMDL
MODEL 6
REMARK VINA RESULT:      -7.4      3.896      5.961
REMARK  Name = 
REMARK  2 active torsions:
REMARK  status: ('A' for Active; 'I' for Inactive)
REMARK    1  A    between atoms: N_3  and  C_4
REMARK    2  A    between atoms: N_13  and  C_14
REMARK                            x       y       z     vdW  Elec       q    Type
REMARK                         _______ _______ _______ _____ _____    ______ ____
ROOT
ATOM      1  O   UNL     1       1.492   9.603  21.806  0.00  0.00    +0.000 OA
ATOM      2  C   UNL     1       1.349   8.760  20.915  0.00  0.00    +0.000 C 
ATOM      3  N   UNL     1       0.715   9.037  19.631  0.00  0.00    +0.000 N 
ATOM      4  N   UNL     1       1.852   7.150  21.169  0.00  0.00    +0.000 N 
ATOM      5  C   UNL     1       2.101   5.503  20.755  0.00  0.00    +0.000 A 
ATOM      6  N   UNL     1       1.051   5.611  19.990  0.00  0.00    +0.000 NA
ATOM      7  N   UNL     1       1.412   5.022  18.886  0.00  0.00    +0.000 N 
ATOM      8  C   UNL     1       1.259   3.688  19.333  0.00  0.00    +0.000 A 
ATOM      9  O   UNL     1       0.394   3.121  20.012  0.00  0.00    +0.000 OA
ATOM     10  C   UNL     1       2.520   3.159  19.581  0.00  0.00    +0.000 A 
ATOM     11  C   UNL     1       2.403   1.769  18.804  0.00  0.00    +0.000 A 
ATOM     12  C   UNL     1       3.457   1.010  18.467  0.00  0.00    +0.000 A 
ATOM     13  C   UNL     1       4.528   1.695  18.940  0.00  0.00    +0.000 A 
ATOM     14  C   UNL     1       4.421   3.114  19.822  0.00  0.00    +0.000 A 
ATOM     15  C   UNL     1       3.425   4.170  20.237  0.00  0.00    +0.000 A 
ATOM     16  H   UNL     1       0.360   8.224  19.162  0.00  0.00    +0.000 HD
ATOM     17  H   UNL     1       0.837   6.961  21.032  0.00  0.00    +0.000 HD
ENDROOT
BRANCH   3  18
ATOM     18  C   UNL     1       0.100  10.325  19.058  0.00  0.00    +0.000 A 
ATOM     19  C   UNL     1       0.877  11.521  18.901  0.00  0.00    +0.000 A 
ATOM     20  C   UNL     1       0.307  12.834  18.757  0.00  0.00    +0.000 A 
ATOM     21  C   UNL     1      -1.067  13.002  18.681  0.00  0.00    +0.000 A 
ATOM     22  C   UNL     1      -1.852  11.852  18.725  0.00  0.00    +0.000 A 
ATOM     23  C   UNL     1      -1.280  10.539  18.884  0.00  0.00    +0.000 A 
ENDBRANCH   3  18
BRANCH   7  24
ATOM     24  C   UNL     1       2.826   5.697  18.362  0.00  0.00    +0.000 A 
ATOM     25  C   UNL     1       2.868   7.072  18.294  0.00  0.00    +0.000 A 
ATOM     26  C   UNL     1       3.873   7.732  17.551  0.00  0.00    +0.000 A 
ATOM     27  C   UNL     1       4.923   7.071  16.899  0.00  0.00    +0.000 A 
ATOM     28  C   UNL     1       4.918   5.704  16.848  0.00  0.00    +0.000 A 
ATOM     29  C   UNL     1       3.902   5.043  17.558  0.00  0.00    +0.000 A 
ENDBRANCH   7  24
TORSDOF 2
ENDMDL
MODEL 7
REMARK VINA RESULT:      -7.3      7.650     10.625
REMARK  Name = 
REMARK  2 active torsions:
REMARK  status: ('A' for Active; 'I' for Inactive)
REMARK    1  A    between atoms: N_3  and  C_4
REMARK    2  A    between atoms: N_13  and  C_14
REMARK                            x       y       z     vdW  Elec       q    Type
REMARK                         _______ _______ _______ _____ _____    ______ ____
ROOT
ATOM      1  O   UNL     1      -2.192  15.030  21.810  0.00  0.00    +0.000 OA
ATOM      2  C   UNL     1      -2.173  13.815  21.589  0.00  0.00    +0.000 C 
ATOM      3  N   UNL     1      -3.337  12.947  21.735  0.00  0.00    +0.000 N 
ATOM      4  N   UNL     1      -0.719  13.047  21.140  0.00  0.00    +0.000 N 
ATOM      5  C   UNL     1       0.281  11.726  20.688  0.00  0.00    +0.000 A 
ATOM      6  N   UNL     1      -0.511  10.976  21.400  0.00  0.00    +0.000 NA
ATOM      7  N   UNL     1      -0.711   9.934  20.644  0.00  0.00    +0.000 N 
ATOM      8  C   UNL     1       0.527   9.293  20.888  0.00  0.00    +0.000 A 
ATOM      9  O   UNL     1       1.198   9.119  21.912  0.00  0.00    +0.000 OA
ATOM     10  C   UNL     1       1.342   9.470  19.777  0.00  0.00    +0.000 A 
ATOM     11  C   UNL     1       1.842   7.971  19.549  0.00  0.00    +0.000 A 
ATOM     12  C   UNL     1       2.406   7.537  18.411  0.00  0.00    +0.000 A 
ATOM     13  C   UNL     1       2.432   8.631  17.611  0.00  0.00    +0.000 A 
ATOM     14  C   UNL     1       1.931  10.155  18.087  0.00  0.00    +0.000 A 
ATOM     15  C   UNL     1       1.209  10.860  19.210  0.00  0.00    +0.000 A 
ATOM     16  H   UNL     1      -3.114  11.976  21.864  0.00  0.00    +0.000 HD
ATOM     17  H   UNL     1      -0.882  12.531  22.031  0.00  0.00    +0.000 HD
ENDROOT
BRANCH   3  18
ATOM     18  C   UNL     1      -4.783  13.248  22.161  0.00  0.00    +0.000 A 
ATOM     19  C   UNL     1      -5.684  13.961  21.302  0.00  0.00    +0.000 A 
ATOM     20  C   UNL     1      -6.881  14.615  21.760  0.00  0.00    +0.000 A 
ATOM     21  C   UNL     1      -7.275  14.515  23.085  0.00  0.00    +0.000 A 
ATOM     22  C   UNL     1      -6.481  13.743  23.929  0.00  0.00    +0.000 A 
ATOM     23  C   UNL     1      -5.274  13.101  23.472  0.00  0.00    +0.000 A 
ENDBRANCH   3  18
BRANCH   7  24
ATOM     24  C   UNL     1      -1.246  10.445  19.168  0.00  0.00    +0.000 A 
ATOM     25  C   UNL     1      -2.193  11.446  19.164  0.00  0.00    +0.000 A 
ATOM     26  C   UNL     1      -2.960  11.715  18.009  0.00  0.00    +0.000 A 
ATOM     27  C   UNL     1      -2.783  11.059  16.782  0.00  0.00    +0.000 A 
ATOM     28  C   UNL     1      -1.919  10.000  16.715  0.00  0.00    +0.000 A 
ATOM     29  C   UNL     1      -1.177   9.706  17.870  0.00  0.00    +0.000 A 
ENDBRANCH   7  24
TORSDOF 2
ENDMDL
MODEL 8
REMARK VINA RESULT:      -7.1      7.936     10.795
REMARK  Name = 
REMARK  2 active torsions:
REMARK  status: ('A' for Active; 'I' for Inactive)
REMARK    1  A    between atoms: N_3  and  C_4
REMARK    2  A    between atoms: N_13  and  C_14
REMARK                            x       y       z     vdW  Elec       q    Type
REMARK                         _______ _______ _______ _____ _____    ______ ____
ROOT
ATOM      1  O   UNL     1      -2.179  15.821  20.657  0.00  0.00    +0.000 OA
ATOM      2  C   UNL     1      -2.178  14.587  20.703  0.00  0.00    +0.000 C 
ATOM      3  N   UNL     1      -3.343  13.789  21.072  0.00  0.00    +0.000 N 
ATOM      4  N   UNL     1      -0.747  13.717  20.382  0.00  0.00    +0.000 N 
ATOM      5  C   UNL     1       0.225  12.315  20.193  0.00  0.00    +0.000 A 
ATOM      6  N   UNL     1      -0.547  11.748  21.076  0.00  0.00    +0.000 NA
ATOM      7  N   UNL     1      -0.783  10.571  20.570  0.00  0.00    +0.000 N 
ATOM      8  C   UNL     1       0.458   9.978  20.905  0.00  0.00    +0.000 A 
ATOM      9  O   UNL     1       1.164  10.018  21.920  0.00  0.00    +0.000 OA
ATOM     10  C   UNL     1       1.234   9.899  19.755  0.00  0.00    +0.000 A 
ATOM     11  C   UNL     1       1.713   8.378  19.839  0.00  0.00    +0.000 A 
ATOM     12  C   UNL     1       2.232   7.700  18.804  0.00  0.00    +0.000 A 
ATOM     13  C   UNL     1       2.238   8.595  17.786  0.00  0.00    +0.000 A 
ATOM     14  C   UNL     1       1.768  10.194  17.938  0.00  0.00    +0.000 A 
ATOM     15  C   UNL     1       1.092  11.136  18.907  0.00  0.00    +0.000 A 
ATOM     16  H   UNL     1      -3.124  12.866  21.400  0.00  0.00    +0.000 HD
ATOM     17  H   UNL     1      -0.882  13.408  21.368  0.00  0.00    +0.000 HD
ENDROOT
BRANCH   3  18
ATOM     18  C   UNL     1      -4.770  14.198  21.470  0.00  0.00    +0.000 A 
ATOM     19  C   UNL     1      -5.905  13.835  20.671  0.00  0.00    +0.000 A 
ATOM     20  C   UNL     1      -7.183  14.490  20.747  0.00  0.00    +0.000 A 
ATOM     21  C   UNL     1      -7.409  15.486  21.686  0.00  0.00    +0.000 A 
ATOM     22  C   UNL     1      -6.363  15.795  22.551  0.00  0.00    +0.000 A 
ATOM     23  C   UNL     1      -5.078  15.147  22.463  0.00  0.00    +0.000 A 
ENDBRANCH   3  18
BRANCH   7  24
ATOM     24  C   UNL     1      -1.366  10.760  19.036  0.00  0.00    +0.000 A 
ATOM     25  C   UNL     1      -2.387  11.670  18.870  0.00  0.00    +0.000 A 
ATOM     26  C   UNL     1      -3.181  11.664  17.702  0.00  0.00    +0.000 A 
ATOM     27  C   UNL     1      -2.963  10.809  16.613  0.00  0.00    +0.000 A 
ATOM     28  C   UNL     1      -2.021   9.823  16.721  0.00  0.00    +0.000 A 
ATOM     29  C   UNL     1      -1.251   9.803  17.895  0.00  0.00    +0.000 A 
ENDBRANCH   7  24
TORSDOF 2
ENDMDL
MODEL 9
REMARK VINA RESULT:      -6.9      7.711     10.320
REMARK  Name = 
REMARK  2 active torsions:
REMARK  status: ('A' for Active; 'I' for Inactive)
REMARK    1  A    between atoms: N_3  and  C_4
REMARK    2  A    between atoms: N_13  and  C_14
REMARK                            x       y       z     vdW  Elec       q    Type
REMARK                         _______ _______ _______ _____ _____    ______ ____
ROOT
ATOM      1  O   UNL     1      -0.902  10.111  17.711  0.00  0.00    +0.000 OA
ATOM      2  C   UNL     1      -0.712  10.443  18.885  0.00  0.00    +0.000 C 
ATOM      3  N   UNL     1       0.374   9.923  19.708  0.00  0.00    +0.000 N 
ATOM      4  N   UNL     1      -1.782  11.525  19.655  0.00  0.00    +0.000 N 
ATOM      5  C   UNL     1      -2.382  12.478  20.950  0.00  0.00    +0.000 A 
ATOM      6  N   UNL     1      -1.873  11.585  21.750  0.00  0.00    +0.000 NA
ATOM      7  N   UNL     1      -1.286  12.295  22.671  0.00  0.00    +0.000 N 
ATOM      8  C   UNL     1      -2.448  12.646  23.397  0.00  0.00    +0.000 A 
ATOM      9  O   UNL     1      -3.454  12.011  23.738  0.00  0.00    +0.000 OA
ATOM     10  C   UNL     1      -2.763  13.970  23.113  0.00  0.00    +0.000 A 
ATOM     11  C   UNL     1      -2.981  14.534  24.590  0.00  0.00    +0.000 A 
ATOM     12  C   UNL     1      -2.996  15.841  24.896  0.00  0.00    +0.000 A 
ATOM     13  C   UNL     1      -2.806  16.465  23.707  0.00  0.00    +0.000 A 
ATOM     14  C   UNL     1      -2.689  15.673  22.238  0.00  0.00    +0.000 A 
ATOM     15  C   UNL     1      -2.551  14.287  21.655  0.00  0.00    +0.000 A 
ATOM     16  H   UNL     1       0.215   9.996  20.697  0.00  0.00    +0.000 HD
ATOM     17  H   UNL     1      -1.940  10.703  20.277  0.00  0.00    +0.000 HD
ENDROOT
BRANCH   3  18
ATOM     18  C   UNL     1       1.492   8.913  19.397  0.00  0.00    +0.000 A 
ATOM     19  C   UNL     1       2.184   8.925  18.141  0.00  0.00    +0.000 A 
ATOM     20  C   UNL     1       2.935   7.810  17.628  0.00  0.00    +0.000 A 
ATOM     21  C   UNL     1       3.095   6.660  18.386  0.00  0.00    +0.000 A 
ATOM     22  C   UNL     1       2.524   6.650  19.656  0.00  0.00    +0.000 A 
ATOM     23  C   UNL     1       1.761   7.763  20.163  0.00  0.00    +0.000 A 
ENDBRANCH   3  18
BRANCH   7  24
ATOM     24  C   UNL     1      -0.257  13.362  21.943  0.00  0.00    +0.000 A 
ATOM     25  C   UNL     1       0.579  12.854  20.973  0.00  0.00    +0.000 A 
ATOM     26  C   UNL     1       1.713  13.577  20.540  0.00  0.00    +0.000 A 
ATOM     27  C   UNL     1       2.037  14.864  20.990  0.00  0.00    +0.000 A 
ATOM     28  C   UNL     1       1.309  15.415  22.008  0.00  0.00    +0.000 A 
ATOM     29  C   UNL     1       0.199  14.686  22.466  0.00  0.00    +0.000 A 
ENDBRANCH   7  24
TORSDOF 2
ENDMDL
