MODEL 1
REMARK VINA RESULT:      -9.0      0.000      0.000
REMARK  Name = 
REMARK  4 active torsions:
REMARK  status: ('A' for Active; 'I' for Inactive)
REMARK    1  A    between atoms: C_1  and  N_2
REMARK    2  A    between atoms: C_4  and  C_5
REMARK    3  A    between atoms: C_12  and  C_13
REMARK    4  A    between atoms: C_23  and  C_24
REMARK                            x       y       z     vdW  Elec       q    Type
REMARK                         _______ _______ _______ _____ _____    ______ ____
ROOT
ATOM      1  C   UNL     1       4.673   3.555  19.443  0.00  0.00    +0.000 C 
ATOM      2  O   UNL     1       5.240   2.647  20.051  0.00  0.00    +0.000 OA
ATOM      3  N   UNL     1       3.339   3.892  19.706  0.00  0.00    +0.000 N 
ATOM      4  C   UNL     1       2.668   3.297  20.864  0.00  0.00    +0.000 C 
ATOM      5  C   UNL     1       1.394   2.547  20.485  0.00  0.00    +0.000 C 
ATOM      6  C   UNL     1       0.487   3.341  19.547  0.00  0.00    +0.000 C 
ATOM      7  C   UNL     1       1.270   3.906  18.369  0.00  0.00    +0.000 C 
ATOM      8  C   UNL     1       2.499   4.713  18.812  0.00  0.00    +0.000 C 
ENDROOT
BRANCH   8   9
ATOM      9  C   UNL     1       2.118   6.029  19.440  0.00  0.00    +0.000 A 
ATOM     10  N   UNL     1       1.736   6.299  20.679  0.00  0.00    +0.000 NA
ATOM     11  C   UNL     1       1.461   7.638  20.657  0.00  0.00    +0.000 A 
ATOM     12  C   UNL     1       1.022   8.506  21.665  0.00  0.00    +0.000 A 
ATOM     13  C   UNL     1       0.806   9.851  21.330  0.00  0.00    +0.000 A 
ATOM     14  C   UNL     1       1.020  10.318  20.027  0.00  0.00    +0.000 A 
ATOM     15  C   UNL     1       1.458   9.461  19.010  0.00  0.00    +0.000 A 
ATOM     16  C   UNL     1       1.662   8.138  19.381  0.00  0.00    +0.000 A 
ATOM     17  O   UNL     1       2.078   7.108  18.588  0.00  0.00    +0.000 OA
ENDBRANCH   8   9
BRANCH   1  21
ATOM     18  C   UNL     1       7.459   6.852  17.265  0.00  0.00    +0.000 C 
ATOM     19  N   UNL     1       6.587   5.713  17.342  0.00  0.00    +0.000 N 
ATOM     20  N   UNL     1       6.291   5.237  18.569  0.00  0.00    +0.000 NA
ATOM     21  C   UNL     1       5.387   4.268  18.365  0.00  0.00    +0.000 A 
ATOM     22  C   UNL     1       5.230   4.035  16.974  0.00  0.00    +0.000 A 
ATOM     23  C   UNL     1       5.978   5.005  16.337  0.00  0.00    +0.000 A 
BRANCH  23  24
ATOM     24  C   UNL     1       5.961   5.133  14.828  0.00  0.00    +0.000 C 
ATOM     25  C   UNL     1       7.213   4.756  14.071  0.00  0.00    +0.000 C 
ATOM     26  C   UNL     1       5.955   3.976  13.868  0.00  0.00    +0.000 C 
ENDBRANCH  23  24
ENDBRANCH   1  21
TORSDOF 3
ENDMDL
MODEL 2
REMARK VINA RESULT:      -8.7      0.812      2.019
REMARK  Name = 
REMARK  4 active torsions:
REMARK  status: ('A' for Active; 'I' for Inactive)
REMARK    1  A    between atoms: C_1  and  N_2
REMARK    2  A    between atoms: C_4  and  C_5
REMARK    3  A    between atoms: C_12  and  C_13
REMARK    4  A    between atoms: C_23  and  C_24
REMARK                            x       y       z     vdW  Elec       q    Type
REMARK                         _______ _______ _______ _____ _____    ______ ____
ROOT
ATOM      1  C   UNL     1       4.737   3.608  19.342  0.00  0.00    +0.000 C 
ATOM      2  O   UNL     1       5.255   2.665  19.940  0.00  0.00    +0.000 OA
ATOM      3  N   UNL     1       3.390   3.945  19.531  0.00  0.00    +0.000 N 
ATOM      4  C   UNL     1       2.638   3.299  20.610  0.00  0.00    +0.000 C 
ATOM      5  C   UNL     1       1.388   2.581  20.107  0.00  0.00    +0.000 C 
ATOM      6  C   UNL     1       0.552   3.429  19.151  0.00  0.00    +0.000 C 
ATOM      7  C   UNL     1       1.417   4.045  18.059  0.00  0.00    +0.000 C 
ATOM      8  C   UNL     1       2.617   4.817  18.624  0.00  0.00    +0.000 C 
ENDROOT
BRANCH   8   9
ATOM      9  C   UNL     1       2.203   6.103  19.292  0.00  0.00    +0.000 A 
ATOM     10  N   UNL     1       1.843   6.332  20.546  0.00  0.00    +0.000 NA
ATOM     11  C   UNL     1       1.516   7.659  20.560  0.00  0.00    +0.000 A 
ATOM     12  C   UNL     1       1.071   8.488  21.598  0.00  0.00    +0.000 A 
ATOM     13  C   UNL     1       0.795   9.830  21.299  0.00  0.00    +0.000 A 
ATOM     14  C   UNL     1       0.957  10.333  20.002  0.00  0.00    +0.000 A 
ATOM     15  C   UNL     1       1.401   9.516  18.955  0.00  0.00    +0.000 A 
ATOM     16  C   UNL     1       1.665   8.194  19.291  0.00  0.00    +0.000 A 
ATOM     17  O   UNL     1       2.099   7.199  18.465  0.00  0.00    +0.000 OA
ENDBRANCH   8   9
BRANCH   1  21
ATOM     18  C   UNL     1       6.954   4.687  15.184  0.00  0.00    +0.000 C 
ATOM     19  N   UNL     1       6.549   4.888  16.547  0.00  0.00    +0.000 N 
ATOM     20  N   UNL     1       5.637   4.035  17.058  0.00  0.00    +0.000 NA
ATOM     21  C   UNL     1       5.527   4.367  18.352  0.00  0.00    +0.000 A 
ATOM     22  C   UNL     1       6.272   5.545  18.616  0.00  0.00    +0.000 A 
ATOM     23  C   UNL     1       6.955   5.836  17.452  0.00  0.00    +0.000 A 
BRANCH  23  24
ATOM     24  C   UNL     1       7.946   6.980  17.397  0.00  0.00    +0.000 C 
ATOM     25  C   UNL     1       7.408   8.388  17.495  0.00  0.00    +0.000 C 
ATOM     26  C   UNL     1       8.310   7.857  18.561  0.00  0.00    +0.000 C 
ENDBRANCH  23  24
ENDBRANCH   1  21
TORSDOF 3
ENDMDL
MODEL 3
REMARK VINA RESULT:      -8.0      0.700      1.183
REMARK  Name = 
REMARK  4 active torsions:
REMARK  status: ('A' for Active; 'I' for Inactive)
REMARK    1  A    between atoms: C_1  and  N_2
REMARK    2  A    between atoms: C_4  and  C_5
REMARK    3  A    between atoms: C_12  and  C_13
REMARK    4  A    between atoms: C_23  and  C_24
REMARK                            x       y       z     vdW  Elec       q    Type
REMARK                         _______ _______ _______ _____ _____    ______ ____
ROOT
ATOM      1  C   UNL     1       4.706   3.869  19.351  0.00  0.00    +0.000 C 
ATOM      2  O   UNL     1       5.272   3.035  20.058  0.00  0.00    +0.000 OA
ATOM      3  N   UNL     1       3.353   4.184  19.530  0.00  0.00    +0.000 N 
ATOM      4  C   UNL     1       2.650   3.671  20.708  0.00  0.00    +0.000 C 
ATOM      5  C   UNL     1       1.416   2.850  20.345  0.00  0.00    +0.000 C 
ATOM      6  C   UNL     1       0.528   3.530  19.306  0.00  0.00    +0.000 C 
ATOM      7  C   UNL     1       1.344   4.015  18.115  0.00  0.00    +0.000 C 
ATOM      8  C   UNL     1       2.528   4.897  18.534  0.00  0.00    +0.000 C 
ENDROOT
BRANCH   8   9
ATOM      9  C   UNL     1       2.084   6.249  19.029  0.00  0.00    +0.000 A 
ATOM     10  N   UNL     1       1.962   7.395  18.375  0.00  0.00    +0.000 NA
ATOM     11  C   UNL     1       1.587   8.288  19.340  0.00  0.00    +0.000 A 
ATOM     12  C   UNL     1       1.298   9.657  19.266  0.00  0.00    +0.000 A 
ATOM     13  C   UNL     1       0.951  10.323  20.451  0.00  0.00    +0.000 A 
ATOM     14  C   UNL     1       0.895   9.645  21.676  0.00  0.00    +0.000 A 
ATOM     15  C   UNL     1       1.181   8.277  21.763  0.00  0.00    +0.000 A 
ATOM     16  C   UNL     1       1.519   7.653  20.568  0.00  0.00    +0.000 A 
ATOM     17  O   UNL     1       1.844   6.341  20.381  0.00  0.00    +0.000 OA
ENDBRANCH   8   9
BRANCH   1  21
ATOM     18  C   UNL     1       7.551   7.008  17.022  0.00  0.00    +0.000 C 
ATOM     19  N   UNL     1       6.672   5.880  17.154  0.00  0.00    +0.000 N 
ATOM     20  N   UNL     1       6.350   5.485  18.403  0.00  0.00    +0.000 NA
ATOM     21  C   UNL     1       5.445   4.508  18.243  0.00  0.00    +0.000 A 
ATOM     22  C   UNL     1       5.314   4.187  16.868  0.00  0.00    +0.000 A 
ATOM     23  C   UNL     1       6.080   5.111  16.185  0.00  0.00    +0.000 A 
BRANCH  23  24
ATOM     24  C   UNL     1       6.094   5.141  14.670  0.00  0.00    +0.000 C 
ATOM     25  C   UNL     1       7.368   4.741  13.965  0.00  0.00    +0.000 C 
ATOM     26  C   UNL     1       6.129   3.926  13.788  0.00  0.00    +0.000 C 
ENDBRANCH  23  24
ENDBRANCH   1  21
TORSDOF 3
ENDMDL
MODEL 4
REMARK VINA RESULT:      -7.7      1.103      2.375
REMARK  Name = 
REMARK  4 active torsions:
REMARK  status: ('A' for Active; 'I' for Inactive)
REMARK    1  A    between atoms: C_1  and  N_2
REMARK    2  A    between atoms: C_4  and  C_5
REMARK    3  A    between atoms: C_12  and  C_13
REMARK    4  A    between atoms: C_23  and  C_24
REMARK                            x       y       z     vdW  Elec       q    Type
REMARK                         _______ _______ _______ _____ _____    ______ ____
ROOT
ATOM      1  C   UNL     1       4.752   3.867  19.325  0.00  0.00    +0.000 C 
ATOM      2  O   UNL     1       5.250   2.984  20.024  0.00  0.00    +0.000 OA
ATOM      3  N   UNL     1       3.385   4.172  19.392  0.00  0.00    +0.000 N 
ATOM      4  C   UNL     1       2.574   3.577  20.457  0.00  0.00    +0.000 C 
ATOM      5  C   UNL     1       1.384   2.787  19.918  0.00  0.00    +0.000 C 
ATOM      6  C   UNL     1       0.599   3.540  18.847  0.00  0.00    +0.000 C 
ATOM      7  C   UNL     1       1.525   4.107  17.779  0.00  0.00    +0.000 C 
ATOM      8  C   UNL     1       2.659   4.955  18.373  0.00  0.00    +0.000 C 
ENDROOT
BRANCH   8   9
ATOM      9  C   UNL     1       2.162   6.269  18.917  0.00  0.00    +0.000 A 
ATOM     10  N   UNL     1       1.972   7.426  18.300  0.00  0.00    +0.000 NA
ATOM     11  C   UNL     1       1.575   8.273  19.297  0.00  0.00    +0.000 A 
ATOM     12  C   UNL     1       1.221   9.627  19.270  0.00  0.00    +0.000 A 
ATOM     13  C   UNL     1       0.868  10.242  20.481  0.00  0.00    +0.000 A 
ATOM     14  C   UNL     1       0.869   9.527  21.685  0.00  0.00    +0.000 A 
ATOM     15  C   UNL     1       1.221   8.173  21.727  0.00  0.00    +0.000 A 
ATOM     16  C   UNL     1       1.563   7.600  20.508  0.00  0.00    +0.000 A 
ATOM     17  O   UNL     1       1.947   6.311  20.275  0.00  0.00    +0.000 OA
ENDBRANCH   8   9
BRANCH   1  21
ATOM     18  C   UNL     1       7.201   4.748  15.251  0.00  0.00    +0.000 C 
ATOM     19  N   UNL     1       6.715   5.016  16.575  0.00  0.00    +0.000 N 
ATOM     20  N   UNL     1       5.782   4.181  17.077  0.00  0.00    +0.000 NA
ATOM     21  C   UNL     1       5.592   4.581  18.343  0.00  0.00    +0.000 A 
ATOM     22  C   UNL     1       6.309   5.781  18.586  0.00  0.00    +0.000 A 
ATOM     23  C   UNL     1       7.056   6.017  17.449  0.00  0.00    +0.000 A 
BRANCH  23  24
ATOM     24  C   UNL     1       8.038   7.169  17.390  0.00  0.00    +0.000 C 
ATOM     25  C   UNL     1       7.487   8.574  17.457  0.00  0.00    +0.000 C 
ATOM     26  C   UNL     1       8.377   8.068  18.545  0.00  0.00    +0.000 C 
ENDBRANCH  23  24
ENDBRANCH   1  21
TORSDOF 3
ENDMDL
MODEL 5
REMARK VINA RESULT:      -7.7      2.808      7.266
REMARK  Name = 
REMARK  4 active torsions:
REMARK  status: ('A' for Active; 'I' for Inactive)
REMARK    1  A    between atoms: C_1  and  N_2
REMARK    2  A    between atoms: C_4  and  C_5
REMARK    3  A    between atoms: C_12  and  C_13
REMARK    4  A    between atoms: C_23  and  C_24
REMARK                            x       y       z     vdW  Elec       q    Type
REMARK                         _______ _______ _______ _____ _____    ______ ____
ROOT
ATOM      1  C   UNL     1       6.483   5.074  19.413  0.00  0.00    +0.000 C 
ATOM      2  O   UNL     1       7.206   5.073  20.410  0.00  0.00    +0.000 OA
ATOM      3  N   UNL     1       6.773   5.873  18.299  0.00  0.00    +0.000 N 
ATOM      4  C   UNL     1       8.065   6.561  18.231  0.00  0.00    +0.000 C 
ATOM      5  C   UNL     1       7.918   8.071  18.067  0.00  0.00    +0.000 C 
ATOM      6  C   UNL     1       6.917   8.462  16.983  0.00  0.00    +0.000 C 
ATOM      7  C   UNL     1       5.604   7.708  17.145  0.00  0.00    +0.000 C 
ATOM      8  C   UNL     1       5.805   6.189  17.230  0.00  0.00    +0.000 C 
ENDROOT
BRANCH   8   9
ATOM      9  C   UNL     1       6.208   5.593  15.906  0.00  0.00    +0.000 A 
ATOM     10  N   UNL     1       7.275   5.830  15.158  0.00  0.00    +0.000 NA
ATOM     11  C   UNL     1       7.079   5.057  14.047  0.00  0.00    +0.000 A 
ATOM     12  C   UNL     1       7.864   4.873  12.902  0.00  0.00    +0.000 A 
ATOM     13  C   UNL     1       7.384   4.012  11.904  0.00  0.00    +0.000 A 
ATOM     14  C   UNL     1       6.155   3.354  12.042  0.00  0.00    +0.000 A 
ATOM     15  C   UNL     1       5.361   3.529  13.181  0.00  0.00    +0.000 A 
ATOM     16  C   UNL     1       5.871   4.387  14.147  0.00  0.00    +0.000 A 
ATOM     17  O   UNL     1       5.298   4.731  15.337  0.00  0.00    +0.000 OA
ENDBRANCH   8   9
BRANCH   1  21
ATOM     18  C   UNL     1       3.540   1.300  18.735  0.00  0.00    +0.000 C 
ATOM     19  N   UNL     1       3.890   2.642  19.106  0.00  0.00    +0.000 N 
ATOM     20  N   UNL     1       5.202   2.952  19.156  0.00  0.00    +0.000 NA
ATOM     21  C   UNL     1       5.246   4.268  19.408  0.00  0.00    +0.000 A 
ATOM     22  C   UNL     1       3.940   4.757  19.669  0.00  0.00    +0.000 A 
ATOM     23  C   UNL     1       3.081   3.703  19.427  0.00  0.00    +0.000 A 
BRANCH  23  24
ATOM     24  C   UNL     1       1.580   3.890  19.501  0.00  0.00    +0.000 C 
ATOM     25  C   UNL     1       0.833   3.188  20.610  0.00  0.00    +0.000 C 
ATOM     26  C   UNL     1       0.865   4.681  20.560  0.00  0.00    +0.000 C 
ENDBRANCH  23  24
ENDBRANCH   1  21
TORSDOF 3
ENDMDL
MODEL 6
REMARK VINA RESULT:      -7.3      1.005      1.156
REMARK  Name = 
REMARK  4 active torsions:
REMARK  status: ('A' for Active; 'I' for Inactive)
REMARK    1  A    between atoms: C_1  and  N_2
REMARK    2  A    between atoms: C_4  and  C_5
REMARK    3  A    between atoms: C_12  and  C_13
REMARK    4  A    between atoms: C_23  and  C_24
REMARK                            x       y       z     vdW  Elec       q    Type
REMARK                         _______ _______ _______ _____ _____    ______ ____
ROOT
ATOM      1  C   UNL     1       4.733   3.888  19.112  0.00  0.00    +0.000 C 
ATOM      2  O   UNL     1       5.466   3.145  19.764  0.00  0.00    +0.000 OA
ATOM      3  N   UNL     1       3.468   4.267  19.582  0.00  0.00    +0.000 N 
ATOM      4  C   UNL     1       3.094   3.946  20.961  0.00  0.00    +0.000 C 
ATOM      5  C   UNL     1       1.813   3.121  21.045  0.00  0.00    +0.000 C 
ATOM      6  C   UNL     1       0.684   3.675  20.180  0.00  0.00    +0.000 C 
ATOM      7  C   UNL     1       1.165   3.964  18.764  0.00  0.00    +0.000 C 
ATOM      8  C   UNL     1       2.412   4.858  18.736  0.00  0.00    +0.000 C 
ENDROOT
BRANCH   8   9
ATOM      9  C   UNL     1       2.101   6.280  19.129  0.00  0.00    +0.000 A 
ATOM     10  N   UNL     1       1.715   6.774  20.296  0.00  0.00    +0.000 NA
ATOM     11  C   UNL     1       1.522   8.104  20.045  0.00  0.00    +0.000 A 
ATOM     12  C   UNL     1       1.120   9.151  20.884  0.00  0.00    +0.000 A 
ATOM     13  C   UNL     1       0.991  10.431  20.326  0.00  0.00    +0.000 A 
ATOM     14  C   UNL     1       1.254  10.662  18.969  0.00  0.00    +0.000 A 
ATOM     15  C   UNL     1       1.657   9.625  18.120  0.00  0.00    +0.000 A 
ATOM     16  C   UNL     1       1.774   8.372  18.710  0.00  0.00    +0.000 A 
ATOM     17  O   UNL     1       2.140   7.203  18.109  0.00  0.00    +0.000 OA
ENDBRANCH   8   9
BRANCH   1  21
ATOM     18  C   UNL     1       5.321   6.786  15.287  0.00  0.00    +0.000 C 
ATOM     19  N   UNL     1       5.428   5.568  16.041  0.00  0.00    +0.000 N 
ATOM     20  N   UNL     1       5.079   5.610  17.344  0.00  0.00    +0.000 NA
ATOM     21  C   UNL     1       5.160   4.342  17.773  0.00  0.00    +0.000 A 
ATOM     22  C   UNL     1       5.715   3.520  16.758  0.00  0.00    +0.000 A 
ATOM     23  C   UNL     1       5.838   4.322  15.641  0.00  0.00    +0.000 A 
BRANCH  23  24
ATOM     24  C   UNL     1       6.302   3.746  14.319  0.00  0.00    +0.000 C 
ATOM     25  C   UNL     1       5.388   3.887  13.126  0.00  0.00    +0.000 C 
ATOM     26  C   UNL     1       6.721   4.561  13.128  0.00  0.00    +0.000 C 
ENDBRANCH  23  24
ENDBRANCH   1  21
TORSDOF 3
ENDMDL
MODEL 7
REMARK VINA RESULT:      -7.2      7.455      9.872
REMARK  Name = 
REMARK  4 active torsions:
REMARK  status: ('A' for Active; 'I' for Inactive)
REMARK    1  A    between atoms: C_1  and  N_2
REMARK    2  A    between atoms: C_4  and  C_5
REMARK    3  A    between atoms: C_12  and  C_13
REMARK    4  A    between atoms: C_23  and  C_24
REMARK                            x       y       z     vdW  Elec       q    Type
REMARK                         _______ _______ _______ _____ _____    ______ ____
ROOT
ATOM      1  C   UNL     1      -0.438  13.546  22.725  0.00  0.00    +0.000 C 
ATOM      2  O   UNL     1      -0.773  13.838  23.873  0.00  0.00    +0.000 OA
ATOM      3  N   UNL     1      -0.695  12.278  22.187  0.00  0.00    +0.000 N 
ATOM      4  C   UNL     1      -1.558  11.352  22.923  0.00  0.00    +0.000 C 
ATOM      5  C   UNL     1      -0.872  10.023  23.226  0.00  0.00    +0.000 C 
ATOM      6  C   UNL     1      -0.164   9.424  22.013  0.00  0.00    +0.000 C 
ATOM      7  C   UNL     1       0.719  10.455  21.324  0.00  0.00    +0.000 C 
ATOM      8  C   UNL     1      -0.041  11.743  20.976  0.00  0.00    +0.000 C 
ENDROOT
BRANCH   8   9
ATOM      9  C   UNL     1      -1.018  11.539  19.847  0.00  0.00    +0.000 A 
ATOM     10  N   UNL     1      -2.220  12.062  19.659  0.00  0.00    +0.000 NA
ATOM     11  C   UNL     1      -2.663  11.472  18.509  0.00  0.00    +0.000 A 
ATOM     12  C   UNL     1      -3.859  11.623  17.796  0.00  0.00    +0.000 A 
ATOM     13  C   UNL     1      -4.038  10.854  16.636  0.00  0.00    +0.000 A 
ATOM     14  C   UNL     1      -3.054   9.959  16.199  0.00  0.00    +0.000 A 
ATOM     15  C   UNL     1      -1.854   9.798  16.902  0.00  0.00    +0.000 A 
ATOM     16  C   UNL     1      -1.713  10.577  18.044  0.00  0.00    +0.000 A 
ATOM     17  O   UNL     1      -0.653  10.607  18.902  0.00  0.00    +0.000 OA
ENDBRANCH   8   9
BRANCH   1  21
ATOM     18  C   UNL     1       3.191  16.382  21.255  0.00  0.00    +0.000 C 
ATOM     19  N   UNL     1       1.870  15.820  21.229  0.00  0.00    +0.000 N 
ATOM     20  N   UNL     1       1.621  14.776  22.045  0.00  0.00    +0.000 NA
ATOM     21  C   UNL     1       0.310  14.526  21.911  0.00  0.00    +0.000 A 
ATOM     22  C   UNL     1      -0.236  15.333  20.880  0.00  0.00    +0.000 A 
ATOM     23  C   UNL     1       0.776  16.186  20.486  0.00  0.00    +0.000 A 
BRANCH  23  24
ATOM     24  C   UNL     1       0.520  17.275  19.465  0.00  0.00    +0.000 C 
ATOM     25  C   UNL     1       1.235  17.183  18.138  0.00  0.00    +0.000 C 
ATOM     26  C   UNL     1      -0.255  17.092  18.191  0.00  0.00    +0.000 C 
ENDBRANCH  23  24
ENDBRANCH   1  21
TORSDOF 3
ENDMDL
MODEL 8
REMARK VINA RESULT:      -7.0      7.184      9.922
REMARK  Name = 
REMARK  4 active torsions:
REMARK  status: ('A' for Active; 'I' for Inactive)
REMARK    1  A    between atoms: C_1  and  N_2
REMARK    2  A    between atoms: C_4  and  C_5
REMARK    3  A    between atoms: C_12  and  C_13
REMARK    4  A    between atoms: C_23  and  C_24
REMARK                            x       y       z     vdW  Elec       q    Type
REMARK                         _______ _______ _______ _____ _____    ______ ____
ROOT
ATOM      1  C   UNL     1      -0.487  13.384  22.560  0.00  0.00    +0.000 C 
ATOM      2  O   UNL     1      -0.863  13.670  23.697  0.00  0.00    +0.000 OA
ATOM      3  N   UNL     1      -0.574  12.074  22.069  0.00  0.00    +0.000 N 
ATOM      4  C   UNL     1      -1.312  11.071  22.839  0.00  0.00    +0.000 C 
ATOM      5  C   UNL     1      -0.459   9.854  23.188  0.00  0.00    +0.000 C 
ATOM      6  C   UNL     1       0.326   9.309  21.998  0.00  0.00    +0.000 C 
ATOM      7  C   UNL     1       1.070  10.423  21.271  0.00  0.00    +0.000 C 
ATOM      8  C   UNL     1       0.150  11.586  20.878  0.00  0.00    +0.000 C 
ENDROOT
BRANCH   8   9
ATOM      9  C   UNL     1      -0.788  11.216  19.757  0.00  0.00    +0.000 A 
ATOM     10  N   UNL     1      -0.598  10.411  18.723  0.00  0.00    +0.000 NA
ATOM     11  C   UNL     1      -1.761  10.509  18.009  0.00  0.00    +0.000 A 
ATOM     12  C   UNL     1      -2.168   9.889  16.821  0.00  0.00    +0.000 A 
ATOM     13  C   UNL     1      -3.436  10.208  16.312  0.00  0.00    +0.000 A 
ATOM     14  C   UNL     1      -4.274  11.119  16.967  0.00  0.00    +0.000 A 
ATOM     15  C   UNL     1      -3.879  11.745  18.155  0.00  0.00    +0.000 A 
ATOM     16  C   UNL     1      -2.618  11.403  18.629  0.00  0.00    +0.000 A 
ATOM     17  O   UNL     1      -1.999  11.870  19.751  0.00  0.00    +0.000 OA
ENDBRANCH   8   9
BRANCH   1  21
ATOM     18  C   UNL     1       2.888  16.324  20.734  0.00  0.00    +0.000 C 
ATOM     19  N   UNL     1       1.573  15.766  20.882  0.00  0.00    +0.000 N 
ATOM     20  N   UNL     1       1.447  14.662  21.647  0.00  0.00    +0.000 NA
ATOM     21  C   UNL     1       0.130  14.423  21.712  0.00  0.00    +0.000 A 
ATOM     22  C   UNL     1      -0.568  15.307  20.848  0.00  0.00    +0.000 A 
ATOM     23  C   UNL     1       0.376  16.188  20.360  0.00  0.00    +0.000 A 
BRANCH  23  24
ATOM     24  C   UNL     1      -0.030  17.352  19.480  0.00  0.00    +0.000 C 
ATOM     25  C   UNL     1      -0.188  17.100  18.000  0.00  0.00    +0.000 C 
ATOM     26  C   UNL     1      -1.370  17.503  18.820  0.00  0.00    +0.000 C 
ENDBRANCH  23  24
ENDBRANCH   1  21
TORSDOF 3
ENDMDL
MODEL 9
REMARK VINA RESULT:      -6.8      1.136      1.573
REMARK  Name = 
REMARK  4 active torsions:
REMARK  status: ('A' for Active; 'I' for Inactive)
REMARK    1  A    between atoms: C_1  and  N_2
REMARK    2  A    between atoms: C_4  and  C_5
REMARK    3  A    between atoms: C_12  and  C_13
REMARK    4  A    between atoms: C_23  and  C_24
REMARK                            x       y       z     vdW  Elec       q    Type
REMARK                         _______ _______ _______ _____ _____    ______ ____
ROOT
ATOM      1  C   UNL     1       4.736   3.969  19.094  0.00  0.00    +0.000 C 
ATOM      2  O   UNL     1       5.488   3.272  19.775  0.00  0.00    +0.000 OA
ATOM      3  N   UNL     1       3.451   4.312  19.537  0.00  0.00    +0.000 N 
ATOM      4  C   UNL     1       3.070   4.012  20.919  0.00  0.00    +0.000 C 
ATOM      5  C   UNL     1       1.820   3.141  21.009  0.00  0.00    +0.000 C 
ATOM      6  C   UNL     1       0.684   3.629  20.114  0.00  0.00    +0.000 C 
ATOM      7  C   UNL     1       1.173   3.898  18.697  0.00  0.00    +0.000 C 
ATOM      8  C   UNL     1       2.386   4.839  18.662  0.00  0.00    +0.000 C 
ENDROOT
BRANCH   8   9
ATOM      9  C   UNL     1       2.015   6.257  19.012  0.00  0.00    +0.000 A 
ATOM     10  N   UNL     1       1.964   7.336  18.245  0.00  0.00    +0.000 NA
ATOM     11  C   UNL     1       1.633   8.342  19.110  0.00  0.00    +0.000 A 
ATOM     12  C   UNL     1       1.423   9.710  18.895  0.00  0.00    +0.000 A 
ATOM     13  C   UNL     1       1.106  10.511  20.002  0.00  0.00    +0.000 A 
ATOM     14  C   UNL     1       1.001   9.965  21.288  0.00  0.00    +0.000 A 
ATOM     15  C   UNL     1       1.208   8.599  21.516  0.00  0.00    +0.000 A 
ATOM     16  C   UNL     1       1.519   7.839  20.395  0.00  0.00    +0.000 A 
ATOM     17  O   UNL     1       1.771   6.499  20.345  0.00  0.00    +0.000 OA
ENDBRANCH   8   9
BRANCH   1  21
ATOM     18  C   UNL     1       5.309   6.805  15.221  0.00  0.00    +0.000 C 
ATOM     19  N   UNL     1       5.427   5.602  15.997  0.00  0.00    +0.000 N 
ATOM     20  N   UNL     1       5.071   5.663  17.297  0.00  0.00    +0.000 NA
ATOM     21  C   UNL     1       5.164   4.404  17.749  0.00  0.00    +0.000 A 
ATOM     22  C   UNL     1       5.733   3.571  16.752  0.00  0.00    +0.000 A 
ATOM     23  C   UNL     1       5.853   4.354  15.621  0.00  0.00    +0.000 A 
BRANCH  23  24
ATOM     24  C   UNL     1       6.329   3.760  14.312  0.00  0.00    +0.000 C 
ATOM     25  C   UNL     1       5.422   3.877  13.110  0.00  0.00    +0.000 C 
ATOM     26  C   UNL     1       6.752   4.558  13.111  0.00  0.00    +0.000 C 
ENDBRANCH  23  24
ENDBRANCH   1  21
TORSDOF 3
ENDMDL
