MODEL 1
REMARK VINA RESULT:      -7.6      0.000      0.000
REMARK  Name = 
REMARK  9 active torsions:
REMARK  status: ('A' for Active; 'I' for Inactive)
REMARK    1  A    between atoms: C_1  and  O_2
REMARK    2  A    between atoms: O_2  and  C_3
REMARK    3  A    between atoms: C_3  and  C_4
REMARK    4  A    between atoms: C_4  and  N_5
REMARK    5  A    between atoms: C_8  and  C_9
REMARK    6  A    between atoms: C_9  and  C_10
REMARK    7  A    between atoms: C_10  and  C_11
REMARK    8  A    between atoms: N_22  and  C_23
REMARK    9  A    between atoms: N_22  and  C_24
REMARK                            x       y       z     vdW  Elec       q    Type
REMARK                         _______ _______ _______ _____ _____    ______ ____
ROOT
ATOM      1  N   UNL     1       2.870   5.189  19.418  0.00  0.00    +0.000 N 
ATOM      2  C   UNL     1       3.554   4.328  18.589  0.00  0.00    +0.000 A 
ATOM      3  O   UNL     1       3.630   3.110  18.782  0.00  0.00    +0.000 OA
ATOM      4  C   UNL     1       4.276   4.947  17.392  0.00  0.00    +0.000 A 
ATOM      5  N   UNL     1       4.137   6.202  17.083  0.00  0.00    +0.000 NA
ATOM      6  C   UNL     1       3.295   6.986  17.892  0.00  0.00    +0.000 A 
ATOM      7  C   UNL     1       3.032   8.296  17.582  0.00  0.00    +0.000 A 
ATOM      8  N   UNL     1       2.233   9.102  18.314  0.00  0.00    +0.000 NA
ATOM      9  C   UNL     1       1.675   8.593  19.424  0.00  0.00    +0.000 A 
ATOM     10  N   UNL     1       0.834   9.384  20.172  0.00  0.00    +0.000 N 
ATOM     11  C   UNL     1       0.552  10.749  19.781  0.00  0.00    +0.000 C 
ATOM     12  C   UNL     1       0.253   8.896  21.405  0.00  0.00    +0.000 C 
ATOM     13  N   UNL     1       1.894   7.331  19.817  0.00  0.00    +0.000 NA
ATOM     14  C   UNL     1       2.686   6.546  19.053  0.00  0.00    +0.000 A 
ENDROOT
BRANCH   1  15
ATOM     15  C   UNL     1       2.420   4.690  20.711  0.00  0.00    +0.000 C 
BRANCH  15  16
ATOM     16  C   UNL     1       1.004   4.101  20.594  0.00  0.00    +0.000 C 
BRANCH  16  18
ATOM     17  C   UNL     1       2.052   2.375  21.786  0.00  0.00    +0.000 C 
ATOM     18  O   UNL     1       1.011   2.699  20.871  0.00  0.00    +0.000 OA
ENDBRANCH  16  18
ENDBRANCH  15  16
ENDBRANCH   1  15
BRANCH   4  19
ATOM     19  C   UNL     1       5.245   4.100  16.578  0.00  0.00    +0.000 C 
BRANCH  19  20
ATOM     20  C   UNL     1       6.465   4.834  16.019  0.00  0.00    +0.000 C 
BRANCH  20  21
ATOM     21  C   UNL     1       6.705   4.607  14.543  0.00  0.00    +0.000 A 
ATOM     22  C   UNL     1       7.626   5.376  13.819  0.00  0.00    +0.000 A 
ATOM     23  C   UNL     1       7.795   5.175  12.447  0.00  0.00    +0.000 A 
ATOM     24  C   UNL     1       7.045   4.204  11.786  0.00  0.00    +0.000 A 
ATOM     25  C   UNL     1       6.127   3.431  12.493  0.00  0.00    +0.000 A 
ATOM     26  C   UNL     1       5.962   3.629  13.864  0.00  0.00    +0.000 A 
ENDBRANCH  20  21
ENDBRANCH  19  20
ENDBRANCH   4  19
TORSDOF 6
ENDMDL
MODEL 2
REMARK VINA RESULT:      -7.5      4.512      7.072
REMARK  Name = 
REMARK  9 active torsions:
REMARK  status: ('A' for Active; 'I' for Inactive)
REMARK    1  A    between atoms: C_1  and  O_2
REMARK    2  A    between atoms: O_2  and  C_3
REMARK    3  A    between atoms: C_3  and  C_4
REMARK    4  A    between atoms: C_4  and  N_5
REMARK    5  A    between atoms: C_8  and  C_9
REMARK    6  A    between atoms: C_9  and  C_10
REMARK    7  A    between atoms: C_10  and  C_11
REMARK    8  A    between atoms: N_22  and  C_23
REMARK    9  A    between atoms: N_22  and  C_24
REMARK                            x       y       z     vdW  Elec       q    Type
REMARK                         _______ _______ _______ _____ _____    ______ ____
ROOT
ATOM      1  N   UNL     1      -0.226  10.457  19.378  0.00  0.00    +0.000 N 
ATOM      2  C   UNL     1       0.749   9.524  19.106  0.00  0.00    +0.000 A 
ATOM      3  O   UNL     1       1.222   9.337  17.981  0.00  0.00    +0.000 OA
ATOM      4  C   UNL     1       1.228   8.663  20.276  0.00  0.00    +0.000 A 
ATOM      5  N   UNL     1       0.844   8.892  21.498  0.00  0.00    +0.000 NA
ATOM      6  C   UNL     1      -0.038   9.967  21.715  0.00  0.00    +0.000 A 
ATOM      7  C   UNL     1      -0.422  10.323  22.983  0.00  0.00    +0.000 A 
ATOM      8  N   UNL     1      -1.262  11.342  23.262  0.00  0.00    +0.000 NA
ATOM      9  C   UNL     1      -1.767  12.039  22.231  0.00  0.00    +0.000 A 
ATOM     10  N   UNL     1      -2.603  13.101  22.488  0.00  0.00    +0.000 N 
ATOM     11  C   UNL     1      -2.946  13.467  23.846  0.00  0.00    +0.000 C 
ATOM     12  C   UNL     1      -3.213  13.847  21.408  0.00  0.00    +0.000 C 
ATOM     13  N   UNL     1      -1.466  11.748  20.958  0.00  0.00    +0.000 NA
ATOM     14  C   UNL     1      -0.609  10.732  20.714  0.00  0.00    +0.000 A 
ENDROOT
BRANCH   1  15
ATOM     15  C   UNL     1      -0.910  11.086  18.256  0.00  0.00    +0.000 C 
BRANCH  15  16
ATOM     16  C   UNL     1      -2.149  10.267  17.856  0.00  0.00    +0.000 C 
BRANCH  16  18
ATOM     17  C   UNL     1      -2.799  10.827  15.674  0.00  0.00    +0.000 C 
ATOM     18  O   UNL     1      -2.089   9.892  16.479  0.00  0.00    +0.000 OA
ENDBRANCH  16  18
ENDBRANCH  15  16
ENDBRANCH   1  15
BRANCH   4  19
ATOM     19  C   UNL     1       2.118   7.457  20.008  0.00  0.00    +0.000 C 
BRANCH  19  20
ATOM     20  C   UNL     1       1.750   6.176  20.759  0.00  0.00    +0.000 C 
BRANCH  20  21
ATOM     21  C   UNL     1       1.712   4.937  19.892  0.00  0.00    +0.000 A 
ATOM     22  C   UNL     1       2.067   4.975  18.536  0.00  0.00    +0.000 A 
ATOM     23  C   UNL     1       1.979   3.825  17.748  0.00  0.00    +0.000 A 
ATOM     24  C   UNL     1       1.536   2.628  18.306  0.00  0.00    +0.000 A 
ATOM     25  C   UNL     1       1.182   2.575  19.652  0.00  0.00    +0.000 A 
ATOM     26  C   UNL     1       1.274   3.722  20.441  0.00  0.00    +0.000 A 
ENDBRANCH  20  21
ENDBRANCH  19  20
ENDBRANCH   4  19
TORSDOF 6
ENDMDL
MODEL 3
REMARK VINA RESULT:      -7.4      1.557      2.845
REMARK  Name = 
REMARK  9 active torsions:
REMARK  status: ('A' for Active; 'I' for Inactive)
REMARK    1  A    between atoms: C_1  and  O_2
REMARK    2  A    between atoms: O_2  and  C_3
REMARK    3  A    between atoms: C_3  and  C_4
REMARK    4  A    between atoms: C_4  and  N_5
REMARK    5  A    between atoms: C_8  and  C_9
REMARK    6  A    between atoms: C_9  and  C_10
REMARK    7  A    between atoms: C_10  and  C_11
REMARK    8  A    between atoms: N_22  and  C_23
REMARK    9  A    between atoms: N_22  and  C_24
REMARK                            x       y       z     vdW  Elec       q    Type
REMARK                         _______ _______ _______ _____ _____    ______ ____
ROOT
ATOM      1  N   UNL     1       2.770   5.325  19.389  0.00  0.00    +0.000 N 
ATOM      2  C   UNL     1       3.395   4.505  18.476  0.00  0.00    +0.000 A 
ATOM      3  O   UNL     1       3.500   3.283  18.614  0.00  0.00    +0.000 OA
ATOM      4  C   UNL     1       4.015   5.180  17.252  0.00  0.00    +0.000 A 
ATOM      5  N   UNL     1       3.839   6.445  17.004  0.00  0.00    +0.000 NA
ATOM      6  C   UNL     1       3.054   7.185  17.907  0.00  0.00    +0.000 A 
ATOM      7  C   UNL     1       2.754   8.502  17.670  0.00  0.00    +0.000 A 
ATOM      8  N   UNL     1       2.006   9.269  18.493  0.00  0.00    +0.000 NA
ATOM      9  C   UNL     1       1.543   8.710  19.622  0.00  0.00    +0.000 A 
ATOM     10  N   UNL     1       0.755   9.459  20.464  0.00  0.00    +0.000 N 
ATOM     11  C   UNL     1       0.428  10.835  20.151  0.00  0.00    +0.000 C 
ATOM     12  C   UNL     1       0.277   8.916  21.718  0.00  0.00    +0.000 C 
ATOM     13  N   UNL     1       1.805   7.436  19.947  0.00  0.00    +0.000 NA
ATOM     14  C   UNL     1       2.543   6.692  19.094  0.00  0.00    +0.000 A 
ENDROOT
BRANCH   1  15
ATOM     15  C   UNL     1       2.427   4.771  20.692  0.00  0.00    +0.000 C 
BRANCH  15  16
ATOM     16  C   UNL     1       1.021   4.148  20.657  0.00  0.00    +0.000 C 
BRANCH  16  18
ATOM     17  C   UNL     1       2.178   2.419  21.740  0.00  0.00    +0.000 C 
ATOM     18  O   UNL     1       1.083   2.739  20.889  0.00  0.00    +0.000 OA
ENDBRANCH  16  18
ENDBRANCH  15  16
ENDBRANCH   1  15
BRANCH   4  19
ATOM     19  C   UNL     1       4.926   4.379  16.332  0.00  0.00    +0.000 C 
BRANCH  19  20
ATOM     20  C   UNL     1       6.198   5.091  15.867  0.00  0.00    +0.000 C 
BRANCH  20  21
ATOM     21  C   UNL     1       6.976   5.762  16.977  0.00  0.00    +0.000 A 
ATOM     22  C   UNL     1       7.390   5.059  18.117  0.00  0.00    +0.000 A 
ATOM     23  C   UNL     1       8.068   5.715  19.147  0.00  0.00    +0.000 A 
ATOM     24  C   UNL     1       8.339   7.078  19.048  0.00  0.00    +0.000 A 
ATOM     25  C   UNL     1       7.935   7.789  17.920  0.00  0.00    +0.000 A 
ATOM     26  C   UNL     1       7.263   7.133  16.889  0.00  0.00    +0.000 A 
ENDBRANCH  20  21
ENDBRANCH  19  20
ENDBRANCH   4  19
TORSDOF 6
ENDMDL
MODEL 4
REMARK VINA RESULT:      -7.1      4.432      6.952
REMARK  Name = 
REMARK  9 active torsions:
REMARK  status: ('A' for Active; 'I' for Inactive)
REMARK    1  A    between atoms: C_1  and  O_2
REMARK    2  A    between atoms: O_2  and  C_3
REMARK    3  A    between atoms: C_3  and  C_4
REMARK    4  A    between atoms: C_4  and  N_5
REMARK    5  A    between atoms: C_8  and  C_9
REMARK    6  A    between atoms: C_9  and  C_10
REMARK    7  A    between atoms: C_10  and  C_11
REMARK    8  A    between atoms: N_22  and  C_23
REMARK    9  A    between atoms: N_22  and  C_24
REMARK                            x       y       z     vdW  Elec       q    Type
REMARK                         _______ _______ _______ _____ _____    ______ ____
ROOT
ATOM      1  N   UNL     1       6.092   4.748  16.527  0.00  0.00    +0.000 N 
ATOM      2  C   UNL     1       6.995   5.781  16.410  0.00  0.00    +0.000 A 
ATOM      3  O   UNL     1       7.719   5.947  15.424  0.00  0.00    +0.000 OA
ATOM      4  C   UNL     1       7.110   6.737  17.598  0.00  0.00    +0.000 A 
ATOM      5  N   UNL     1       6.297   6.671  18.612  0.00  0.00    +0.000 NA
ATOM      6  C   UNL     1       5.298   5.682  18.585  0.00  0.00    +0.000 A 
ATOM      7  C   UNL     1       4.352   5.603  19.575  0.00  0.00    +0.000 A 
ATOM      8  N   UNL     1       3.366   4.681  19.610  0.00  0.00    +0.000 NA
ATOM      9  C   UNL     1       3.320   3.774  18.621  0.00  0.00    +0.000 A 
ATOM     10  N   UNL     1       2.309   2.841  18.616  0.00  0.00    +0.000 N 
ATOM     11  C   UNL     1       1.306   2.825  19.661  0.00  0.00    +0.000 C 
ATOM     12  C   UNL     1       2.250   1.812  17.601  0.00  0.00    +0.000 C 
ATOM     13  N   UNL     1       4.216   3.761  17.624  0.00  0.00    +0.000 NA
ATOM     14  C   UNL     1       5.180   4.707  17.611  0.00  0.00    +0.000 A 
ENDROOT
BRANCH   1  15
ATOM     15  C   UNL     1       6.157   3.662  15.559  0.00  0.00    +0.000 C 
BRANCH  15  16
ATOM     16  C   UNL     1       5.576   4.112  14.208  0.00  0.00    +0.000 C 
BRANCH  16  18
ATOM     17  C   UNL     1       5.570   3.141  12.073  0.00  0.00    +0.000 C 
ATOM     18  O   UNL     1       6.384   3.647  13.125  0.00  0.00    +0.000 OA
ENDBRANCH  16  18
ENDBRANCH  15  16
ENDBRANCH   1  15
BRANCH   4  19
ATOM     19  C   UNL     1       8.248   7.747  17.644  0.00  0.00    +0.000 C 
BRANCH  19  20
ATOM     20  C   UNL     1       7.834   9.215  17.755  0.00  0.00    +0.000 C 
BRANCH  20  21
ATOM     21  C   UNL     1       8.882  10.111  18.377  0.00  0.00    +0.000 A 
ATOM     22  C   UNL     1       9.750  10.884  17.592  0.00  0.00    +0.000 A 
ATOM     23  C   UNL     1      10.739  11.668  18.192  0.00  0.00    +0.000 A 
ATOM     24  C   UNL     1      10.869  11.688  19.578  0.00  0.00    +0.000 A 
ATOM     25  C   UNL     1      10.012  10.927  20.371  0.00  0.00    +0.000 A 
ATOM     26  C   UNL     1       9.022  10.147  19.772  0.00  0.00    +0.000 A 
ENDBRANCH  20  21
ENDBRANCH  19  20
ENDBRANCH   4  19
TORSDOF 6
ENDMDL
MODEL 5
REMARK VINA RESULT:      -7.0      4.421      6.778
REMARK  Name = 
REMARK  9 active torsions:
REMARK  status: ('A' for Active; 'I' for Inactive)
REMARK    1  A    between atoms: C_1  and  O_2
REMARK    2  A    between atoms: O_2  and  C_3
REMARK    3  A    between atoms: C_3  and  C_4
REMARK    4  A    between atoms: C_4  and  N_5
REMARK    5  A    between atoms: C_8  and  C_9
REMARK    6  A    between atoms: C_9  and  C_10
REMARK    7  A    between atoms: C_10  and  C_11
REMARK    8  A    between atoms: N_22  and  C_23
REMARK    9  A    between atoms: N_22  and  C_24
REMARK                            x       y       z     vdW  Elec       q    Type
REMARK                         _______ _______ _______ _____ _____    ______ ____
ROOT
ATOM      1  N   UNL     1       0.418  10.119  18.989  0.00  0.00    +0.000 N 
ATOM      2  C   UNL     1       1.428   9.259  18.622  0.00  0.00    +0.000 A 
ATOM      3  O   UNL     1       1.961   9.267  17.508  0.00  0.00    +0.000 OA
ATOM      4  C   UNL     1       1.869   8.226  19.659  0.00  0.00    +0.000 A 
ATOM      5  N   UNL     1       1.419   8.246  20.880  0.00  0.00    +0.000 NA
ATOM      6  C   UNL     1       0.501   9.256  21.222  0.00  0.00    +0.000 A 
ATOM      7  C   UNL     1       0.045   9.393  22.508  0.00  0.00    +0.000 A 
ATOM      8  N   UNL     1      -0.834  10.339  22.904  0.00  0.00    +0.000 NA
ATOM      9  C   UNL     1      -1.303  11.187  21.975  0.00  0.00    +0.000 A 
ATOM     10  N   UNL     1      -2.177  12.179  22.356  0.00  0.00    +0.000 N 
ATOM     11  C   UNL     1      -2.596  12.312  23.736  0.00  0.00    +0.000 C 
ATOM     12  C   UNL     1      -2.750  13.082  21.381  0.00  0.00    +0.000 C 
ATOM     13  N   UNL     1      -0.931  11.113  20.689  0.00  0.00    +0.000 NA
ATOM     14  C   UNL     1      -0.038  10.165  20.330  0.00  0.00    +0.000 A 
ENDROOT
BRANCH   1  15
ATOM     15  C   UNL     1      -0.225  10.913  17.950  0.00  0.00    +0.000 C 
BRANCH  15  16
ATOM     16  C   UNL     1      -1.535  10.246  17.499  0.00  0.00    +0.000 C 
BRANCH  16  18
ATOM     17  C   UNL     1      -3.744  10.632  16.814  0.00  0.00    +0.000 C 
ATOM     18  O   UNL     1      -2.597  11.200  17.436  0.00  0.00    +0.000 OA
ENDBRANCH  16  18
ENDBRANCH  15  16
ENDBRANCH   1  15
BRANCH   4  19
ATOM     19  C   UNL     1       2.801   7.095  19.247  0.00  0.00    +0.000 C 
BRANCH  19  20
ATOM     20  C   UNL     1       2.233   6.097  18.237  0.00  0.00    +0.000 C 
BRANCH  20  21
ATOM     21  C   UNL     1       1.834   4.766  18.836  0.00  0.00    +0.000 A 
ATOM     22  C   UNL     1       1.542   4.629  20.200  0.00  0.00    +0.000 A 
ATOM     23  C   UNL     1       1.220   3.380  20.735  0.00  0.00    +0.000 A 
ATOM     24  C   UNL     1       1.187   2.256  19.913  0.00  0.00    +0.000 A 
ATOM     25  C   UNL     1       1.473   2.377  18.554  0.00  0.00    +0.000 A 
ATOM     26  C   UNL     1       1.790   3.626  18.019  0.00  0.00    +0.000 A 
ENDBRANCH  20  21
ENDBRANCH  19  20
ENDBRANCH   4  19
TORSDOF 6
ENDMDL
MODEL 6
REMARK VINA RESULT:      -6.9      4.312      7.256
REMARK  Name = 
REMARK  9 active torsions:
REMARK  status: ('A' for Active; 'I' for Inactive)
REMARK    1  A    between atoms: C_1  and  O_2
REMARK    2  A    between atoms: O_2  and  C_3
REMARK    3  A    between atoms: C_3  and  C_4
REMARK    4  A    between atoms: C_4  and  N_5
REMARK    5  A    between atoms: C_8  and  C_9
REMARK    6  A    between atoms: C_9  and  C_10
REMARK    7  A    between atoms: C_10  and  C_11
REMARK    8  A    between atoms: N_22  and  C_23
REMARK    9  A    between atoms: N_22  and  C_24
REMARK                            x       y       z     vdW  Elec       q    Type
REMARK                         _______ _______ _______ _____ _____    ______ ____
ROOT
ATOM      1  N   UNL     1       0.221  10.434  19.537  0.00  0.00    +0.000 N 
ATOM      2  C   UNL     1       1.141   9.444  19.276  0.00  0.00    +0.000 A 
ATOM      3  O   UNL     1       1.745   9.336  18.204  0.00  0.00    +0.000 OA
ATOM      4  C   UNL     1       1.381   8.415  20.381  0.00  0.00    +0.000 A 
ATOM      5  N   UNL     1       0.855   8.544  21.564  0.00  0.00    +0.000 NA
ATOM      6  C   UNL     1       0.048   9.671  21.800  0.00  0.00    +0.000 A 
ATOM      7  C   UNL     1      -0.473   9.922  23.044  0.00  0.00    +0.000 A 
ATOM      8  N   UNL     1      -1.254  10.983  23.340  0.00  0.00    +0.000 NA
ATOM      9  C   UNL     1      -1.552  11.837  22.348  0.00  0.00    +0.000 A 
ATOM     10  N   UNL     1      -2.321  12.943  22.628  0.00  0.00    +0.000 N 
ATOM     11  C   UNL     1      -2.813  13.189  23.967  0.00  0.00    +0.000 C 
ATOM     12  C   UNL     1      -2.713  13.863  21.580  0.00  0.00    +0.000 C 
ATOM     13  N   UNL     1      -1.106  11.661  21.096  0.00  0.00    +0.000 NA
ATOM     14  C   UNL     1      -0.315  10.597  20.839  0.00  0.00    +0.000 A 
ENDROOT
BRANCH   1  15
ATOM     15  C   UNL     1      -0.247  11.251  18.425  0.00  0.00    +0.000 C 
BRANCH  15  16
ATOM     16  C   UNL     1       0.418  12.637  18.459  0.00  0.00    +0.000 C 
BRANCH  16  18
ATOM     17  C   UNL     1      -0.099  14.861  18.992  0.00  0.00    +0.000 C 
ATOM     18  O   UNL     1      -0.559  13.674  18.355  0.00  0.00    +0.000 OA
ENDBRANCH  16  18
ENDBRANCH  15  16
ENDBRANCH   1  15
BRANCH   4  19
ATOM     19  C   UNL     1       2.192   7.162  20.080  0.00  0.00    +0.000 C 
BRANCH  19  20
ATOM     20  C   UNL     1       1.676   5.865  20.706  0.00  0.00    +0.000 C 
BRANCH  20  21
ATOM     21  C   UNL     1       1.696   4.674  19.773  0.00  0.00    +0.000 A 
ATOM     22  C   UNL     1       1.086   3.460  20.116  0.00  0.00    +0.000 A 
ATOM     23  C   UNL     1       1.158   2.362  19.256  0.00  0.00    +0.000 A 
ATOM     24  C   UNL     1       1.839   2.467  18.045  0.00  0.00    +0.000 A 
ATOM     25  C   UNL     1       2.449   3.669  17.690  0.00  0.00    +0.000 A 
ATOM     26  C   UNL     1       2.373   4.767  18.548  0.00  0.00    +0.000 A 
ENDBRANCH  20  21
ENDBRANCH  19  20
ENDBRANCH   4  19
TORSDOF 6
ENDMDL
MODEL 7
REMARK VINA RESULT:      -6.9      4.253      6.949
REMARK  Name = 
REMARK  9 active torsions:
REMARK  status: ('A' for Active; 'I' for Inactive)
REMARK    1  A    between atoms: C_1  and  O_2
REMARK    2  A    between atoms: O_2  and  C_3
REMARK    3  A    between atoms: C_3  and  C_4
REMARK    4  A    between atoms: C_4  and  N_5
REMARK    5  A    between atoms: C_8  and  C_9
REMARK    6  A    between atoms: C_9  and  C_10
REMARK    7  A    between atoms: C_10  and  C_11
REMARK    8  A    between atoms: N_22  and  C_23
REMARK    9  A    between atoms: N_22  and  C_24
REMARK                            x       y       z     vdW  Elec       q    Type
REMARK                         _______ _______ _______ _____ _____    ______ ____
ROOT
ATOM      1  N   UNL     1      -0.854  11.417  19.654  0.00  0.00    +0.000 N 
ATOM      2  C   UNL     1       0.283  10.659  19.487  0.00  0.00    +0.000 A 
ATOM      3  O   UNL     1       1.238  10.678  20.270  0.00  0.00    +0.000 OA
ATOM      4  C   UNL     1       0.353   9.784  18.236  0.00  0.00    +0.000 A 
ATOM      5  N   UNL     1      -0.665   9.644  17.439  0.00  0.00    +0.000 NA
ATOM      6  C   UNL     1      -1.848  10.332  17.764  0.00  0.00    +0.000 A 
ATOM      7  C   UNL     1      -2.990  10.170  17.021  0.00  0.00    +0.000 A 
ATOM      8  N   UNL     1      -4.158  10.798  17.278  0.00  0.00    +0.000 NA
ATOM      9  C   UNL     1      -4.197  11.648  18.316  0.00  0.00    +0.000 A 
ATOM     10  N   UNL     1      -5.381  12.279  18.618  0.00  0.00    +0.000 N 
ATOM     11  C   UNL     1      -6.573  12.042  17.831  0.00  0.00    +0.000 C 
ATOM     12  C   UNL     1      -5.459  13.243  19.696  0.00  0.00    +0.000 C 
ATOM     13  N   UNL     1      -3.125  11.886  19.084  0.00  0.00    +0.000 NA
ATOM     14  C   UNL     1      -1.977  11.229  18.809  0.00  0.00    +0.000 A 
ENDROOT
BRANCH   1  15
ATOM     15  C   UNL     1      -0.840  12.469  20.661  0.00  0.00    +0.000 C 
BRANCH  15  16
ATOM     16  C   UNL     1      -1.499  11.976  21.961  0.00  0.00    +0.000 C 
BRANCH  16  18
ATOM     17  C   UNL     1      -0.643  10.157  23.170  0.00  0.00    +0.000 C 
ATOM     18  O   UNL     1      -0.511  11.549  22.902  0.00  0.00    +0.000 OA
ENDBRANCH  16  18
ENDBRANCH  15  16
ENDBRANCH   1  15
BRANCH   4  19
ATOM     19  C   UNL     1       1.667   9.112  17.859  0.00  0.00    +0.000 C 
BRANCH  19  20
ATOM     20  C   UNL     1       2.165   8.033  18.823  0.00  0.00    +0.000 C 
BRANCH  20  21
ATOM     21  C   UNL     1       2.858   6.870  18.148  0.00  0.00    +0.000 A 
ATOM     22  C   UNL     1       2.328   5.572  18.189  0.00  0.00    +0.000 A 
ATOM     23  C   UNL     1       3.011   4.508  17.596  0.00  0.00    +0.000 A 
ATOM     24  C   UNL     1       4.229   4.730  16.958  0.00  0.00    +0.000 A 
ATOM     25  C   UNL     1       4.767   6.014  16.907  0.00  0.00    +0.000 A 
ATOM     26  C   UNL     1       4.082   7.078  17.495  0.00  0.00    +0.000 A 
ENDBRANCH  20  21
ENDBRANCH  19  20
ENDBRANCH   4  19
TORSDOF 6
ENDMDL
MODEL 8
REMARK VINA RESULT:      -6.9      0.748      1.267
REMARK  Name = 
REMARK  9 active torsions:
REMARK  status: ('A' for Active; 'I' for Inactive)
REMARK    1  A    between atoms: C_1  and  O_2
REMARK    2  A    between atoms: O_2  and  C_3
REMARK    3  A    between atoms: C_3  and  C_4
REMARK    4  A    between atoms: C_4  and  N_5
REMARK    5  A    between atoms: C_8  and  C_9
REMARK    6  A    between atoms: C_9  and  C_10
REMARK    7  A    between atoms: C_10  and  C_11
REMARK    8  A    between atoms: N_22  and  C_23
REMARK    9  A    between atoms: N_22  and  C_24
REMARK                            x       y       z     vdW  Elec       q    Type
REMARK                         _______ _______ _______ _____ _____    ______ ____
ROOT
ATOM      1  N   UNL     1       3.213   5.352  19.427  0.00  0.00    +0.000 N 
ATOM      2  C   UNL     1       4.052   4.610  18.626  0.00  0.00    +0.000 A 
ATOM      3  O   UNL     1       4.307   3.418  18.822  0.00  0.00    +0.000 OA
ATOM      4  C   UNL     1       4.717   5.339  17.458  0.00  0.00    +0.000 A 
ATOM      5  N   UNL     1       4.399   6.561  17.143  0.00  0.00    +0.000 NA
ATOM      6  C   UNL     1       3.416   7.201  17.918  0.00  0.00    +0.000 A 
ATOM      7  C   UNL     1       2.967   8.458  17.598  0.00  0.00    +0.000 A 
ATOM      8  N   UNL     1       2.027   9.128  18.298  0.00  0.00    +0.000 NA
ATOM      9  C   UNL     1       1.512   8.533  19.385  0.00  0.00    +0.000 A 
ATOM     10  N   UNL     1       0.531   9.181  20.100  0.00  0.00    +0.000 N 
ATOM     11  C   UNL     1       0.058  10.489  19.698  0.00  0.00    +0.000 C 
ATOM     12  C   UNL     1      -0.016   8.603  21.309  0.00  0.00    +0.000 C 
ATOM     13  N   UNL     1       1.906   7.316  19.787  0.00  0.00    +0.000 NA
ATOM     14  C   UNL     1       2.837   6.667  19.055  0.00  0.00    +0.000 A 
ENDROOT
BRANCH   1  15
ATOM     15  C   UNL     1       2.795   4.783  20.701  0.00  0.00    +0.000 C 
BRANCH  15  16
ATOM     16  C   UNL     1       1.344   4.279  20.613  0.00  0.00    +0.000 C 
BRANCH  16  18
ATOM     17  C   UNL     1       0.757   2.838  18.859  0.00  0.00    +0.000 C 
ATOM     18  O   UNL     1       1.303   2.921  20.171  0.00  0.00    +0.000 OA
ENDBRANCH  16  18
ENDBRANCH  15  16
ENDBRANCH   1  15
BRANCH   4  19
ATOM     19  C   UNL     1       5.835   4.656  16.682  0.00  0.00    +0.000 C 
BRANCH  19  20
ATOM     20  C   UNL     1       6.386   5.431  15.484  0.00  0.00    +0.000 C 
BRANCH  20  21
ATOM     21  C   UNL     1       6.241   4.713  14.160  0.00  0.00    +0.000 A 
ATOM     22  C   UNL     1       5.039   4.095  13.784  0.00  0.00    +0.000 A 
ATOM     23  C   UNL     1       4.947   3.401  12.576  0.00  0.00    +0.000 A 
ATOM     24  C   UNL     1       6.052   3.317  11.732  0.00  0.00    +0.000 A 
ATOM     25  C   UNL     1       7.252   3.928  12.091  0.00  0.00    +0.000 A 
ATOM     26  C   UNL     1       7.343   4.626  13.296  0.00  0.00    +0.000 A 
ENDBRANCH  20  21
ENDBRANCH  19  20
ENDBRANCH   4  19
TORSDOF 6
ENDMDL
MODEL 9
REMARK VINA RESULT:      -6.7      4.289      7.003
REMARK  Name = 
REMARK  9 active torsions:
REMARK  status: ('A' for Active; 'I' for Inactive)
REMARK    1  A    between atoms: C_1  and  O_2
REMARK    2  A    between atoms: O_2  and  C_3
REMARK    3  A    between atoms: C_3  and  C_4
REMARK    4  A    between atoms: C_4  and  N_5
REMARK    5  A    between atoms: C_8  and  C_9
REMARK    6  A    between atoms: C_9  and  C_10
REMARK    7  A    between atoms: C_10  and  C_11
REMARK    8  A    between atoms: N_22  and  C_23
REMARK    9  A    between atoms: N_22  and  C_24
REMARK                            x       y       z     vdW  Elec       q    Type
REMARK                         _______ _______ _______ _____ _____    ______ ____
ROOT
ATOM      1  N   UNL     1       6.028   4.752  16.633  0.00  0.00    +0.000 N 
ATOM      2  C   UNL     1       6.934   5.786  16.564  0.00  0.00    +0.000 A 
ATOM      3  O   UNL     1       7.679   5.978  15.598  0.00  0.00    +0.000 OA
ATOM      4  C   UNL     1       7.025   6.709  17.780  0.00  0.00    +0.000 A 
ATOM      5  N   UNL     1       6.191   6.617  18.773  0.00  0.00    +0.000 NA
ATOM      6  C   UNL     1       5.191   5.630  18.698  0.00  0.00    +0.000 A 
ATOM      7  C   UNL     1       4.224   5.525  19.666  0.00  0.00    +0.000 A 
ATOM      8  N   UNL     1       3.237   4.604  19.655  0.00  0.00    +0.000 NA
ATOM      9  C   UNL     1       3.212   3.724  18.641  0.00  0.00    +0.000 A 
ATOM     10  N   UNL     1       2.201   2.793  18.589  0.00  0.00    +0.000 N 
ATOM     11  C   UNL     1       1.176   2.749  19.611  0.00  0.00    +0.000 C 
ATOM     12  C   UNL     1       2.162   1.792  17.544  0.00  0.00    +0.000 C 
ATOM     13  N   UNL     1       4.128   3.737  17.663  0.00  0.00    +0.000 NA
ATOM     14  C   UNL     1       5.093   4.682  17.696  0.00  0.00    +0.000 A 
ENDROOT
BRANCH   1  15
ATOM     15  C   UNL     1       6.113   3.692  15.637  0.00  0.00    +0.000 C 
BRANCH  15  16
ATOM     16  C   UNL     1       5.748   4.235  14.245  0.00  0.00    +0.000 C 
BRANCH  16  18
ATOM     17  C   UNL     1       6.812   4.071  12.162  0.00  0.00    +0.000 C 
ATOM     18  O   UNL     1       6.193   3.346  13.219  0.00  0.00    +0.000 OA
ENDBRANCH  16  18
ENDBRANCH  15  16
ENDBRANCH   1  15
BRANCH   4  19
ATOM     19  C   UNL     1       8.163   7.716  17.877  0.00  0.00    +0.000 C 
BRANCH  19  20
ATOM     20  C   UNL     1       7.807   9.161  17.524  0.00  0.00    +0.000 C 
BRANCH  20  21
ATOM     21  C   UNL     1       8.613  10.200  18.273  0.00  0.00    +0.000 A 
ATOM     22  C   UNL     1       9.230   9.911  19.498  0.00  0.00    +0.000 A 
ATOM     23  C   UNL     1       9.930  10.903  20.189  0.00  0.00    +0.000 A 
ATOM     24  C   UNL     1      10.019  12.190  19.665  0.00  0.00    +0.000 A 
ATOM     25  C   UNL     1       9.412  12.491  18.447  0.00  0.00    +0.000 A 
ATOM     26  C   UNL     1       8.717  11.499  17.754  0.00  0.00    +0.000 A 
ENDBRANCH  20  21
ENDBRANCH  19  20
ENDBRANCH   4  19
TORSDOF 6
ENDMDL
