MODEL 1
REMARK VINA RESULT:      -8.5      0.000      0.000
REMARK  Name = 
REMARK  4 active torsions:
REMARK  status: ('A' for Active; 'I' for Inactive)
REMARK    1  A    between atoms: C_2  and  C_3
REMARK    2  A    between atoms: C_3  and  N_4
REMARK    3  A    between atoms: C_7  and  N_8
REMARK    4  A    between atoms: N_16  and  C_17
REMARK                            x       y       z     vdW  Elec       q    Type
REMARK                         _______ _______ _______ _____ _____    ______ ____
ROOT
ATOM      1  O   UNL     1       7.193   9.275  17.457  0.00  0.00    +0.000 OA
ATOM      2  C   UNL     1       7.936   8.473  18.028  0.00  0.00    +0.000 C 
ATOM      3  N   UNL     1       8.910   8.840  18.940  0.00  0.00    +0.000 N 
ATOM      4  H   UNL     1       9.268   8.108  19.544  0.00  0.00    +0.000 HD
ENDROOT
BRANCH   3   5
ATOM      5  C   UNL     1       9.305  10.173  19.181  0.00  0.00    +0.000 A 
ATOM      6  C   UNL     1       9.254  10.727  20.458  0.00  0.00    +0.000 A 
ATOM      7  C   UNL     1       9.551  12.077  20.651  0.00  0.00    +0.000 A 
ATOM      8  C   UNL     1       9.951  12.881  19.595  0.00  0.00    +0.000 A 
ATOM      9  N   UNL     1      10.227  14.179  19.827  0.00  0.00    +0.000 NA
ATOM     10  C   UNL     1      10.664  14.895  18.771  0.00  0.00    +0.000 A 
ATOM     11  C   UNL     1      10.833  14.333  17.524  0.00  0.00    +0.000 A 
ATOM     12  N   UNL     1      10.524  13.042  17.263  0.00  0.00    +0.000 NA
ATOM     13  C   UNL     1      10.068  12.309  18.303  0.00  0.00    +0.000 A 
ATOM     14  C   UNL     1       9.701  10.978  18.111  0.00  0.00    +0.000 A 
ENDBRANCH   3   5
BRANCH   2  15
ATOM     15  C   UNL     1       7.865   6.991  17.670  0.00  0.00    +0.000 C 
BRANCH  15  16
ATOM     16  N   UNL     1       6.616   6.291  17.960  0.00  0.00    +0.000 N 
ATOM     17  N   UNL     1       5.579   6.517  17.088  0.00  0.00    +0.000 NA
ATOM     18  C   UNL     1       4.420   6.048  17.425  0.00  0.00    +0.000 A 
ATOM     19  C   UNL     1       4.083   5.257  18.649  0.00  0.00    +0.000 A 
ATOM     20  C   UNL     1       5.128   5.097  19.465  0.00  0.00    +0.000 A 
ATOM     21  C   UNL     1       6.479   5.608  19.153  0.00  0.00    +0.000 A 
ATOM     22  O   UNL     1       7.393   5.397  19.948  0.00  0.00    +0.000 OA
BRANCH  19  23
ATOM     23  N   UNL     1       2.785   4.776  18.820  0.00  0.00    +0.000 N 
ATOM     24  C   UNL     1       1.900   5.119  19.939  0.00  0.00    +0.000 C 
ATOM     25  C   UNL     1       1.200   3.805  20.254  0.00  0.00    +0.000 C 
ATOM     26  C   UNL     1       0.992   3.198  18.881  0.00  0.00    +0.000 C 
ATOM     27  C   UNL     1       2.233   3.620  18.097  0.00  0.00    +0.000 C 
ENDBRANCH  19  23
ENDBRANCH  15  16
ENDBRANCH   2  15
TORSDOF 4
ENDMDL
MODEL 2
REMARK VINA RESULT:      -8.3      1.088      1.584
REMARK  Name = 
REMARK  4 active torsions:
REMARK  status: ('A' for Active; 'I' for Inactive)
REMARK    1  A    between atoms: C_2  and  C_3
REMARK    2  A    between atoms: C_3  and  N_4
REMARK    3  A    between atoms: C_7  and  N_8
REMARK    4  A    between atoms: N_16  and  C_17
REMARK                            x       y       z     vdW  Elec       q    Type
REMARK                         _______ _______ _______ _____ _____    ______ ____
ROOT
ATOM      1  O   UNL     1       7.114   9.317  17.498  0.00  0.00    +0.000 OA
ATOM      2  C   UNL     1       7.895   8.500  17.992  0.00  0.00    +0.000 C 
ATOM      3  N   UNL     1       8.918   8.837  18.860  0.00  0.00    +0.000 N 
ATOM      4  H   UNL     1       9.315   8.085  19.411  0.00  0.00    +0.000 HD
ENDROOT
BRANCH   3   5
ATOM      5  C   UNL     1       9.318  10.163  19.131  0.00  0.00    +0.000 A 
ATOM      6  C   UNL     1       9.265  10.689  20.420  0.00  0.00    +0.000 A 
ATOM      7  C   UNL     1       9.567  12.033  20.643  0.00  0.00    +0.000 A 
ATOM      8  C   UNL     1       9.975  12.858  19.608  0.00  0.00    +0.000 A 
ATOM      9  N   UNL     1      10.255  14.150  19.868  0.00  0.00    +0.000 NA
ATOM     10  C   UNL     1      10.699  14.887  18.830  0.00  0.00    +0.000 A 
ATOM     11  C   UNL     1      10.870  14.351  17.571  0.00  0.00    +0.000 A 
ATOM     12  N   UNL     1      10.556  13.068  17.281  0.00  0.00    +0.000 NA
ATOM     13  C   UNL     1      10.094  12.315  18.303  0.00  0.00    +0.000 A 
ATOM     14  C   UNL     1       9.722  10.990  18.081  0.00  0.00    +0.000 A 
ENDBRANCH   3   5
BRANCH   2  15
ATOM     15  C   UNL     1       7.811   7.033  17.578  0.00  0.00    +0.000 C 
BRANCH  15  16
ATOM     16  N   UNL     1       6.572   6.320  17.881  0.00  0.00    +0.000 N 
ATOM     17  N   UNL     1       6.533   5.659  19.085  0.00  0.00    +0.000 NA
ATOM     18  C   UNL     1       5.519   4.882  19.292  0.00  0.00    +0.000 A 
ATOM     19  C   UNL     1       4.360   4.641  18.377  0.00  0.00    +0.000 A 
ATOM     20  C   UNL     1       4.474   5.291  17.215  0.00  0.00    +0.000 A 
ATOM     21  C   UNL     1       5.605   6.190  16.904  0.00  0.00    +0.000 A 
ATOM     22  O   UNL     1       5.621   6.771  15.819  0.00  0.00    +0.000 OA
BRANCH  19  23
ATOM     23  N   UNL     1       3.318   3.812  18.792  0.00  0.00    +0.000 N 
ATOM     24  C   UNL     1       2.429   3.063  17.898  0.00  0.00    +0.000 C 
ATOM     25  C   UNL     1       1.067   3.187  18.564  0.00  0.00    +0.000 C 
ATOM     26  C   UNL     1       1.406   3.104  20.039  0.00  0.00    +0.000 C 
ATOM     27  C   UNL     1       2.752   3.819  20.150  0.00  0.00    +0.000 C 
ENDBRANCH  19  23
ENDBRANCH  15  16
ENDBRANCH   2  15
TORSDOF 4
ENDMDL
MODEL 3
REMARK VINA RESULT:      -8.3      1.369      2.155
REMARK  Name = 
REMARK  4 active torsions:
REMARK  status: ('A' for Active; 'I' for Inactive)
REMARK    1  A    between atoms: C_2  and  C_3
REMARK    2  A    between atoms: C_3  and  N_4
REMARK    3  A    between atoms: C_7  and  N_8
REMARK    4  A    between atoms: N_16  and  C_17
REMARK                            x       y       z     vdW  Elec       q    Type
REMARK                         _______ _______ _______ _____ _____    ______ ____
ROOT
ATOM      1  O   UNL     1       7.213   8.896  17.306  0.00  0.00    +0.000 OA
ATOM      2  C   UNL     1       7.912   8.188  18.035  0.00  0.00    +0.000 C 
ATOM      3  N   UNL     1       8.817   8.686  18.956  0.00  0.00    +0.000 N 
ATOM      4  H   UNL     1       9.129   8.048  19.679  0.00  0.00    +0.000 HD
ENDROOT
BRANCH   3   5
ATOM      5  C   UNL     1       9.194  10.043  19.037  0.00  0.00    +0.000 A 
ATOM      6  C   UNL     1       9.613  10.749  17.910  0.00  0.00    +0.000 A 
ATOM      7  C   UNL     1      10.080  12.059  18.036  0.00  0.00    +0.000 A 
ATOM      8  C   UNL     1      10.090  12.702  19.263  0.00  0.00    +0.000 A 
ATOM      9  N   UNL     1      10.551  13.966  19.338  0.00  0.00    +0.000 NA
ATOM     10  C   UNL     1      10.484  14.556  20.548  0.00  0.00    +0.000 A 
ATOM     11  C   UNL     1       9.963  13.911  21.650  0.00  0.00    +0.000 A 
ATOM     12  N   UNL     1       9.533  12.630  21.603  0.00  0.00    +0.000 NA
ATOM     13  C   UNL     1       9.606  12.013  20.404  0.00  0.00    +0.000 A 
ATOM     14  C   UNL     1       9.208  10.683  20.278  0.00  0.00    +0.000 A 
ENDBRANCH   3   5
BRANCH   2  15
ATOM     15  C   UNL     1       7.865   6.670  17.882  0.00  0.00    +0.000 C 
BRANCH  15  16
ATOM     16  N   UNL     1       6.553   6.030  17.938  0.00  0.00    +0.000 N 
ATOM     17  N   UNL     1       6.172   5.539  19.163  0.00  0.00    +0.000 NA
ATOM     18  C   UNL     1       5.098   4.818  19.195  0.00  0.00    +0.000 A 
ATOM     19  C   UNL     1       4.200   4.479  18.047  0.00  0.00    +0.000 A 
ATOM     20  C   UNL     1       4.641   4.964  16.883  0.00  0.00    +0.000 A 
ATOM     21  C   UNL     1       5.862   5.790  16.767  0.00  0.00    +0.000 A 
ATOM     22  O   UNL     1       6.186   6.218  15.661  0.00  0.00    +0.000 OA
BRANCH  19  23
ATOM     23  N   UNL     1       3.042   3.735  18.277  0.00  0.00    +0.000 N 
ATOM     24  C   UNL     1       1.694   4.296  18.422  0.00  0.00    +0.000 C 
ATOM     25  C   UNL     1       1.077   3.456  19.530  0.00  0.00    +0.000 C 
ATOM     26  C   UNL     1       1.628   2.072  19.250  0.00  0.00    +0.000 C 
ATOM     27  C   UNL     1       3.039   2.335  18.729  0.00  0.00    +0.000 C 
ENDBRANCH  19  23
ENDBRANCH  15  16
ENDBRANCH   2  15
TORSDOF 4
ENDMDL
MODEL 4
REMARK VINA RESULT:      -8.2      0.827      1.650
REMARK  Name = 
REMARK  4 active torsions:
REMARK  status: ('A' for Active; 'I' for Inactive)
REMARK    1  A    between atoms: C_2  and  C_3
REMARK    2  A    between atoms: C_3  and  N_4
REMARK    3  A    between atoms: C_7  and  N_8
REMARK    4  A    between atoms: N_16  and  C_17
REMARK                            x       y       z     vdW  Elec       q    Type
REMARK                         _______ _______ _______ _____ _____    ______ ____
ROOT
ATOM      1  O   UNL     1       7.160   9.224  17.449  0.00  0.00    +0.000 OA
ATOM      2  C   UNL     1       7.929   8.448  18.024  0.00  0.00    +0.000 C 
ATOM      3  N   UNL     1       8.926   8.854  18.893  0.00  0.00    +0.000 N 
ATOM      4  H   UNL     1       9.310   8.146  19.508  0.00  0.00    +0.000 HD
ENDROOT
BRANCH   3   5
ATOM      5  C   UNL     1       9.316  10.197  19.076  0.00  0.00    +0.000 A 
ATOM      6  C   UNL     1       9.896  10.932  18.043  0.00  0.00    +0.000 A 
ATOM      7  C   UNL     1      10.367  12.225  18.281  0.00  0.00    +0.000 A 
ATOM      8  C   UNL     1      10.224  12.824  19.522  0.00  0.00    +0.000 A 
ATOM      9  N   UNL     1      10.695  14.073  19.707  0.00  0.00    +0.000 NA
ATOM     10  C   UNL     1      10.477  14.621  20.919  0.00  0.00    +0.000 A 
ATOM     11  C   UNL     1       9.799  13.950  21.915  0.00  0.00    +0.000 A 
ATOM     12  N   UNL     1       9.355  12.682  21.762  0.00  0.00    +0.000 NA
ATOM     13  C   UNL     1       9.577  12.107  20.560  0.00  0.00    +0.000 A 
ATOM     14  C   UNL     1       9.174  10.792  20.331  0.00  0.00    +0.000 A 
ENDBRANCH   3   5
BRANCH   2  15
ATOM     15  C   UNL     1       7.860   6.954  17.718  0.00  0.00    +0.000 C 
BRANCH  15  16
ATOM     16  N   UNL     1       6.611   6.263  18.026  0.00  0.00    +0.000 N 
ATOM     17  N   UNL     1       5.559   6.509  17.177  0.00  0.00    +0.000 NA
ATOM     18  C   UNL     1       4.402   6.048  17.532  0.00  0.00    +0.000 A 
ATOM     19  C   UNL     1       4.082   5.247  18.754  0.00  0.00    +0.000 A 
ATOM     20  C   UNL     1       5.141   5.068  19.548  0.00  0.00    +0.000 A 
ATOM     21  C   UNL     1       6.491   5.569  19.214  0.00  0.00    +0.000 A 
ATOM     22  O   UNL     1       7.419   5.340  19.988  0.00  0.00    +0.000 OA
BRANCH  19  23
ATOM     23  N   UNL     1       2.782   4.777  18.947  0.00  0.00    +0.000 N 
ATOM     24  C   UNL     1       1.887   5.194  20.031  0.00  0.00    +0.000 C 
ATOM     25  C   UNL     1       1.185   3.904  20.429  0.00  0.00    +0.000 C 
ATOM     26  C   UNL     1       0.990   3.204  19.100  0.00  0.00    +0.000 C 
ATOM     27  C   UNL     1       2.238   3.573  18.300  0.00  0.00    +0.000 C 
ENDBRANCH  19  23
ENDBRANCH  15  16
ENDBRANCH   2  15
TORSDOF 4
ENDMDL
MODEL 5
REMARK VINA RESULT:      -8.2      1.513      1.978
REMARK  Name = 
REMARK  4 active torsions:
REMARK  status: ('A' for Active; 'I' for Inactive)
REMARK    1  A    between atoms: C_2  and  C_3
REMARK    2  A    between atoms: C_3  and  N_4
REMARK    3  A    between atoms: C_7  and  N_8
REMARK    4  A    between atoms: N_16  and  C_17
REMARK                            x       y       z     vdW  Elec       q    Type
REMARK                         _______ _______ _______ _____ _____    ______ ____
ROOT
ATOM      1  O   UNL     1       7.805   8.347  17.112  0.00  0.00    +0.000 OA
ATOM      2  C   UNL     1       8.209   7.977  18.217  0.00  0.00    +0.000 C 
ATOM      3  N   UNL     1       8.808   8.817  19.140  0.00  0.00    +0.000 N 
ATOM      4  H   UNL     1       8.850   8.486  20.097  0.00  0.00    +0.000 HD
ENDROOT
BRANCH   3   5
ATOM      5  C   UNL     1       9.207  10.141  18.860  0.00  0.00    +0.000 A 
ATOM      6  C   UNL     1       8.512  10.931  17.946  0.00  0.00    +0.000 A 
ATOM      7  C   UNL     1       8.989  12.199  17.610  0.00  0.00    +0.000 A 
ATOM      8  C   UNL     1      10.124  12.721  18.209  0.00  0.00    +0.000 A 
ATOM      9  N   UNL     1      10.549  13.949  17.853  0.00  0.00    +0.000 NA
ATOM     10  C   UNL     1      11.626  14.423  18.511  0.00  0.00    +0.000 A 
ATOM     11  C   UNL     1      12.255  13.701  19.503  0.00  0.00    +0.000 A 
ATOM     12  N   UNL     1      11.868  12.452  19.846  0.00  0.00    +0.000 NA
ATOM     13  C   UNL     1      10.801  11.949  19.188  0.00  0.00    +0.000 A 
ATOM     14  C   UNL     1      10.355  10.657  19.463  0.00  0.00    +0.000 A 
ENDBRANCH   3   5
BRANCH   2  15
ATOM     15  C   UNL     1       8.139   6.499  18.590  0.00  0.00    +0.000 C 
BRANCH  15  16
ATOM     16  N   UNL     1       6.883   5.800  18.328  0.00  0.00    +0.000 N 
ATOM     17  N   UNL     1       6.010   5.709  19.384  0.00  0.00    +0.000 NA
ATOM     18  C   UNL     1       4.976   4.947  19.223  0.00  0.00    +0.000 A 
ATOM     19  C   UNL     1       4.605   4.169  18.000  0.00  0.00    +0.000 A 
ATOM     20  C   UNL     1       5.508   4.280  17.023  0.00  0.00    +0.000 A 
ATOM     21  C   UNL     1       6.716   5.125  17.134  0.00  0.00    +0.000 A 
ATOM     22  O   UNL     1       7.486   5.191  16.178  0.00  0.00    +0.000 OA
BRANCH  19  23
ATOM     23  N   UNL     1       3.413   3.444  17.983  0.00  0.00    +0.000 N 
ATOM     24  C   UNL     1       2.074   4.025  17.832  0.00  0.00    +0.000 C 
ATOM     25  C   UNL     1       1.221   3.205  18.789  0.00  0.00    +0.000 C 
ATOM     26  C   UNL     1       1.798   1.811  18.643  0.00  0.00    +0.000 C 
ATOM     27  C   UNL     1       3.292   2.048  18.433  0.00  0.00    +0.000 C 
ENDBRANCH  19  23
ENDBRANCH  15  16
ENDBRANCH   2  15
TORSDOF 4
ENDMDL
MODEL 6
REMARK VINA RESULT:      -8.0      6.386      7.835
REMARK  Name = 
REMARK  4 active torsions:
REMARK  status: ('A' for Active; 'I' for Inactive)
REMARK    1  A    between atoms: C_2  and  C_3
REMARK    2  A    between atoms: C_3  and  N_4
REMARK    3  A    between atoms: C_7  and  N_8
REMARK    4  A    between atoms: N_16  and  C_17
REMARK                            x       y       z     vdW  Elec       q    Type
REMARK                         _______ _______ _______ _____ _____    ______ ____
ROOT
ATOM      1  O   UNL     1       0.747   4.993  20.513  0.00  0.00    +0.000 OA
ATOM      2  C   UNL     1       1.966   5.126  20.385  0.00  0.00    +0.000 C 
ATOM      3  N   UNL     1       2.602   6.351  20.284  0.00  0.00    +0.000 N 
ATOM      4  H   UNL     1       3.601   6.362  20.457  0.00  0.00    +0.000 HD
ENDROOT
BRANCH   3   5
ATOM      5  C   UNL     1       1.927   7.579  20.116  0.00  0.00    +0.000 A 
ATOM      6  C   UNL     1       1.886   8.222  18.880  0.00  0.00    +0.000 A 
ATOM      7  C   UNL     1       1.303   9.485  18.765  0.00  0.00    +0.000 A 
ATOM      8  C   UNL     1       0.708  10.102  19.853  0.00  0.00    +0.000 A 
ATOM      9  N   UNL     1       0.158  11.322  19.697  0.00  0.00    +0.000 NA
ATOM     10  C   UNL     1      -0.453  11.846  20.779  0.00  0.00    +0.000 A 
ATOM     11  C   UNL     1      -0.524  11.171  21.979  0.00  0.00    +0.000 A 
ATOM     12  N   UNL     1       0.057   9.964  22.166  0.00  0.00    +0.000 NA
ATOM     13  C   UNL     1       0.689   9.427  21.100  0.00  0.00    +0.000 A 
ATOM     14  C   UNL     1       1.336   8.198  21.219  0.00  0.00    +0.000 A 
ENDBRANCH   3   5
BRANCH   2  15
ATOM     15  C   UNL     1       2.849   3.889  20.241  0.00  0.00    +0.000 C 
BRANCH  15  16
ATOM     16  N   UNL     1       3.636   3.766  19.016  0.00  0.00    +0.000 N 
ATOM     17  N   UNL     1       4.921   4.248  19.071  0.00  0.00    +0.000 NA
ATOM     18  C   UNL     1       5.571   4.308  17.953  0.00  0.00    +0.000 A 
ATOM     19  C   UNL     1       5.091   3.882  16.602  0.00  0.00    +0.000 A 
ATOM     20  C   UNL     1       3.827   3.448  16.614  0.00  0.00    +0.000 A 
ATOM     21  C   UNL     1       3.020   3.357  17.849  0.00  0.00    +0.000 A 
ATOM     22  O   UNL     1       1.871   2.924  17.777  0.00  0.00    +0.000 OA
BRANCH  19  23
ATOM     23  N   UNL     1       5.955   3.962  15.510  0.00  0.00    +0.000 N 
ATOM     24  C   UNL     1       7.246   4.659  15.504  0.00  0.00    +0.000 C 
ATOM     25  C   UNL     1       7.292   5.309  14.130  0.00  0.00    +0.000 C 
ATOM     26  C   UNL     1       6.644   4.265  13.242  0.00  0.00    +0.000 C 
ATOM     27  C   UNL     1       5.564   3.646  14.127  0.00  0.00    +0.000 C 
ENDBRANCH  19  23
ENDBRANCH  15  16
ENDBRANCH   2  15
TORSDOF 4
ENDMDL
MODEL 7
REMARK VINA RESULT:      -7.8      1.246      1.370
REMARK  Name = 
REMARK  4 active torsions:
REMARK  status: ('A' for Active; 'I' for Inactive)
REMARK    1  A    between atoms: C_2  and  C_3
REMARK    2  A    between atoms: C_3  and  N_4
REMARK    3  A    between atoms: C_7  and  N_8
REMARK    4  A    between atoms: N_16  and  C_17
REMARK                            x       y       z     vdW  Elec       q    Type
REMARK                         _______ _______ _______ _____ _____    ______ ____
ROOT
ATOM      1  O   UNL     1       8.347   7.302  18.856  0.00  0.00    +0.000 OA
ATOM      2  C   UNL     1       7.946   7.744  17.776  0.00  0.00    +0.000 C 
ATOM      3  N   UNL     1       8.137   9.049  17.359  0.00  0.00    +0.000 N 
ATOM      4  H   UNL     1       8.018   9.234  16.369  0.00  0.00    +0.000 HD
ENDROOT
BRANCH   3   5
ATOM      5  C   UNL     1       8.634  10.078  18.187  0.00  0.00    +0.000 A 
ATOM      6  C   UNL     1       9.124   9.810  19.463  0.00  0.00    +0.000 A 
ATOM      7  C   UNL     1       9.512  10.858  20.301  0.00  0.00    +0.000 A 
ATOM      8  C   UNL     1       9.469  12.174  19.870  0.00  0.00    +0.000 A 
ATOM      9  N   UNL     1       9.852  13.154  20.713  0.00  0.00    +0.000 NA
ATOM     10  C   UNL     1       9.840  14.407  20.217  0.00  0.00    +0.000 A 
ATOM     11  C   UNL     1       9.469  14.678  18.916  0.00  0.00    +0.000 A 
ATOM     12  N   UNL     1       9.044  13.713  18.069  0.00  0.00    +0.000 NA
ATOM     13  C   UNL     1       9.032  12.451  18.550  0.00  0.00    +0.000 A 
ATOM     14  C   UNL     1       8.581  11.403  17.748  0.00  0.00    +0.000 A 
ENDBRANCH   3   5
BRANCH   2  15
ATOM     15  C   UNL     1       7.112   6.853  16.859  0.00  0.00    +0.000 C 
BRANCH  15  16
ATOM     16  N   UNL     1       5.989   6.137  17.460  0.00  0.00    +0.000 N 
ATOM     17  N   UNL     1       4.787   6.801  17.478  0.00  0.00    +0.000 NA
ATOM     18  C   UNL     1       3.830   6.258  18.159  0.00  0.00    +0.000 A 
ATOM     19  C   UNL     1       3.872   4.966  18.911  0.00  0.00    +0.000 A 
ATOM     20  C   UNL     1       5.075   4.385  18.875  0.00  0.00    +0.000 A 
ATOM     21  C   UNL     1       6.218   4.948  18.125  0.00  0.00    +0.000 A 
ATOM     22  O   UNL     1       7.286   4.337  18.123  0.00  0.00    +0.000 OA
BRANCH  19  23
ATOM     23  N   UNL     1       2.719   4.500  19.542  0.00  0.00    +0.000 N 
ATOM     24  C   UNL     1       2.358   4.762  20.940  0.00  0.00    +0.000 C 
ATOM     25  C   UNL     1       1.766   3.441  21.408  0.00  0.00    +0.000 C 
ATOM     26  C   UNL     1       1.008   2.961  20.186  0.00  0.00    +0.000 C 
ATOM     27  C   UNL     1       1.868   3.423  19.012  0.00  0.00    +0.000 C 
ENDBRANCH  19  23
ENDBRANCH  15  16
ENDBRANCH   2  15
TORSDOF 4
ENDMDL
MODEL 8
REMARK VINA RESULT:      -7.8      1.426      2.010
REMARK  Name = 
REMARK  4 active torsions:
REMARK  status: ('A' for Active; 'I' for Inactive)
REMARK    1  A    between atoms: C_2  and  C_3
REMARK    2  A    between atoms: C_3  and  N_4
REMARK    3  A    between atoms: C_7  and  N_8
REMARK    4  A    between atoms: N_16  and  C_17
REMARK                            x       y       z     vdW  Elec       q    Type
REMARK                         _______ _______ _______ _____ _____    ______ ____
ROOT
ATOM      1  O   UNL     1       8.441   7.173  18.888  0.00  0.00    +0.000 OA
ATOM      2  C   UNL     1       7.864   7.573  17.874  0.00  0.00    +0.000 C 
ATOM      3  N   UNL     1       7.938   8.873  17.407  0.00  0.00    +0.000 N 
ATOM      4  H   UNL     1       7.664   9.028  16.444  0.00  0.00    +0.000 HD
ENDROOT
BRANCH   3   5
ATOM      5  C   UNL     1       8.512   9.940  18.131  0.00  0.00    +0.000 A 
ATOM      6  C   UNL     1       9.117   9.736  19.369  0.00  0.00    +0.000 A 
ATOM      7  C   UNL     1       9.584  10.823  20.111  0.00  0.00    +0.000 A 
ATOM      8  C   UNL     1       9.506  12.114  19.616  0.00  0.00    +0.000 A 
ATOM      9  N   UNL     1       9.968  13.134  20.367  0.00  0.00    +0.000 NA
ATOM     10  C   UNL     1       9.914  14.360  19.809  0.00  0.00    +0.000 A 
ATOM     11  C   UNL     1       9.426  14.565  18.535  0.00  0.00    +0.000 A 
ATOM     12  N   UNL     1       8.922  13.560  17.783  0.00  0.00    +0.000 NA
ATOM     13  C   UNL     1       8.950  12.325  18.329  0.00  0.00    +0.000 A 
ATOM     14  C   UNL     1       8.424  11.240  17.629  0.00  0.00    +0.000 A 
ENDBRANCH   3   5
BRANCH   2  15
ATOM     15  C   UNL     1       6.938   6.629  17.111  0.00  0.00    +0.000 C 
BRANCH  15  16
ATOM     16  N   UNL     1       5.894   5.951  17.876  0.00  0.00    +0.000 N 
ATOM     17  N   UNL     1       6.260   4.779  18.491  0.00  0.00    +0.000 NA
ATOM     18  C   UNL     1       5.311   4.077  19.023  0.00  0.00    +0.000 A 
ATOM     19  C   UNL     1       3.854   4.412  19.071  0.00  0.00    +0.000 A 
ATOM     20  C   UNL     1       3.563   5.549  18.432  0.00  0.00    +0.000 A 
ATOM     21  C   UNL     1       4.590   6.400  17.795  0.00  0.00    +0.000 A 
ATOM     22  O   UNL     1       4.241   7.445  17.248  0.00  0.00    +0.000 OA
BRANCH  19  23
ATOM     23  N   UNL     1       2.976   3.563  19.744  0.00  0.00    +0.000 N 
ATOM     24  C   UNL     1       2.276   2.424  19.142  0.00  0.00    +0.000 C 
ATOM     25  C   UNL     1       0.894   2.479  19.776  0.00  0.00    +0.000 C 
ATOM     26  C   UNL     1       1.194   2.912  21.197  0.00  0.00    +0.000 C 
ATOM     27  C   UNL     1       2.374   3.871  21.051  0.00  0.00    +0.000 C 
ENDBRANCH  19  23
ENDBRANCH  15  16
ENDBRANCH   2  15
TORSDOF 4
ENDMDL
MODEL 9
REMARK VINA RESULT:      -7.7      6.205      7.918
REMARK  Name = 
REMARK  4 active torsions:
REMARK  status: ('A' for Active; 'I' for Inactive)
REMARK    1  A    between atoms: C_2  and  C_3
REMARK    2  A    between atoms: C_3  and  N_4
REMARK    3  A    between atoms: C_7  and  N_8
REMARK    4  A    between atoms: N_16  and  C_17
REMARK                            x       y       z     vdW  Elec       q    Type
REMARK                         _______ _______ _______ _____ _____    ______ ____
ROOT
ATOM      1  O   UNL     1       1.603   4.870  20.807  0.00  0.00    +0.000 OA
ATOM      2  C   UNL     1       2.625   5.202  20.202  0.00  0.00    +0.000 C 
ATOM      3  N   UNL     1       2.941   6.510  19.882  0.00  0.00    +0.000 N 
ATOM      4  H   UNL     1       3.907   6.700  19.639  0.00  0.00    +0.000 HD
ENDROOT
BRANCH   3   5
ATOM      5  C   UNL     1       2.052   7.596  20.028  0.00  0.00    +0.000 A 
ATOM      6  C   UNL     1       1.706   8.402  18.945  0.00  0.00    +0.000 A 
ATOM      7  C   UNL     1       0.908   9.531  19.138  0.00  0.00    +0.000 A 
ATOM      8  C   UNL     1       0.400   9.846  20.387  0.00  0.00    +0.000 A 
ATOM      9  N   UNL     1      -0.366  10.946  20.527  0.00  0.00    +0.000 NA
ATOM     10  C   UNL     1      -0.876  11.168  21.756  0.00  0.00    +0.000 A 
ATOM     11  C   UNL     1      -0.640  10.314  22.812  0.00  0.00    +0.000 A 
ATOM     12  N   UNL     1       0.158   9.228  22.701  0.00  0.00    +0.000 NA
ATOM     13  C   UNL     1       0.693   8.995  21.483  0.00  0.00    +0.000 A 
ATOM     14  C   UNL     1       1.549   7.911  21.292  0.00  0.00    +0.000 A 
ENDBRANCH   3   5
BRANCH   2  15
ATOM     15  C   UNL     1       3.579   4.127  19.687  0.00  0.00    +0.000 C 
BRANCH  15  16
ATOM     16  N   UNL     1       4.224   4.365  18.398  0.00  0.00    +0.000 N 
ATOM     17  N   UNL     1       3.407   4.317  17.295  0.00  0.00    +0.000 NA
ATOM     18  C   UNL     1       3.986   4.350  16.137  0.00  0.00    +0.000 A 
ATOM     19  C   UNL     1       5.451   4.465  15.860  0.00  0.00    +0.000 A 
ATOM     20  C   UNL     1       6.190   4.480  16.973  0.00  0.00    +0.000 A 
ATOM     21  C   UNL     1       5.602   4.440  18.329  0.00  0.00    +0.000 A 
ATOM     22  O   UNL     1       6.351   4.482  19.303  0.00  0.00    +0.000 OA
BRANCH  19  23
ATOM     23  N   UNL     1       5.897   4.549  14.540  0.00  0.00    +0.000 N 
ATOM     24  C   UNL     1       5.239   3.925  13.387  0.00  0.00    +0.000 C 
ATOM     25  C   UNL     1       6.401   3.429  12.540  0.00  0.00    +0.000 C 
ATOM     26  C   UNL     1       7.432   4.527  12.710  0.00  0.00    +0.000 C 
ATOM     27  C   UNL     1       7.246   4.990  14.153  0.00  0.00    +0.000 C 
ENDBRANCH  19  23
ENDBRANCH  15  16
ENDBRANCH   2  15
TORSDOF 4
ENDMDL
