MODEL 1
REMARK VINA RESULT:      -8.0      0.000      0.000
REMARK  Name = 
REMARK  3 active torsions:
REMARK  status: ('A' for Active; 'I' for Inactive)
REMARK    1  A    between atoms: C_1  and  C_2
REMARK    2  A    between atoms: C_7  and  C_8
REMARK    3  A    between atoms: C_9  and  C_10
REMARK                            x       y       z     vdW  Elec       q    Type
REMARK                         _______ _______ _______ _____ _____    ______ ____
ROOT
ATOM      1  C   UNL     1       8.314   5.427  19.226  0.00  0.00    +0.000 C 
ATOM      2  C   UNL     1       6.888   5.636  18.794  0.00  0.00    +0.000 A 
ATOM      3  C   UNL     1       5.887   4.788  19.296  0.00  0.00    +0.000 A 
ATOM      4  C   UNL     1       4.553   4.974  18.932  0.00  0.00    +0.000 A 
ATOM      5  C   UNL     1       4.191   5.999  18.056  0.00  0.00    +0.000 A 
ATOM      6  C   UNL     1       5.187   6.846  17.554  0.00  0.00    +0.000 A 
ATOM      7  C   UNL     1       6.533   6.681  17.919  0.00  0.00    +0.000 A 
ATOM      8  C   UNL     1       7.561   7.643  17.385  0.00  0.00    +0.000 C 
ATOM      9  C   UNL     1       2.733   6.236  17.727  0.00  0.00    +0.000 C 
ATOM     10  C   UNL     1       1.896   4.968  17.914  0.00  0.00    +0.000 C 
ATOM     11  C   UNL     1       2.242   4.219  19.178  0.00  0.00    +0.000 C 
ATOM     12  O   UNL     1       1.405   3.598  19.830  0.00  0.00    +0.000 OA
ATOM     13  N   UNL     1       3.569   4.165  19.507  0.00  0.00    +0.000 N 
ATOM     14  H   UNL     1       3.807   3.549  20.273  0.00  0.00    +0.000 HD
ENDROOT
BRANCH   9  15
ATOM     15  C   UNL     1       2.136   7.426  18.470  0.00  0.00    +0.000 A 
ATOM     16  C   UNL     1       1.742   8.600  17.806  0.00  0.00    +0.000 A 
ATOM     17  C   UNL     1       1.236   9.693  18.515  0.00  0.00    +0.000 A 
ATOM     18  C   UNL     1       1.107   9.624  19.900  0.00  0.00    +0.000 A 
ATOM     19  C   UNL     1       1.482   8.461  20.560  0.00  0.00    +0.000 A 
ATOM     20  F   UNL     1       1.349   8.390  21.891  0.00  0.00    +0.000 F 
ATOM     21  C   UNL     1       1.990   7.369  19.866  0.00  0.00    +0.000 A 
ENDBRANCH   9  15
TORSDOF 1
ENDMDL
MODEL 2
REMARK VINA RESULT:      -7.8      1.018      1.481
REMARK  Name = 
REMARK  3 active torsions:
REMARK  status: ('A' for Active; 'I' for Inactive)
REMARK    1  A    between atoms: C_1  and  C_2
REMARK    2  A    between atoms: C_7  and  C_8
REMARK    3  A    between atoms: C_9  and  C_10
REMARK                            x       y       z     vdW  Elec       q    Type
REMARK                         _______ _______ _______ _____ _____    ______ ____
ROOT
ATOM      1  C   UNL     1       8.290   5.265  19.054  0.00  0.00    +0.000 C 
ATOM      2  C   UNL     1       6.857   5.527  18.676  0.00  0.00    +0.000 A 
ATOM      3  C   UNL     1       5.854   4.664  19.149  0.00  0.00    +0.000 A 
ATOM      4  C   UNL     1       4.514   4.897  18.835  0.00  0.00    +0.000 A 
ATOM      5  C   UNL     1       4.149   5.983  18.040  0.00  0.00    +0.000 A 
ATOM      6  C   UNL     1       5.147   6.845  17.566  0.00  0.00    +0.000 A 
ATOM      7  C   UNL     1       6.498   6.633  17.882  0.00  0.00    +0.000 A 
ATOM      8  C   UNL     1       7.530   7.611  17.385  0.00  0.00    +0.000 C 
ATOM      9  C   UNL     1       2.687   6.267  17.767  0.00  0.00    +0.000 C 
ATOM     10  C   UNL     1       1.831   5.004  17.894  0.00  0.00    +0.000 C 
ATOM     11  C   UNL     1       2.197   4.166  19.095  0.00  0.00    +0.000 C 
ATOM     12  O   UNL     1       1.366   3.518  19.727  0.00  0.00    +0.000 OA
ATOM     13  N   UNL     1       3.531   4.068  19.382  0.00  0.00    +0.000 N 
ATOM     14  H   UNL     1       3.778   3.398  20.100  0.00  0.00    +0.000 HD
ENDROOT
BRANCH   9  15
ATOM     15  C   UNL     1       2.133   7.414  18.604  0.00  0.00    +0.000 A 
ATOM     16  C   UNL     1       1.978   7.315  19.997  0.00  0.00    +0.000 A 
ATOM     17  C   UNL     1       1.429   8.366  20.737  0.00  0.00    +0.000 A 
ATOM     18  C   UNL     1       1.036   9.537  20.096  0.00  0.00    +0.000 A 
ATOM     19  C   UNL     1       1.200   9.647  18.721  0.00  0.00    +0.000 A 
ATOM     20  F   UNL     1       0.830  10.777  18.104  0.00  0.00    +0.000 F 
ATOM     21  C   UNL     1       1.741   8.607  17.974  0.00  0.00    +0.000 A 
ENDBRANCH   9  15
TORSDOF 1
ENDMDL
MODEL 3
REMARK VINA RESULT:      -7.8      4.021      5.182
REMARK  Name = 
REMARK  3 active torsions:
REMARK  status: ('A' for Active; 'I' for Inactive)
REMARK    1  A    between atoms: C_1  and  C_2
REMARK    2  A    between atoms: C_7  and  C_8
REMARK    3  A    between atoms: C_9  and  C_10
REMARK                            x       y       z     vdW  Elec       q    Type
REMARK                         _______ _______ _______ _____ _____    ______ ____
ROOT
ATOM      1  C   UNL     1       7.432   4.979  11.668  0.00  0.00    +0.000 C 
ATOM      2  C   UNL     1       6.999   4.725  13.087  0.00  0.00    +0.000 A 
ATOM      3  C   UNL     1       7.583   5.469  14.125  0.00  0.00    +0.000 A 
ATOM      4  C   UNL     1       7.184   5.273  15.448  0.00  0.00    +0.000 A 
ATOM      5  C   UNL     1       6.205   4.329  15.762  0.00  0.00    +0.000 A 
ATOM      6  C   UNL     1       5.621   3.585  14.728  0.00  0.00    +0.000 A 
ATOM      7  C   UNL     1       6.003   3.778  13.391  0.00  0.00    +0.000 A 
ATOM      8  C   UNL     1       5.316   2.984  12.311  0.00  0.00    +0.000 C 
ATOM      9  C   UNL     1       5.728   4.177  17.191  0.00  0.00    +0.000 C 
ATOM     10  C   UNL     1       6.786   4.645  18.195  0.00  0.00    +0.000 C 
ATOM     11  C   UNL     1       7.452   5.935  17.784  0.00  0.00    +0.000 C 
ATOM     12  O   UNL     1       7.830   6.774  18.601  0.00  0.00    +0.000 OA
ATOM     13  N   UNL     1       7.724   6.080  16.452  0.00  0.00    +0.000 N 
ATOM     14  H   UNL     1       8.292   6.881  16.204  0.00  0.00    +0.000 HD
ENDROOT
BRANCH   9  15
ATOM     15  C   UNL     1       4.376   4.833  17.444  0.00  0.00    +0.000 A 
ATOM     16  C   UNL     1       4.235   6.225  17.582  0.00  0.00    +0.000 A 
ATOM     17  C   UNL     1       2.991   6.799  17.854  0.00  0.00    +0.000 A 
ATOM     18  C   UNL     1       1.865   5.990  17.984  0.00  0.00    +0.000 A 
ATOM     19  C   UNL     1       1.995   4.616  17.835  0.00  0.00    +0.000 A 
ATOM     20  F   UNL     1       0.910   3.838  17.950  0.00  0.00    +0.000 F 
ATOM     21  C   UNL     1       3.228   4.032  17.567  0.00  0.00    +0.000 A 
ENDBRANCH   9  15
TORSDOF 1
ENDMDL
MODEL 4
REMARK VINA RESULT:      -7.6      3.133      4.006
REMARK  Name = 
REMARK  3 active torsions:
REMARK  status: ('A' for Active; 'I' for Inactive)
REMARK    1  A    between atoms: C_1  and  C_2
REMARK    2  A    between atoms: C_7  and  C_8
REMARK    3  A    between atoms: C_9  and  C_10
REMARK                            x       y       z     vdW  Elec       q    Type
REMARK                         _______ _______ _______ _____ _____    ______ ____
ROOT
ATOM      1  C   UNL     1       7.673   4.936  12.952  0.00  0.00    +0.000 C 
ATOM      2  C   UNL     1       6.946   4.775  14.260  0.00  0.00    +0.000 A 
ATOM      3  C   UNL     1       7.618   5.064  15.459  0.00  0.00    +0.000 A 
ATOM      4  C   UNL     1       6.961   4.948  16.685  0.00  0.00    +0.000 A 
ATOM      5  C   UNL     1       5.629   4.534  16.741  0.00  0.00    +0.000 A 
ATOM      6  C   UNL     1       4.956   4.245  15.547  0.00  0.00    +0.000 A 
ATOM      7  C   UNL     1       5.599   4.368  14.304  0.00  0.00    +0.000 A 
ATOM      8  C   UNL     1       4.821   4.087  13.046  0.00  0.00    +0.000 C 
ATOM      9  C   UNL     1       4.906   4.483  18.070  0.00  0.00    +0.000 C 
ATOM     10  C   UNL     1       5.880   4.313  19.239  0.00  0.00    +0.000 C 
ATOM     11  C   UNL     1       7.105   5.185  19.112  0.00  0.00    +0.000 C 
ATOM     12  O   UNL     1       7.674   5.674  20.087  0.00  0.00    +0.000 OA
ATOM     13  N   UNL     1       7.629   5.316  17.856  0.00  0.00    +0.000 N 
ATOM     14  H   UNL     1       8.524   5.785  17.799  0.00  0.00    +0.000 HD
ENDROOT
BRANCH   9  15
ATOM     15  C   UNL     1       3.961   5.659  18.284  0.00  0.00    +0.000 A 
ATOM     16  C   UNL     1       3.939   6.766  17.418  0.00  0.00    +0.000 A 
ATOM     17  C   UNL     1       3.092   7.852  17.658  0.00  0.00    +0.000 A 
ATOM     18  C   UNL     1       2.247   7.843  18.764  0.00  0.00    +0.000 A 
ATOM     19  C   UNL     1       2.254   6.746  19.616  0.00  0.00    +0.000 A 
ATOM     20  F   UNL     1       1.434   6.732  20.675  0.00  0.00    +0.000 F 
ATOM     21  C   UNL     1       3.094   5.661  19.389  0.00  0.00    +0.000 A 
ENDBRANCH   9  15
TORSDOF 1
ENDMDL
MODEL 5
REMARK VINA RESULT:      -7.5      2.764      5.403
REMARK  Name = 
REMARK  3 active torsions:
REMARK  status: ('A' for Active; 'I' for Inactive)
REMARK    1  A    between atoms: C_1  and  C_2
REMARK    2  A    between atoms: C_7  and  C_8
REMARK    3  A    between atoms: C_9  and  C_10
REMARK                            x       y       z     vdW  Elec       q    Type
REMARK                         _______ _______ _______ _____ _____    ______ ____
ROOT
ATOM      1  C   UNL     1       1.549   2.659  21.518  0.00  0.00    +0.000 C 
ATOM      2  C   UNL     1       2.236   3.443  20.433  0.00  0.00    +0.000 A 
ATOM      3  C   UNL     1       1.923   4.802  20.264  0.00  0.00    +0.000 A 
ATOM      4  C   UNL     1       2.562   5.560  19.283  0.00  0.00    +0.000 A 
ATOM      5  C   UNL     1       3.516   4.979  18.446  0.00  0.00    +0.000 A 
ATOM      6  C   UNL     1       3.831   3.624  18.611  0.00  0.00    +0.000 A 
ATOM      7  C   UNL     1       3.205   2.850  19.602  0.00  0.00    +0.000 A 
ATOM      8  C   UNL     1       3.608   1.408  19.768  0.00  0.00    +0.000 C 
ATOM      9  C   UNL     1       4.256   5.829  17.434  0.00  0.00    +0.000 C 
ATOM     10  C   UNL     1       3.453   7.073  17.044  0.00  0.00    +0.000 C 
ATOM     11  C   UNL     1       2.809   7.750  18.229  0.00  0.00    +0.000 C 
ATOM     12  O   UNL     1       2.659   8.969  18.294  0.00  0.00    +0.000 OA
ATOM     13  N   UNL     1       2.288   6.927  19.189  0.00  0.00    +0.000 N 
ATOM     14  H   UNL     1       1.739   7.381  19.907  0.00  0.00    +0.000 HD
ENDROOT
BRANCH   9  15
ATOM     15  C   UNL     1       5.673   6.181  17.870  0.00  0.00    +0.000 A 
ATOM     16  C   UNL     1       6.349   5.458  18.868  0.00  0.00    +0.000 A 
ATOM     17  C   UNL     1       7.633   5.826  19.279  0.00  0.00    +0.000 A 
ATOM     18  C   UNL     1       8.266   6.918  18.691  0.00  0.00    +0.000 A 
ATOM     19  C   UNL     1       7.609   7.628  17.694  0.00  0.00    +0.000 A 
ATOM     20  F   UNL     1       8.220   8.673  17.121  0.00  0.00    +0.000 F 
ATOM     21  C   UNL     1       6.330   7.273  17.279  0.00  0.00    +0.000 A 
ENDBRANCH   9  15
TORSDOF 1
ENDMDL
MODEL 6
REMARK VINA RESULT:      -7.5      3.934      5.216
REMARK  Name = 
REMARK  3 active torsions:
REMARK  status: ('A' for Active; 'I' for Inactive)
REMARK    1  A    between atoms: C_1  and  C_2
REMARK    2  A    between atoms: C_7  and  C_8
REMARK    3  A    between atoms: C_9  and  C_10
REMARK                            x       y       z     vdW  Elec       q    Type
REMARK                         _______ _______ _______ _____ _____    ______ ____
ROOT
ATOM      1  C   UNL     1       7.357   5.086  11.595  0.00  0.00    +0.000 C 
ATOM      2  C   UNL     1       6.972   4.784  13.018  0.00  0.00    +0.000 A 
ATOM      3  C   UNL     1       7.538   5.540  14.057  0.00  0.00    +0.000 A 
ATOM      4  C   UNL     1       7.181   5.299  15.384  0.00  0.00    +0.000 A 
ATOM      5  C   UNL     1       6.262   4.298  15.702  0.00  0.00    +0.000 A 
ATOM      6  C   UNL     1       5.695   3.543  14.668  0.00  0.00    +0.000 A 
ATOM      7  C   UNL     1       6.035   3.779  13.326  0.00  0.00    +0.000 A 
ATOM      8  C   UNL     1       5.367   2.969  12.247  0.00  0.00    +0.000 C 
ATOM      9  C   UNL     1       5.826   4.096  17.138  0.00  0.00    +0.000 C 
ATOM     10  C   UNL     1       6.880   4.603  18.127  0.00  0.00    +0.000 C 
ATOM     11  C   UNL     1       7.467   5.934  17.726  0.00  0.00    +0.000 C 
ATOM     12  O   UNL     1       7.818   6.777  18.550  0.00  0.00    +0.000 OA
ATOM     13  N   UNL     1       7.700   6.117  16.391  0.00  0.00    +0.000 N 
ATOM     14  H   UNL     1       8.218   6.952  16.146  0.00  0.00    +0.000 HD
ENDROOT
BRANCH   9  15
ATOM     15  C   UNL     1       4.447   4.673  17.433  0.00  0.00    +0.000 A 
ATOM     16  C   UNL     1       3.299   3.865  17.504  0.00  0.00    +0.000 A 
ATOM     17  C   UNL     1       2.039   4.423  17.736  0.00  0.00    +0.000 A 
ATOM     18  C   UNL     1       1.909   5.799  17.909  0.00  0.00    +0.000 A 
ATOM     19  C   UNL     1       3.041   6.600  17.854  0.00  0.00    +0.000 A 
ATOM     20  F   UNL     1       2.919   7.923  18.031  0.00  0.00    +0.000 F 
ATOM     21  C   UNL     1       4.300   6.057  17.622  0.00  0.00    +0.000 A 
ENDBRANCH   9  15
TORSDOF 1
ENDMDL
MODEL 7
REMARK VINA RESULT:      -7.4      2.675      5.226
REMARK  Name = 
REMARK  3 active torsions:
REMARK  status: ('A' for Active; 'I' for Inactive)
REMARK    1  A    between atoms: C_1  and  C_2
REMARK    2  A    between atoms: C_7  and  C_8
REMARK    3  A    between atoms: C_9  and  C_10
REMARK                            x       y       z     vdW  Elec       q    Type
REMARK                         _______ _______ _______ _____ _____    ______ ____
ROOT
ATOM      1  C   UNL     1       1.397   2.280  20.139  0.00  0.00    +0.000 C 
ATOM      2  C   UNL     1       2.174   3.243  19.283  0.00  0.00    +0.000 A 
ATOM      3  C   UNL     1       1.835   4.606  19.302  0.00  0.00    +0.000 A 
ATOM      4  C   UNL     1       2.554   5.525  18.538  0.00  0.00    +0.000 A 
ATOM      5  C   UNL     1       3.615   5.106  17.735  0.00  0.00    +0.000 A 
ATOM      6  C   UNL     1       3.956   3.747  17.713  0.00  0.00    +0.000 A 
ATOM      7  C   UNL     1       3.250   2.810  18.485  0.00  0.00    +0.000 A 
ATOM      8  C   UNL     1       3.681   1.368  18.461  0.00  0.00    +0.000 C 
ATOM      9  C   UNL     1       4.435   6.123  16.968  0.00  0.00    +0.000 C 
ATOM     10  C   UNL     1       3.638   7.402  16.694  0.00  0.00    +0.000 C 
ATOM     11  C   UNL     1       2.842   7.864  17.890  0.00  0.00    +0.000 C 
ATOM     12  O   UNL     1       2.644   9.052  18.134  0.00  0.00    +0.000 OA
ATOM     13  N   UNL     1       2.245   6.885  18.636  0.00  0.00    +0.000 N 
ATOM     14  H   UNL     1       1.604   7.206  19.350  0.00  0.00    +0.000 HD
ENDROOT
BRANCH   9  15
ATOM     15  C   UNL     1       5.781   6.420  17.617  0.00  0.00    +0.000 A 
ATOM     16  C   UNL     1       6.629   7.437  17.144  0.00  0.00    +0.000 A 
ATOM     17  C   UNL     1       7.877   7.664  17.731  0.00  0.00    +0.000 A 
ATOM     18  C   UNL     1       8.293   6.882  18.806  0.00  0.00    +0.000 A 
ATOM     19  C   UNL     1       7.454   5.886  19.285  0.00  0.00    +0.000 A 
ATOM     20  F   UNL     1       7.848   5.139  20.326  0.00  0.00    +0.000 F 
ATOM     21  C   UNL     1       6.211   5.648  18.708  0.00  0.00    +0.000 A 
ENDBRANCH   9  15
TORSDOF 1
ENDMDL
MODEL 8
REMARK VINA RESULT:      -7.4      4.038      6.376
REMARK  Name = 
REMARK  3 active torsions:
REMARK  status: ('A' for Active; 'I' for Inactive)
REMARK    1  A    between atoms: C_1  and  C_2
REMARK    2  A    between atoms: C_7  and  C_8
REMARK    3  A    between atoms: C_9  and  C_10
REMARK                            x       y       z     vdW  Elec       q    Type
REMARK                         _______ _______ _______ _____ _____    ______ ____
ROOT
ATOM      1  C   UNL     1       1.903   2.554  20.054  0.00  0.00    +0.000 C 
ATOM      2  C   UNL     1       2.797   3.477  19.272  0.00  0.00    +0.000 A 
ATOM      3  C   UNL     1       4.140   3.623  19.657  0.00  0.00    +0.000 A 
ATOM      4  C   UNL     1       4.998   4.453  18.935  0.00  0.00    +0.000 A 
ATOM      5  C   UNL     1       4.536   5.159  17.825  0.00  0.00    +0.000 A 
ATOM      6  C   UNL     1       3.197   5.017  17.437  0.00  0.00    +0.000 A 
ATOM      7  C   UNL     1       2.323   4.177  18.145  0.00  0.00    +0.000 A 
ATOM      8  C   UNL     1       0.904   4.025  17.666  0.00  0.00    +0.000 C 
ATOM      9  C   UNL     1       5.494   5.999  17.006  0.00  0.00    +0.000 C 
ATOM     10  C   UNL     1       6.704   6.445  17.832  0.00  0.00    +0.000 C 
ATOM     11  C   UNL     1       7.262   5.342  18.697  0.00  0.00    +0.000 C 
ATOM     12  O   UNL     1       8.462   5.238  18.947  0.00  0.00    +0.000 OA
ATOM     13  N   UNL     1       6.347   4.518  19.294  0.00  0.00    +0.000 N 
ATOM     14  H   UNL     1       6.719   3.871  19.979  0.00  0.00    +0.000 HD
ENDROOT
BRANCH   9  15
ATOM     15  C   UNL     1       5.912   5.331  15.702  0.00  0.00    +0.000 A 
ATOM     16  C   UNL     1       5.211   4.237  15.165  0.00  0.00    +0.000 A 
ATOM     17  C   UNL     1       5.638   3.615  13.988  0.00  0.00    +0.000 A 
ATOM     18  C   UNL     1       6.769   4.084  13.325  0.00  0.00    +0.000 A 
ATOM     19  C   UNL     1       7.457   5.173  13.843  0.00  0.00    +0.000 A 
ATOM     20  F   UNL     1       8.540   5.632  13.200  0.00  0.00    +0.000 F 
ATOM     21  C   UNL     1       7.044   5.798  15.014  0.00  0.00    +0.000 A 
ENDBRANCH   9  15
TORSDOF 1
ENDMDL
MODEL 9
REMARK VINA RESULT:      -7.3      4.570      6.608
REMARK  Name = 
REMARK  3 active torsions:
REMARK  status: ('A' for Active; 'I' for Inactive)
REMARK    1  A    between atoms: C_1  and  C_2
REMARK    2  A    between atoms: C_7  and  C_8
REMARK    3  A    between atoms: C_9  and  C_10
REMARK                            x       y       z     vdW  Elec       q    Type
REMARK                         _______ _______ _______ _____ _____    ______ ____
ROOT
ATOM      1  C   UNL     1       4.376   2.146  20.403  0.00  0.00    +0.000 C 
ATOM      2  C   UNL     1       4.473   3.081  19.228  0.00  0.00    +0.000 A 
ATOM      3  C   UNL     1       5.403   4.133  19.262  0.00  0.00    +0.000 A 
ATOM      4  C   UNL     1       5.532   5.000  18.177  0.00  0.00    +0.000 A 
ATOM      5  C   UNL     1       4.734   4.844  17.043  0.00  0.00    +0.000 A 
ATOM      6  C   UNL     1       3.805   3.796  17.005  0.00  0.00    +0.000 A 
ATOM      7  C   UNL     1       3.670   2.907  18.084  0.00  0.00    +0.000 A 
ATOM      8  C   UNL     1       2.687   1.771  17.979  0.00  0.00    +0.000 C 
ATOM      9  C   UNL     1       4.934   5.745  15.843  0.00  0.00    +0.000 C 
ATOM     10  C   UNL     1       5.564   7.083  16.238  0.00  0.00    +0.000 C 
ATOM     11  C   UNL     1       6.694   6.929  17.228  0.00  0.00    +0.000 C 
ATOM     12  O   UNL     1       7.676   7.670  17.232  0.00  0.00    +0.000 OA
ATOM     13  N   UNL     1       6.519   5.990  18.206  0.00  0.00    +0.000 N 
ATOM     14  H   UNL     1       7.213   5.987  18.943  0.00  0.00    +0.000 HD
ENDROOT
BRANCH   9  15
ATOM     15  C   UNL     1       5.696   5.071  14.708  0.00  0.00    +0.000 A 
ATOM     16  C   UNL     1       7.058   5.324  14.471  0.00  0.00    +0.000 A 
ATOM     17  C   UNL     1       7.726   4.725  13.399  0.00  0.00    +0.000 A 
ATOM     18  C   UNL     1       7.042   3.856  12.552  0.00  0.00    +0.000 A 
ATOM     19  C   UNL     1       5.700   3.592  12.790  0.00  0.00    +0.000 A 
ATOM     20  F   UNL     1       5.044   2.748  11.982  0.00  0.00    +0.000 F 
ATOM     21  C   UNL     1       5.025   4.184  13.852  0.00  0.00    +0.000 A 
ENDBRANCH   9  15
TORSDOF 1
ENDMDL
