MODEL 1
REMARK VINA RESULT:      -6.9      0.000      0.000
REMARK  Name = 
REMARK  6 active torsions:
REMARK  status: ('A' for Active; 'I' for Inactive)
REMARK    1  A    between atoms: C_1  and  O_2
REMARK    2  A    between atoms: O_2  and  C_3
REMARK    3  A    between atoms: C_3  and  C_4
REMARK    4  A    between atoms: C_4  and  N_5
REMARK    5  A    between atoms: C_9  and  C_10
REMARK    6  A    between atoms: C_10  and  C_11
REMARK                            x       y       z     vdW  Elec       q    Type
REMARK                         _______ _______ _______ _____ _____    ______ ____
ROOT
ATOM      1  N   UNL     1       7.435   6.371  16.901  0.00  0.00    +0.000 N 
ATOM      2  C   UNL     1       6.172   5.754  16.995  0.00  0.00    +0.000 A 
ATOM      3  C   UNL     1       5.890   4.711  16.118  0.00  0.00    +0.000 A 
ATOM      4  C   UNL     1       4.652   4.074  16.183  0.00  0.00    +0.000 A 
ATOM      5  C   UNL     1       3.712   4.473  17.127  0.00  0.00    +0.000 A 
ATOM      6  C   UNL     1       4.043   5.595  17.883  0.00  0.00    +0.000 A 
ATOM      7  N   UNL     1       5.242   6.223  17.843  0.00  0.00    +0.000 NA
ATOM      8  H   UNL     1       8.151   5.668  16.727  0.00  0.00    +0.000 HD
ENDROOT
BRANCH   1   9
ATOM      9  C   UNL     1       7.833   7.158  18.074  0.00  0.00    +0.000 C 
BRANCH   9  10
ATOM     10  C   UNL     1       7.938   8.647  17.711  0.00  0.00    +0.000 C 
BRANCH  10  12
ATOM     11  C   UNL     1       9.115  10.618  18.293  0.00  0.00    +0.000 C 
ATOM     12  O   UNL     1       8.750   9.306  18.699  0.00  0.00    +0.000 OA
ENDBRANCH  10  12
ENDBRANCH   9  10
ENDBRANCH   1   9
BRANCH   5  13
ATOM     13  C   UNL     1       2.424   3.738  17.327  0.00  0.00    +0.000 C 
BRANCH  13  14
ATOM     14  C   UNL     1       2.425   2.442  18.183  0.00  0.00    +0.000 C 
ATOM     15  C   UNL     1       1.154   2.205  19.006  0.00  0.00    +0.000 C 
ATOM     16  C   UNL     1       1.157   2.981  20.317  0.00  0.00    +0.000 C 
ATOM     17  C   UNL     1       2.433   2.768  21.132  0.00  0.00    +0.000 C 
ATOM     18  N   UNL     1       3.692   2.735  20.400  0.00  0.00    +0.000 NA
ATOM     19  C   UNL     1       3.675   2.199  19.046  0.00  0.00    +0.000 C 
ATOM     20  H   UNL     1       4.214   3.597  20.487  0.00  0.00    +0.000 HD
ENDBRANCH  13  14
ENDBRANCH   5  13
TORSDOF 5
ENDMDL
MODEL 2
REMARK VINA RESULT:      -6.8      3.395      4.661
REMARK  Name = 
REMARK  6 active torsions:
REMARK  status: ('A' for Active; 'I' for Inactive)
REMARK    1  A    between atoms: C_1  and  O_2
REMARK    2  A    between atoms: O_2  and  C_3
REMARK    3  A    between atoms: C_3  and  C_4
REMARK    4  A    between atoms: C_4  and  N_5
REMARK    5  A    between atoms: C_9  and  C_10
REMARK    6  A    between atoms: C_10  and  C_11
REMARK                            x       y       z     vdW  Elec       q    Type
REMARK                         _______ _______ _______ _____ _____    ______ ____
ROOT
ATOM      1  N   UNL     1       6.417   5.252  14.418  0.00  0.00    +0.000 N 
ATOM      2  C   UNL     1       5.751   5.283  15.658  0.00  0.00    +0.000 A 
ATOM      3  C   UNL     1       5.147   6.476  16.044  0.00  0.00    +0.000 A 
ATOM      4  C   UNL     1       4.476   6.544  17.264  0.00  0.00    +0.000 A 
ATOM      5  C   UNL     1       4.402   5.421  18.082  0.00  0.00    +0.000 A 
ATOM      6  C   UNL     1       5.129   4.310  17.663  0.00  0.00    +0.000 A 
ATOM      7  N   UNL     1       5.781   4.219  16.478  0.00  0.00    +0.000 NA
ATOM      8  H   UNL     1       5.885   5.780  13.727  0.00  0.00    +0.000 HD
ENDROOT
BRANCH   1   9
ATOM      9  C   UNL     1       6.672   3.910  13.880  0.00  0.00    +0.000 C 
BRANCH   9  10
ATOM     10  C   UNL     1       6.456   3.891  12.359  0.00  0.00    +0.000 C 
BRANCH  10  12
ATOM     11  C   UNL     1       4.422   3.186  11.372  0.00  0.00    +0.000 C 
ATOM     12  O   UNL     1       5.613   2.773  12.029  0.00  0.00    +0.000 OA
ENDBRANCH  10  12
ENDBRANCH   9  10
ENDBRANCH   1   9
BRANCH   5  13
ATOM     13  C   UNL     1       3.583   5.402  19.335  0.00  0.00    +0.000 C 
BRANCH  13  14
ATOM     14  C   UNL     1       2.050   5.183  19.226  0.00  0.00    +0.000 C 
ATOM     15  C   UNL     1       1.397   4.535  20.452  0.00  0.00    +0.000 C 
ATOM     16  C   UNL     1       1.538   3.018  20.453  0.00  0.00    +0.000 C 
ATOM     17  C   UNL     1       1.087   2.378  19.140  0.00  0.00    +0.000 C 
ATOM     18  N   UNL     1       1.458   3.058  17.907  0.00  0.00    +0.000 NA
ATOM     19  C   UNL     1       1.550   4.511  17.936  0.00  0.00    +0.000 C 
ATOM     20  H   UNL     1       2.234   2.612  17.435  0.00  0.00    +0.000 HD
ENDBRANCH  13  14
ENDBRANCH   5  13
TORSDOF 5
ENDMDL
MODEL 3
REMARK VINA RESULT:      -6.5      2.436      3.438
REMARK  Name = 
REMARK  6 active torsions:
REMARK  status: ('A' for Active; 'I' for Inactive)
REMARK    1  A    between atoms: C_1  and  O_2
REMARK    2  A    between atoms: O_2  and  C_3
REMARK    3  A    between atoms: C_3  and  C_4
REMARK    4  A    between atoms: C_4  and  N_5
REMARK    5  A    between atoms: C_9  and  C_10
REMARK    6  A    between atoms: C_10  and  C_11
REMARK                            x       y       z     vdW  Elec       q    Type
REMARK                         _______ _______ _______ _____ _____    ______ ____
ROOT
ATOM      1  N   UNL     1       5.862   6.770  16.900  0.00  0.00    +0.000 N 
ATOM      2  C   UNL     1       4.820   6.391  17.769  0.00  0.00    +0.000 A 
ATOM      3  C   UNL     1       3.527   6.795  17.451  0.00  0.00    +0.000 A 
ATOM      4  C   UNL     1       2.469   6.437  18.285  0.00  0.00    +0.000 A 
ATOM      5  C   UNL     1       2.707   5.669  19.420  0.00  0.00    +0.000 A 
ATOM      6  C   UNL     1       4.043   5.408  19.713  0.00  0.00    +0.000 A 
ATOM      7  N   UNL     1       5.085   5.739  18.913  0.00  0.00    +0.000 NA
ATOM      8  H   UNL     1       5.548   6.700  15.933  0.00  0.00    +0.000 HD
ENDROOT
BRANCH   1   9
ATOM      9  C   UNL     1       7.103   6.000  17.043  0.00  0.00    +0.000 C 
BRANCH   9  10
ATOM     10  C   UNL     1       7.080   4.769  16.125  0.00  0.00    +0.000 C 
BRANCH  10  12
ATOM     11  C   UNL     1       6.695   4.557  13.798  0.00  0.00    +0.000 C 
ATOM     12  O   UNL     1       7.489   5.170  14.806  0.00  0.00    +0.000 OA
ENDBRANCH  10  12
ENDBRANCH   9  10
ENDBRANCH   1   9
BRANCH   5  13
ATOM     13  C   UNL     1       1.595   5.145  20.274  0.00  0.00    +0.000 C 
BRANCH  13  14
ATOM     14  C   UNL     1       1.169   3.660  20.123  0.00  0.00    +0.000 C 
ATOM     15  C   UNL     1       1.969   2.664  20.969  0.00  0.00    +0.000 C 
ATOM     16  C   UNL     1       3.289   2.275  20.316  0.00  0.00    +0.000 C 
ATOM     17  C   UNL     1       3.123   1.813  18.868  0.00  0.00    +0.000 C 
ATOM     18  N   UNL     1       2.188   2.558  18.036  0.00  0.00    +0.000 NA
ATOM     19  C   UNL     1       1.020   3.139  18.683  0.00  0.00    +0.000 C 
ATOM     20  H   UNL     1       2.654   3.190  17.399  0.00  0.00    +0.000 HD
ENDBRANCH  13  14
ENDBRANCH   5  13
TORSDOF 5
ENDMDL
MODEL 4
REMARK VINA RESULT:      -6.4      1.411      2.328
REMARK  Name = 
REMARK  6 active torsions:
REMARK  status: ('A' for Active; 'I' for Inactive)
REMARK    1  A    between atoms: C_1  and  O_2
REMARK    2  A    between atoms: O_2  and  C_3
REMARK    3  A    between atoms: C_3  and  C_4
REMARK    4  A    between atoms: C_4  and  N_5
REMARK    5  A    between atoms: C_9  and  C_10
REMARK    6  A    between atoms: C_10  and  C_11
REMARK                            x       y       z     vdW  Elec       q    Type
REMARK                         _______ _______ _______ _____ _____    ______ ____
ROOT
ATOM      1  N   UNL     1       8.356   7.978  18.297  0.00  0.00    +0.000 N 
ATOM      2  C   UNL     1       7.502   6.926  17.913  0.00  0.00    +0.000 A 
ATOM      3  C   UNL     1       7.510   5.767  18.682  0.00  0.00    +0.000 A 
ATOM      4  C   UNL     1       6.675   4.706  18.335  0.00  0.00    +0.000 A 
ATOM      5  C   UNL     1       5.832   4.814  17.235  0.00  0.00    +0.000 A 
ATOM      6  C   UNL     1       5.976   5.965  16.465  0.00  0.00    +0.000 A 
ATOM      7  N   UNL     1       6.773   7.012  16.788  0.00  0.00    +0.000 NA
ATOM      8  H   UNL     1       8.368   8.061  19.312  0.00  0.00    +0.000 HD
ENDROOT
BRANCH   1   9
ATOM      9  C   UNL     1       8.026   9.289  17.727  0.00  0.00    +0.000 C 
BRANCH   9  10
ATOM     10  C   UNL     1       8.917  10.381  18.340  0.00  0.00    +0.000 C 
BRANCH  10  12
ATOM     11  C   UNL     1       9.526  11.111  20.508  0.00  0.00    +0.000 C 
ATOM     12  O   UNL     1       9.274   9.986  19.676  0.00  0.00    +0.000 OA
ENDBRANCH  10  12
ENDBRANCH   9  10
ENDBRANCH   1   9
BRANCH   5  13
ATOM     13  C   UNL     1       4.823   3.760  16.898  0.00  0.00    +0.000 C 
BRANCH  13  14
ATOM     14  C   UNL     1       3.353   3.956  17.358  0.00  0.00    +0.000 C 
ATOM     15  C   UNL     1       3.180   4.726  18.672  0.00  0.00    +0.000 C 
ATOM     16  C   UNL     1       3.365   3.837  19.895  0.00  0.00    +0.000 C 
ATOM     17  C   UNL     1       2.515   2.567  19.842  0.00  0.00    +0.000 C 
ATOM     18  N   UNL     1       2.419   1.885  18.559  0.00  0.00    +0.000 NA
ATOM     19  C   UNL     1       2.466   2.700  17.353  0.00  0.00    +0.000 C 
ATOM     20  H   UNL     1       3.003   1.060  18.513  0.00  0.00    +0.000 HD
ENDBRANCH  13  14
ENDBRANCH   5  13
TORSDOF 5
ENDMDL
MODEL 5
REMARK VINA RESULT:      -6.3      3.051      4.167
REMARK  Name = 
REMARK  6 active torsions:
REMARK  status: ('A' for Active; 'I' for Inactive)
REMARK    1  A    between atoms: C_1  and  O_2
REMARK    2  A    between atoms: O_2  and  C_3
REMARK    3  A    between atoms: C_3  and  C_4
REMARK    4  A    between atoms: C_4  and  N_5
REMARK    5  A    between atoms: C_9  and  C_10
REMARK    6  A    between atoms: C_10  and  C_11
REMARK                            x       y       z     vdW  Elec       q    Type
REMARK                         _______ _______ _______ _____ _____    ______ ____
ROOT
ATOM      1  N   UNL     1       5.972   6.025  15.495  0.00  0.00    +0.000 N 
ATOM      2  C   UNL     1       5.330   5.745  16.717  0.00  0.00    +0.000 A 
ATOM      3  C   UNL     1       4.153   6.427  17.006  0.00  0.00    +0.000 A 
ATOM      4  C   UNL     1       3.488   6.174  18.205  0.00  0.00    +0.000 A 
ATOM      5  C   UNL     1       3.995   5.236  19.098  0.00  0.00    +0.000 A 
ATOM      6  C   UNL     1       5.233   4.689  18.773  0.00  0.00    +0.000 A 
ATOM      7  N   UNL     1       5.892   4.913  17.610  0.00  0.00    +0.000 NA
ATOM      8  H   UNL     1       5.277   6.141  14.759  0.00  0.00    +0.000 HD
ENDROOT
BRANCH   1   9
ATOM      9  C   UNL     1       6.948   5.021  15.058  0.00  0.00    +0.000 C 
BRANCH   9  10
ATOM     10  C   UNL     1       6.244   3.871  14.322  0.00  0.00    +0.000 C 
BRANCH  10  12
ATOM     11  C   UNL     1       5.785   3.080  12.137  0.00  0.00    +0.000 C 
ATOM     12  O   UNL     1       6.609   3.924  12.932  0.00  0.00    +0.000 OA
ENDBRANCH  10  12
ENDBRANCH   9  10
ENDBRANCH   1   9
BRANCH   5  13
ATOM     13  C   UNL     1       3.253   4.830  20.333  0.00  0.00    +0.000 C 
BRANCH  13  14
ATOM     14  C   UNL     1       2.818   3.348  20.494  0.00  0.00    +0.000 C 
ATOM     15  C   UNL     1       3.073   2.460  19.271  0.00  0.00    +0.000 C 
ATOM     16  C   UNL     1       1.978   2.589  18.220  0.00  0.00    +0.000 C 
ATOM     17  C   UNL     1       0.574   2.405  18.798  0.00  0.00    +0.000 C 
ATOM     18  N   UNL     1       0.301   3.018  20.091  0.00  0.00    +0.000 NA
ATOM     19  C   UNL     1       1.401   3.112  21.042  0.00  0.00    +0.000 C 
ATOM     20  H   UNL     1      -0.238   3.870  20.011  0.00  0.00    +0.000 HD
ENDBRANCH  13  14
ENDBRANCH   5  13
TORSDOF 5
ENDMDL
MODEL 6
REMARK VINA RESULT:      -6.3      2.915      3.623
REMARK  Name = 
REMARK  6 active torsions:
REMARK  status: ('A' for Active; 'I' for Inactive)
REMARK    1  A    between atoms: C_1  and  O_2
REMARK    2  A    between atoms: O_2  and  C_3
REMARK    3  A    between atoms: C_3  and  C_4
REMARK    4  A    between atoms: C_4  and  N_5
REMARK    5  A    between atoms: C_9  and  C_10
REMARK    6  A    between atoms: C_10  and  C_11
REMARK                            x       y       z     vdW  Elec       q    Type
REMARK                         _______ _______ _______ _____ _____    ______ ____
ROOT
ATOM      1  N   UNL     1       6.601   5.701  16.705  0.00  0.00    +0.000 N 
ATOM      2  C   UNL     1       5.296   5.269  17.015  0.00  0.00    +0.000 A 
ATOM      3  C   UNL     1       4.393   6.214  17.489  0.00  0.00    +0.000 A 
ATOM      4  C   UNL     1       3.091   5.824  17.804  0.00  0.00    +0.000 A 
ATOM      5  C   UNL     1       2.700   4.501  17.630  0.00  0.00    +0.000 A 
ATOM      6  C   UNL     1       3.703   3.610  17.257  0.00  0.00    +0.000 A 
ATOM      7  N   UNL     1       4.970   3.968  16.939  0.00  0.00    +0.000 NA
ATOM      8  H   UNL     1       6.564   6.616  16.257  0.00  0.00    +0.000 HD
ENDROOT
BRANCH   1   9
ATOM      9  C   UNL     1       7.371   4.794  15.846  0.00  0.00    +0.000 C 
BRANCH   9  10
ATOM     10  C   UNL     1       6.915   4.920  14.385  0.00  0.00    +0.000 C 
BRANCH  10  12
ATOM     11  C   UNL     1       6.189   3.617  12.546  0.00  0.00    +0.000 C 
ATOM     12  O   UNL     1       6.406   3.647  13.951  0.00  0.00    +0.000 OA
ENDBRANCH  10  12
ENDBRANCH   9  10
ENDBRANCH   1   9
BRANCH   5  13
ATOM     13  C   UNL     1       1.283   4.058  17.825  0.00  0.00    +0.000 C 
BRANCH  13  14
ATOM     14  C   UNL     1       0.908   3.295  19.124  0.00  0.00    +0.000 C 
ATOM     15  C   UNL     1       0.814   4.163  20.384  0.00  0.00    +0.000 C 
ATOM     16  C   UNL     1       2.176   4.419  21.016  0.00  0.00    +0.000 C 
ATOM     17  C   UNL     1       2.976   3.136  21.245  0.00  0.00    +0.000 C 
ATOM     18  N   UNL     1       2.933   2.129  20.194  0.00  0.00    +0.000 NA
ATOM     19  C   UNL     1       1.707   2.014  19.415  0.00  0.00    +0.000 C 
ATOM     20  H   UNL     1       3.773   2.120  19.630  0.00  0.00    +0.000 HD
ENDBRANCH  13  14
ENDBRANCH   5  13
TORSDOF 5
ENDMDL
MODEL 7
REMARK VINA RESULT:      -6.3      3.108      4.326
REMARK  Name = 
REMARK  6 active torsions:
REMARK  status: ('A' for Active; 'I' for Inactive)
REMARK    1  A    between atoms: C_1  and  O_2
REMARK    2  A    between atoms: O_2  and  C_3
REMARK    3  A    between atoms: C_3  and  C_4
REMARK    4  A    between atoms: C_4  and  N_5
REMARK    5  A    between atoms: C_9  and  C_10
REMARK    6  A    between atoms: C_10  and  C_11
REMARK                            x       y       z     vdW  Elec       q    Type
REMARK                         _______ _______ _______ _____ _____    ______ ____
ROOT
ATOM      1  N   UNL     1       7.394   4.668  15.514  0.00  0.00    +0.000 N 
ATOM      2  C   UNL     1       6.416   4.757  16.523  0.00  0.00    +0.000 A 
ATOM      3  C   UNL     1       6.840   4.717  17.848  0.00  0.00    +0.000 A 
ATOM      4  C   UNL     1       5.900   4.806  18.874  0.00  0.00    +0.000 A 
ATOM      5  C   UNL     1       4.550   4.946  18.571  0.00  0.00    +0.000 A 
ATOM      6  C   UNL     1       4.213   4.864  17.223  0.00  0.00    +0.000 A 
ATOM      7  N   UNL     1       5.110   4.787  16.209  0.00  0.00    +0.000 NA
ATOM      8  H   UNL     1       8.218   5.204  15.784  0.00  0.00    +0.000 HD
ENDROOT
BRANCH   1   9
ATOM      9  C   UNL     1       6.963   5.116  14.185  0.00  0.00    +0.000 C 
BRANCH   9  10
ATOM     10  C   UNL     1       6.713   3.910  13.267  0.00  0.00    +0.000 C 
BRANCH  10  12
ATOM     11  C   UNL     1       5.053   3.045  11.817  0.00  0.00    +0.000 C 
ATOM     12  O   UNL     1       5.309   3.845  12.964  0.00  0.00    +0.000 OA
ENDBRANCH  10  12
ENDBRANCH   9  10
ENDBRANCH   1   9
BRANCH   5  13
ATOM     13  C   UNL     1       3.517   5.179  19.630  0.00  0.00    +0.000 C 
BRANCH  13  14
ATOM     14  C   UNL     1       2.993   3.967  20.445  0.00  0.00    +0.000 C 
ATOM     15  C   UNL     1       3.223   2.597  19.796  0.00  0.00    +0.000 C 
ATOM     16  C   UNL     1       2.162   2.261  18.756  0.00  0.00    +0.000 C 
ATOM     17  C   UNL     1       0.737   2.428  19.285  0.00  0.00    +0.000 C 
ATOM     18  N   UNL     1       0.471   3.588  20.124  0.00  0.00    +0.000 NA
ATOM     19  C   UNL     1       1.551   4.074  20.971  0.00  0.00    +0.000 C 
ATOM     20  H   UNL     1      -0.015   4.323  19.627  0.00  0.00    +0.000 HD
ENDBRANCH  13  14
ENDBRANCH   5  13
TORSDOF 5
ENDMDL
MODEL 8
REMARK VINA RESULT:      -6.2      1.606      2.417
REMARK  Name = 
REMARK  6 active torsions:
REMARK  status: ('A' for Active; 'I' for Inactive)
REMARK    1  A    between atoms: C_1  and  O_2
REMARK    2  A    between atoms: O_2  and  C_3
REMARK    3  A    between atoms: C_3  and  C_4
REMARK    4  A    between atoms: C_4  and  N_5
REMARK    5  A    between atoms: C_9  and  C_10
REMARK    6  A    between atoms: C_10  and  C_11
REMARK                            x       y       z     vdW  Elec       q    Type
REMARK                         _______ _______ _______ _____ _____    ______ ____
ROOT
ATOM      1  N   UNL     1       8.421   7.917  18.281  0.00  0.00    +0.000 N 
ATOM      2  C   UNL     1       7.346   7.048  18.008  0.00  0.00    +0.000 A 
ATOM      3  C   UNL     1       7.336   5.807  18.637  0.00  0.00    +0.000 A 
ATOM      4  C   UNL     1       6.287   4.922  18.394  0.00  0.00    +0.000 A 
ATOM      5  C   UNL     1       5.253   5.286  17.539  0.00  0.00    +0.000 A 
ATOM      6  C   UNL     1       5.407   6.499  16.873  0.00  0.00    +0.000 A 
ATOM      7  N   UNL     1       6.413   7.378  17.100  0.00  0.00    +0.000 NA
ATOM      8  H   UNL     1       8.667   7.863  19.268  0.00  0.00    +0.000 HD
ENDROOT
BRANCH   1   9
ATOM      9  C   UNL     1       8.189   9.324  17.936  0.00  0.00    +0.000 C 
BRANCH   9  10
ATOM     10  C   UNL     1       9.081  10.240  18.787  0.00  0.00    +0.000 C 
BRANCH  10  12
ATOM     11  C   UNL     1      10.612  12.036  18.588  0.00  0.00    +0.000 C 
ATOM     12  O   UNL     1       9.960  10.968  17.912  0.00  0.00    +0.000 OA
ENDBRANCH  10  12
ENDBRANCH   9  10
ENDBRANCH   1   9
BRANCH   5  13
ATOM     13  C   UNL     1       4.039   4.430  17.348  0.00  0.00    +0.000 C 
BRANCH  13  14
ATOM     14  C   UNL     1       2.681   4.918  17.921  0.00  0.00    +0.000 C 
ATOM     15  C   UNL     1       2.672   5.194  19.428  0.00  0.00    +0.000 C 
ATOM     16  C   UNL     1       2.479   3.926  20.251  0.00  0.00    +0.000 C 
ATOM     17  C   UNL     1       1.274   3.101  19.798  0.00  0.00    +0.000 C 
ATOM     18  N   UNL     1       1.054   2.978  18.364  0.00  0.00    +0.000 NA
ATOM     19  C   UNL     1       1.442   4.099  17.520  0.00  0.00    +0.000 C 
ATOM     20  H   UNL     1       1.346   2.079  18.002  0.00  0.00    +0.000 HD
ENDBRANCH  13  14
ENDBRANCH   5  13
TORSDOF 5
ENDMDL
MODEL 9
REMARK VINA RESULT:      -6.2      1.142      1.376
REMARK  Name = 
REMARK  6 active torsions:
REMARK  status: ('A' for Active; 'I' for Inactive)
REMARK    1  A    between atoms: C_1  and  O_2
REMARK    2  A    between atoms: O_2  and  C_3
REMARK    3  A    between atoms: C_3  and  C_4
REMARK    4  A    between atoms: C_4  and  N_5
REMARK    5  A    between atoms: C_9  and  C_10
REMARK    6  A    between atoms: C_10  and  C_11
REMARK                            x       y       z     vdW  Elec       q    Type
REMARK                         _______ _______ _______ _____ _____    ______ ____
ROOT
ATOM      1  N   UNL     1       7.897   7.436  17.082  0.00  0.00    +0.000 N 
ATOM      2  C   UNL     1       6.799   6.554  17.062  0.00  0.00    +0.000 A 
ATOM      3  C   UNL     1       7.056   5.198  16.887  0.00  0.00    +0.000 A 
ATOM      4  C   UNL     1       5.995   4.294  16.865  0.00  0.00    +0.000 A 
ATOM      5  C   UNL     1       4.691   4.747  17.030  0.00  0.00    +0.000 A 
ATOM      6  C   UNL     1       4.526   6.128  17.087  0.00  0.00    +0.000 A 
ATOM      7  N   UNL     1       5.542   7.024  17.119  0.00  0.00    +0.000 NA
ATOM      8  H   UNL     1       8.672   7.012  17.591  0.00  0.00    +0.000 HD
ENDROOT
BRANCH   1   9
ATOM      9  C   UNL     1       7.626   8.756  17.663  0.00  0.00    +0.000 C 
BRANCH   9  10
ATOM     10  C   UNL     1       8.774   9.180  18.592  0.00  0.00    +0.000 C 
BRANCH  10  12
ATOM     11  C   UNL     1       9.933  11.165  18.022  0.00  0.00    +0.000 C 
ATOM     12  O   UNL     1       8.794  10.616  18.672  0.00  0.00    +0.000 OA
ENDBRANCH  10  12
ENDBRANCH   9  10
ENDBRANCH   1   9
BRANCH   5  13
ATOM     13  C   UNL     1       3.531   3.808  17.148  0.00  0.00    +0.000 C 
BRANCH  13  14
ATOM     14  C   UNL     1       3.385   2.955  18.437  0.00  0.00    +0.000 C 
ATOM     15  C   UNL     1       2.165   2.028  18.468  0.00  0.00    +0.000 C 
ATOM     16  C   UNL     1       0.894   2.753  18.894  0.00  0.00    +0.000 C 
ATOM     17  C   UNL     1       1.066   3.542  20.192  0.00  0.00    +0.000 C 
ATOM     18  N   UNL     1       2.313   4.273  20.366  0.00  0.00    +0.000 NA
ATOM     19  C   UNL     1       3.518   3.710  19.770  0.00  0.00    +0.000 C 
ATOM     20  H   UNL     1       2.208   5.266  20.203  0.00  0.00    +0.000 HD
ENDBRANCH  13  14
ENDBRANCH   5  13
TORSDOF 5
ENDMDL
