MODEL 1
REMARK VINA RESULT:      -8.7      0.000      0.000
REMARK  Name = 
REMARK  3 active torsions:
REMARK  status: ('A' for Active; 'I' for Inactive)
REMARK    1  A    between atoms: C_1  and  C_2
REMARK    2  A    between atoms: C_4  and  N_5
REMARK    3  A    between atoms: N_5  and  C_6
REMARK                            x       y       z     vdW  Elec       q    Type
REMARK                         _______ _______ _______ _____ _____    ______ ____
ROOT
ATOM      1  N   UNL     1       5.195   3.532  18.155  0.00  0.00    +0.000 N 
ATOM      2  H   UNL     1       5.587   2.592  18.209  0.00  0.00    +0.000 HD
ENDROOT
BRANCH   1   6
ATOM      3  C   UNL     1       8.014   7.605  18.391  0.00  0.00    +0.000 C 
ATOM      4  C   UNL     1       7.442   6.474  17.574  0.00  0.00    +0.000 A 
ATOM      5  C   UNL     1       6.610   5.482  18.308  0.00  0.00    +0.000 A 
ATOM      6  C   UNL     1       6.030   4.497  17.596  0.00  0.00    +0.000 A 
ATOM      7  N   UNL     1       6.318   4.441  16.218  0.00  0.00    +0.000 N 
ATOM      8  N   UNL     1       5.903   3.539  15.285  0.00  0.00    +0.000 NA
ATOM      9  C   UNL     1       6.470   4.012  14.175  0.00  0.00    +0.000 A 
ATOM     10  N   UNL     1       7.227   5.132  14.319  0.00  0.00    +0.000 NA
ATOM     11  C   UNL     1       7.136   5.403  15.601  0.00  0.00    +0.000 A 
ATOM     12  N   UNL     1       7.692   6.438  16.301  0.00  0.00    +0.000 NA
ENDBRANCH   1   6
BRANCH   1  13
ATOM     13  C   UNL     1       3.780   3.613  18.246  0.00  0.00    +0.000 A 
ATOM     14  C   UNL     1       3.039   4.181  17.191  0.00  0.00    +0.000 A 
ATOM     15  C   UNL     1       1.678   4.436  17.311  0.00  0.00    +0.000 A 
ATOM     16  C   UNL     1       1.019   4.099  18.485  0.00  0.00    +0.000 A 
ATOM     17  C   UNL     1       1.703   3.475  19.536  0.00  0.00    +0.000 A 
ATOM     18  C   UNL     1       1.006   3.126  20.703  0.00  0.00    +0.000 A 
ATOM     19  C   UNL     1       1.658   2.506  21.766  0.00  0.00    +0.000 A 
ATOM     20  C   UNL     1       3.017   2.235  21.678  0.00  0.00    +0.000 A 
ATOM     21  C   UNL     1       3.730   2.588  20.528  0.00  0.00    +0.000 A 
ATOM     22  C   UNL     1       3.096   3.212  19.429  0.00  0.00    +0.000 A 
ENDBRANCH   1  13
TORSDOF 2
ENDMDL
MODEL 2
REMARK VINA RESULT:      -8.6      1.978      3.294
REMARK  Name = 
REMARK  3 active torsions:
REMARK  status: ('A' for Active; 'I' for Inactive)
REMARK    1  A    between atoms: C_1  and  C_2
REMARK    2  A    between atoms: C_4  and  N_5
REMARK    3  A    between atoms: N_5  and  C_6
REMARK                            x       y       z     vdW  Elec       q    Type
REMARK                         _______ _______ _______ _____ _____    ______ ____
ROOT
ATOM      1  N   UNL     1       3.769   6.371  17.256  0.00  0.00    +0.000 N 
ATOM      2  H   UNL     1       3.668   7.344  16.968  0.00  0.00    +0.000 HD
ENDROOT
BRANCH   1   6
ATOM      3  C   UNL     1       6.704   4.186  13.908  0.00  0.00    +0.000 C 
ATOM      4  C   UNL     1       6.490   4.669  15.320  0.00  0.00    +0.000 A 
ATOM      5  C   UNL     1       5.203   5.365  15.594  0.00  0.00    +0.000 A 
ATOM      6  C   UNL     1       4.952   5.750  16.860  0.00  0.00    +0.000 A 
ATOM      7  N   UNL     1       5.965   5.529  17.814  0.00  0.00    +0.000 N 
ATOM      8  N   UNL     1       5.989   5.852  19.138  0.00  0.00    +0.000 NA
ATOM      9  C   UNL     1       7.177   5.378  19.514  0.00  0.00    +0.000 A 
ATOM     10  N   UNL     1       7.924   4.792  18.541  0.00  0.00    +0.000 NA
ATOM     11  C   UNL     1       7.167   4.887  17.472  0.00  0.00    +0.000 A 
ATOM     12  N   UNL     1       7.416   4.446  16.201  0.00  0.00    +0.000 NA
ENDBRANCH   1   6
BRANCH   1  13
ATOM     13  C   UNL     1       2.937   5.960  18.331  0.00  0.00    +0.000 A 
ATOM     14  C   UNL     1       2.592   6.877  19.344  0.00  0.00    +0.000 A 
ATOM     15  C   UNL     1       1.926   6.473  20.496  0.00  0.00    +0.000 A 
ATOM     16  C   UNL     1       1.565   5.142  20.648  0.00  0.00    +0.000 A 
ATOM     17  C   UNL     1       1.833   4.208  19.638  0.00  0.00    +0.000 A 
ATOM     18  C   UNL     1       1.436   2.873  19.810  0.00  0.00    +0.000 A 
ATOM     19  C   UNL     1       1.689   1.920  18.826  0.00  0.00    +0.000 A 
ATOM     20  C   UNL     1       2.349   2.290  17.662  0.00  0.00    +0.000 A 
ATOM     21  C   UNL     1       2.764   3.613  17.480  0.00  0.00    +0.000 A 
ATOM     22  C   UNL     1       2.516   4.605  18.456  0.00  0.00    +0.000 A 
ENDBRANCH   1  13
TORSDOF 2
ENDMDL
MODEL 3
REMARK VINA RESULT:      -8.5      1.864      2.305
REMARK  Name = 
REMARK  3 active torsions:
REMARK  status: ('A' for Active; 'I' for Inactive)
REMARK    1  A    between atoms: C_1  and  C_2
REMARK    2  A    between atoms: C_4  and  N_5
REMARK    3  A    between atoms: N_5  and  C_6
REMARK                            x       y       z     vdW  Elec       q    Type
REMARK                         _______ _______ _______ _____ _____    ______ ____
ROOT
ATOM      1  N   UNL     1       3.511   6.419  17.064  0.00  0.00    +0.000 N 
ATOM      2  H   UNL     1       3.000   6.957  16.364  0.00  0.00    +0.000 HD
ENDROOT
BRANCH   1   6
ATOM      3  C   UNL     1       7.963   8.420  17.938  0.00  0.00    +0.000 C 
ATOM      4  C   UNL     1       7.138   7.327  17.308  0.00  0.00    +0.000 A 
ATOM      5  C   UNL     1       5.671   7.379  17.554  0.00  0.00    +0.000 A 
ATOM      6  C   UNL     1       4.899   6.455  16.951  0.00  0.00    +0.000 A 
ATOM      7  N   UNL     1       5.551   5.465  16.190  0.00  0.00    +0.000 N 
ATOM      8  N   UNL     1       5.022   4.405  15.517  0.00  0.00    +0.000 NA
ATOM      9  C   UNL     1       6.110   3.851  14.979  0.00  0.00    +0.000 A 
ATOM     10  N   UNL     1       7.293   4.456  15.263  0.00  0.00    +0.000 NA
ATOM     11  C   UNL     1       6.947   5.469  16.025  0.00  0.00    +0.000 A 
ATOM     12  N   UNL     1       7.740   6.429  16.591  0.00  0.00    +0.000 NA
ENDBRANCH   1   6
BRANCH   1  13
ATOM     13  C   UNL     1       2.784   6.099  18.242  0.00  0.00    +0.000 A 
ATOM     14  C   UNL     1       2.534   7.095  19.207  0.00  0.00    +0.000 A 
ATOM     15  C   UNL     1       1.980   6.788  20.444  0.00  0.00    +0.000 A 
ATOM     16  C   UNL     1       1.637   5.475  20.734  0.00  0.00    +0.000 A 
ATOM     17  C   UNL     1       1.809   4.463  19.781  0.00  0.00    +0.000 A 
ATOM     18  C   UNL     1       1.432   3.148  20.094  0.00  0.00    +0.000 A 
ATOM     19  C   UNL     1       1.593   2.119  19.169  0.00  0.00    +0.000 A 
ATOM     20  C   UNL     1       2.140   2.392  17.923  0.00  0.00    +0.000 A 
ATOM     21  C   UNL     1       2.534   3.693  17.599  0.00  0.00    +0.000 A 
ATOM     22  C   UNL     1       2.377   4.762  18.512  0.00  0.00    +0.000 A 
ENDBRANCH   1  13
TORSDOF 2
ENDMDL
MODEL 4
REMARK VINA RESULT:      -8.5      1.801      2.217
REMARK  Name = 
REMARK  3 active torsions:
REMARK  status: ('A' for Active; 'I' for Inactive)
REMARK    1  A    between atoms: C_1  and  C_2
REMARK    2  A    between atoms: C_4  and  N_5
REMARK    3  A    between atoms: N_5  and  C_6
REMARK                            x       y       z     vdW  Elec       q    Type
REMARK                         _______ _______ _______ _____ _____    ______ ____
ROOT
ATOM      1  N   UNL     1       3.772   6.067  17.357  0.00  0.00    +0.000 N 
ATOM      2  H   UNL     1       3.517   6.782  16.676  0.00  0.00    +0.000 HD
ENDROOT
BRANCH   1   6
ATOM      3  C   UNL     1       8.154   5.550  19.622  0.00  0.00    +0.000 C 
ATOM      4  C   UNL     1       7.320   5.416  18.372  0.00  0.00    +0.000 A 
ATOM      5  C   UNL     1       5.879   5.768  18.497  0.00  0.00    +0.000 A 
ATOM      6  C   UNL     1       5.122   5.722  17.384  0.00  0.00    +0.000 A 
ATOM      7  N   UNL     1       5.739   5.272  16.201  0.00  0.00    +0.000 N 
ATOM      8  N   UNL     1       5.203   5.094  14.961  0.00  0.00    +0.000 NA
ATOM      9  C   UNL     1       6.261   4.682  14.262  0.00  0.00    +0.000 A 
ATOM     10  N   UNL     1       7.427   4.566  14.950  0.00  0.00    +0.000 NA
ATOM     11  C   UNL     1       7.103   4.934  16.169  0.00  0.00    +0.000 A 
ATOM     12  N   UNL     1       7.897   5.021  17.279  0.00  0.00    +0.000 NA
ENDBRANCH   1   6
BRANCH   1  13
ATOM     13  C   UNL     1       2.845   5.868  18.414  0.00  0.00    +0.000 A 
ATOM     14  C   UNL     1       2.541   6.928  19.293  0.00  0.00    +0.000 A 
ATOM     15  C   UNL     1       1.776   6.730  20.436  0.00  0.00    +0.000 A 
ATOM     16  C   UNL     1       1.271   5.467  20.713  0.00  0.00    +0.000 A 
ATOM     17  C   UNL     1       1.495   4.399  19.834  0.00  0.00    +0.000 A 
ATOM     18  C   UNL     1       0.954   3.138  20.128  0.00  0.00    +0.000 A 
ATOM     19  C   UNL     1       1.160   2.055  19.276  0.00  0.00    +0.000 A 
ATOM     20  C   UNL     1       1.917   2.219  18.124  0.00  0.00    +0.000 A 
ATOM     21  C   UNL     1       2.475   3.465  17.823  0.00  0.00    +0.000 A 
ATOM     22  C   UNL     1       2.279   4.586  18.663  0.00  0.00    +0.000 A 
ENDBRANCH   1  13
TORSDOF 2
ENDMDL
MODEL 5
REMARK VINA RESULT:      -8.4      1.545      2.996
REMARK  Name = 
REMARK  3 active torsions:
REMARK  status: ('A' for Active; 'I' for Inactive)
REMARK    1  A    between atoms: C_1  and  C_2
REMARK    2  A    between atoms: C_4  and  N_5
REMARK    3  A    between atoms: N_5  and  C_6
REMARK                            x       y       z     vdW  Elec       q    Type
REMARK                         _______ _______ _______ _____ _____    ______ ____
ROOT
ATOM      1  N   UNL     1       5.429   3.473  18.533  0.00  0.00    +0.000 N 
ATOM      2  H   UNL     1       6.167   2.953  19.009  0.00  0.00    +0.000 HD
ENDROOT
BRANCH   1   6
ATOM      3  C   UNL     1       5.701   3.970  13.606  0.00  0.00    +0.000 C 
ATOM      4  C   UNL     1       6.019   4.505  14.980  0.00  0.00    +0.000 A 
ATOM      5  C   UNL     1       5.496   3.723  16.133  0.00  0.00    +0.000 A 
ATOM      6  C   UNL     1       5.818   4.139  17.373  0.00  0.00    +0.000 A 
ATOM      7  N   UNL     1       6.567   5.327  17.481  0.00  0.00    +0.000 N 
ATOM      8  N   UNL     1       6.989   5.983  18.599  0.00  0.00    +0.000 NA
ATOM      9  C   UNL     1       7.660   7.010  18.077  0.00  0.00    +0.000 A 
ATOM     10  N   UNL     1       7.691   7.078  16.721  0.00  0.00    +0.000 NA
ATOM     11  C   UNL     1       7.004   6.024  16.342  0.00  0.00    +0.000 A 
ATOM     12  N   UNL     1       6.727   5.589  15.076  0.00  0.00    +0.000 NA
ENDBRANCH   1   6
BRANCH   1  13
ATOM     13  C   UNL     1       4.101   3.094  18.865  0.00  0.00    +0.000 A 
ATOM     14  C   UNL     1       3.634   1.805  18.537  0.00  0.00    +0.000 A 
ATOM     15  C   UNL     1       2.298   1.453  18.687  0.00  0.00    +0.000 A 
ATOM     16  C   UNL     1       1.399   2.379  19.197  0.00  0.00    +0.000 A 
ATOM     17  C   UNL     1       1.831   3.651  19.595  0.00  0.00    +0.000 A 
ATOM     18  C   UNL     1       0.904   4.560  20.129  0.00  0.00    +0.000 A 
ATOM     19  C   UNL     1       1.301   5.832  20.532  0.00  0.00    +0.000 A 
ATOM     20  C   UNL     1       2.629   6.214  20.399  0.00  0.00    +0.000 A 
ATOM     21  C   UNL     1       3.563   5.327  19.856  0.00  0.00    +0.000 A 
ATOM     22  C   UNL     1       3.194   4.026  19.445  0.00  0.00    +0.000 A 
ENDBRANCH   1  13
TORSDOF 2
ENDMDL
MODEL 6
REMARK VINA RESULT:      -8.4      1.598      1.771
REMARK  Name = 
REMARK  3 active torsions:
REMARK  status: ('A' for Active; 'I' for Inactive)
REMARK    1  A    between atoms: C_1  and  C_2
REMARK    2  A    between atoms: C_4  and  N_5
REMARK    3  A    between atoms: N_5  and  C_6
REMARK                            x       y       z     vdW  Elec       q    Type
REMARK                         _______ _______ _______ _____ _____    ______ ____
ROOT
ATOM      1  N   UNL     1       3.735   5.133  17.021  0.00  0.00    +0.000 N 
ATOM      2  H   UNL     1       3.199   4.872  16.194  0.00  0.00    +0.000 HD
ENDROOT
BRANCH   1   6
ATOM      3  C   UNL     1       7.841   7.686  18.125  0.00  0.00    +0.000 C 
ATOM      4  C   UNL     1       7.120   6.731  17.208  0.00  0.00    +0.000 A 
ATOM      5  C   UNL     1       5.742   6.338  17.612  0.00  0.00    +0.000 A 
ATOM      6  C   UNL     1       5.046   5.538  16.781  0.00  0.00    +0.000 A 
ATOM      7  N   UNL     1       5.707   5.076  15.626  0.00  0.00    +0.000 N 
ATOM      8  N   UNL     1       5.258   4.237  14.651  0.00  0.00    +0.000 NA
ATOM      9  C   UNL     1       6.303   4.193  13.825  0.00  0.00    +0.000 A 
ATOM     10  N   UNL     1       7.390   4.919  14.193  0.00  0.00    +0.000 NA
ATOM     11  C   UNL     1       7.022   5.474  15.326  0.00  0.00    +0.000 A 
ATOM     12  N   UNL     1       7.724   6.324  16.135  0.00  0.00    +0.000 NA
ENDBRANCH   1   6
BRANCH   1  13
ATOM     13  C   UNL     1       2.969   5.448  18.175  0.00  0.00    +0.000 A 
ATOM     14  C   UNL     1       2.787   6.794  18.552  0.00  0.00    +0.000 A 
ATOM     15  C   UNL     1       2.193   7.138  19.761  0.00  0.00    +0.000 A 
ATOM     16  C   UNL     1       1.740   6.139  20.610  0.00  0.00    +0.000 A 
ATOM     17  C   UNL     1       1.843   4.790  20.247  0.00  0.00    +0.000 A 
ATOM     18  C   UNL     1       1.356   3.801  21.116  0.00  0.00    +0.000 A 
ATOM     19  C   UNL     1       1.445   2.451  20.785  0.00  0.00    +0.000 A 
ATOM     20  C   UNL     1       2.030   2.073  19.584  0.00  0.00    +0.000 A 
ATOM     21  C   UNL     1       2.533   3.044  18.713  0.00  0.00    +0.000 A 
ATOM     22  C   UNL     1       2.451   4.423  19.015  0.00  0.00    +0.000 A 
ENDBRANCH   1  13
TORSDOF 2
ENDMDL
MODEL 7
REMARK VINA RESULT:      -8.3      4.335      6.052
REMARK  Name = 
REMARK  3 active torsions:
REMARK  status: ('A' for Active; 'I' for Inactive)
REMARK    1  A    between atoms: C_1  and  C_2
REMARK    2  A    between atoms: C_4  and  N_5
REMARK    3  A    between atoms: N_5  and  C_6
REMARK                            x       y       z     vdW  Elec       q    Type
REMARK                         _______ _______ _______ _____ _____    ______ ____
ROOT
ATOM      1  N   UNL     1       2.451   6.695  20.476  0.00  0.00    +0.000 N 
ATOM      2  H   UNL     1       2.402   6.697  21.494  0.00  0.00    +0.000 HD
ENDROOT
BRANCH   1   6
ATOM      3  C   UNL     1       0.865   2.279  18.870  0.00  0.00    +0.000 C 
ATOM      4  C   UNL     1       1.998   3.256  19.058  0.00  0.00    +0.000 A 
ATOM      5  C   UNL     1       1.644   4.576  19.647  0.00  0.00    +0.000 A 
ATOM      6  C   UNL     1       2.643   5.446  19.888  0.00  0.00    +0.000 A 
ATOM      7  N   UNL     1       3.940   5.065  19.494  0.00  0.00    +0.000 N 
ATOM      8  N   UNL     1       5.109   5.760  19.582  0.00  0.00    +0.000 NA
ATOM      9  C   UNL     1       5.984   4.889  19.080  0.00  0.00    +0.000 A 
ATOM     10  N   UNL     1       5.475   3.700  18.662  0.00  0.00    +0.000 NA
ATOM     11  C   UNL     1       4.191   3.807  18.918  0.00  0.00    +0.000 A 
ATOM     12  N   UNL     1       3.195   2.893  18.712  0.00  0.00    +0.000 NA
ENDBRANCH   1   6
BRANCH   1  13
ATOM     13  C   UNL     1       1.903   7.837  19.833  0.00  0.00    +0.000 A 
ATOM     14  C   UNL     1       2.200   8.093  18.479  0.00  0.00    +0.000 A 
ATOM     15  C   UNL     1       1.828   9.282  17.864  0.00  0.00    +0.000 A 
ATOM     16  C   UNL     1       1.121  10.235  18.585  0.00  0.00    +0.000 A 
ATOM     17  C   UNL     1       0.750   9.996  19.914  0.00  0.00    +0.000 A 
ATOM     18  C   UNL     1       0.017  10.968  20.612  0.00  0.00    +0.000 A 
ATOM     19  C   UNL     1      -0.366  10.762  21.935  0.00  0.00    +0.000 A 
ATOM     20  C   UNL     1      -0.013   9.583  22.579  0.00  0.00    +0.000 A 
ATOM     21  C   UNL     1       0.729   8.610  21.904  0.00  0.00    +0.000 A 
ATOM     22  C   UNL     1       1.127   8.785  20.558  0.00  0.00    +0.000 A 
ENDBRANCH   1  13
TORSDOF 2
ENDMDL
MODEL 8
REMARK VINA RESULT:      -8.3      0.854      2.434
REMARK  Name = 
REMARK  3 active torsions:
REMARK  status: ('A' for Active; 'I' for Inactive)
REMARK    1  A    between atoms: C_1  and  C_2
REMARK    2  A    between atoms: C_4  and  N_5
REMARK    3  A    between atoms: N_5  and  C_6
REMARK                            x       y       z     vdW  Elec       q    Type
REMARK                         _______ _______ _______ _____ _____    ______ ____
ROOT
ATOM      1  N   UNL     1       4.984   3.234  17.715  0.00  0.00    +0.000 N 
ATOM      2  H   UNL     1       5.390   2.339  17.987  0.00  0.00    +0.000 HD
ENDROOT
BRANCH   1   6
ATOM      3  C   UNL     1       6.645   3.961  13.099  0.00  0.00    +0.000 C 
ATOM      4  C   UNL     1       6.570   4.420  14.533  0.00  0.00    +0.000 A 
ATOM      5  C   UNL     1       5.731   3.599  15.448  0.00  0.00    +0.000 A 
ATOM      6  C   UNL     1       5.695   3.944  16.749  0.00  0.00    +0.000 A 
ATOM      7  N   UNL     1       6.400   5.103  17.129  0.00  0.00    +0.000 N 
ATOM      8  N   UNL     1       6.499   5.692  18.354  0.00  0.00    +0.000 NA
ATOM      9  C   UNL     1       7.304   6.723  18.098  0.00  0.00    +0.000 A 
ATOM     10  N   UNL     1       7.719   6.855  16.812  0.00  0.00    +0.000 NA
ATOM     11  C   UNL     1       7.151   5.842  16.198  0.00  0.00    +0.000 A 
ATOM     12  N   UNL     1       7.237   5.476  14.883  0.00  0.00    +0.000 NA
ENDBRANCH   1   6
BRANCH   1  13
ATOM     13  C   UNL     1       3.608   3.402  18.020  0.00  0.00    +0.000 A 
ATOM     14  C   UNL     1       2.744   3.990  17.074  0.00  0.00    +0.000 A 
ATOM     15  C   UNL     1       1.435   4.329  17.394  0.00  0.00    +0.000 A 
ATOM     16  C   UNL     1       0.949   4.059  18.666  0.00  0.00    +0.000 A 
ATOM     17  C   UNL     1       1.752   3.418  19.617  0.00  0.00    +0.000 A 
ATOM     18  C   UNL     1       1.227   3.138  20.889  0.00  0.00    +0.000 A 
ATOM     19  C   UNL     1       2.001   2.504  21.858  0.00  0.00    +0.000 A 
ATOM     20  C   UNL     1       3.311   2.150  21.570  0.00  0.00    +0.000 A 
ATOM     21  C   UNL     1       3.855   2.434  20.314  0.00  0.00    +0.000 A 
ATOM     22  C   UNL     1       3.095   3.070  19.305  0.00  0.00    +0.000 A 
ENDBRANCH   1  13
TORSDOF 2
ENDMDL
MODEL 9
REMARK VINA RESULT:      -8.2      1.603      2.196
REMARK  Name = 
REMARK  3 active torsions:
REMARK  status: ('A' for Active; 'I' for Inactive)
REMARK    1  A    between atoms: C_1  and  C_2
REMARK    2  A    between atoms: C_4  and  N_5
REMARK    3  A    between atoms: N_5  and  C_6
REMARK                            x       y       z     vdW  Elec       q    Type
REMARK                         _______ _______ _______ _____ _____    ______ ____
ROOT
ATOM      1  N   UNL     1       3.769   3.966  16.765  0.00  0.00    +0.000 N 
ATOM      2  H   UNL     1       3.252   4.207  15.920  0.00  0.00    +0.000 HD
ENDROOT
BRANCH   1   6
ATOM      3  C   UNL     1       7.752   5.704  19.155  0.00  0.00    +0.000 C 
ATOM      4  C   UNL     1       7.103   5.280  17.862  0.00  0.00    +0.000 A 
ATOM      5  C   UNL     1       5.714   4.754  17.959  0.00  0.00    +0.000 A 
ATOM      6  C   UNL     1       5.083   4.428  16.815  0.00  0.00    +0.000 A 
ATOM      7  N   UNL     1       5.816   4.544  15.618  0.00  0.00    +0.000 N 
ATOM      8  N   UNL     1       5.439   4.248  14.342  0.00  0.00    +0.000 NA
ATOM      9  C   UNL     1       6.529   4.581  13.650  0.00  0.00    +0.000 A 
ATOM     10  N   UNL     1       7.578   5.050  14.374  0.00  0.00    +0.000 NA
ATOM     11  C   UNL     1       7.136   5.027  15.611  0.00  0.00    +0.000 A 
ATOM     12  N   UNL     1       7.774   5.407  16.759  0.00  0.00    +0.000 NA
ENDBRANCH   1   6
BRANCH   1  13
ATOM     13  C   UNL     1       2.977   3.599  17.885  0.00  0.00    +0.000 A 
ATOM     14  C   UNL     1       2.577   2.258  18.055  0.00  0.00    +0.000 A 
ATOM     15  C   UNL     1       1.664   1.889  19.036  0.00  0.00    +0.000 A 
ATOM     16  C   UNL     1       1.152   2.853  19.893  0.00  0.00    +0.000 A 
ATOM     17  C   UNL     1       1.570   4.187  19.801  0.00  0.00    +0.000 A 
ATOM     18  C   UNL     1       1.051   5.136  20.695  0.00  0.00    +0.000 A 
ATOM     19  C   UNL     1       1.446   6.471  20.629  0.00  0.00    +0.000 A 
ATOM     20  C   UNL     1       2.357   6.872  19.663  0.00  0.00    +0.000 A 
ATOM     21  C   UNL     1       2.874   5.943  18.755  0.00  0.00    +0.000 A 
ATOM     22  C   UNL     1       2.500   4.580  18.800  0.00  0.00    +0.000 A 
ENDBRANCH   1  13
TORSDOF 2
ENDMDL
