MODEL 1
REMARK VINA RESULT:      -8.8      0.000      0.000
REMARK  Name = 
REMARK  5 active torsions:
REMARK  status: ('A' for Active; 'I' for Inactive)
REMARK    1  A    between atoms: C_1  and  N_2
REMARK    2  A    between atoms: N_2  and  C_3
REMARK    3  A    between atoms: N_2  and  C_9
REMARK    4  A    between atoms: C_3  and  C_4
REMARK    5  A    between atoms: C_11  and  C_12
REMARK                            x       y       z     vdW  Elec       q    Type
REMARK                         _______ _______ _______ _____ _____    ______ ____
ROOT
ATOM      1  C   UNL     1       4.502   5.406  18.134  0.00  0.00    +0.000 A 
ATOM      2  N   UNL     1       3.996   6.647  18.332  0.00  0.00    +0.000 NA
ATOM      3  C   UNL     1       2.657   6.797  18.382  0.00  0.00    +0.000 A 
ATOM      4  N   UNL     1       1.782   5.802  18.201  0.00  0.00    +0.000 NA
ATOM      5  C   UNL     1       2.284   4.576  17.983  0.00  0.00    +0.000 A 
ATOM      6  C   UNL     1       3.650   4.310  17.971  0.00  0.00    +0.000 A 
ATOM      7  C   UNL     1       4.099   2.885  17.782  0.00  0.00    +0.000 C 
ATOM      8  C   UNL     1       3.697   2.007  18.979  0.00  0.00    +0.000 C 
ATOM      9  N   UNL     1       2.331   1.471  18.891  0.00  0.00    +0.000 NA
ATOM     10  C   UNL     1       1.287   2.497  18.968  0.00  0.00    +0.000 C 
ATOM     11  C   UNL     1       1.269   3.478  17.799  0.00  0.00    +0.000 C 
ATOM     12  H   UNL     1       2.195   0.815  19.662  0.00  0.00    +0.000 HD
ENDROOT
BRANCH   3  13
ATOM     13  C   UNL     1       2.088   8.115  18.711  0.00  0.00    +0.000 A 
ATOM     14  C   UNL     1       2.097   9.206  17.830  0.00  0.00    +0.000 A 
ATOM     15  C   UNL     1       1.577  10.442  18.217  0.00  0.00    +0.000 A 
ATOM     16  C   UNL     1       1.046  10.568  19.489  0.00  0.00    +0.000 A 
ATOM     17  N   UNL     1       1.007   9.558  20.377  0.00  0.00    +0.000 NA
ATOM     18  C   UNL     1       1.523   8.368  19.966  0.00  0.00    +0.000 A 
ENDBRANCH   3  13
BRANCH   1  20
ATOM     19  C   UNL     1       6.631   5.511  19.294  0.00  0.00    +0.000 C 
ATOM     20  N   UNL     1       5.893   5.263  18.058  0.00  0.00    +0.000 N 
BRANCH  20  21
ATOM     21  C   UNL     1       6.415   4.167  17.212  0.00  0.00    +0.000 C 
BRANCH  21  22
ATOM     22  C   UNL     1       6.697   4.526  15.763  0.00  0.00    +0.000 A 
ATOM     23  C   UNL     1       6.170   3.913  14.596  0.00  0.00    +0.000 A 
ATOM     24  C   UNL     1       6.767   4.562  13.544  0.00  0.00    +0.000 A 
ATOM     25  N   UNL     1       7.602   5.484  14.100  0.00  0.00    +0.000 N 
ATOM     26  N   UNL     1       7.581   5.488  15.446  0.00  0.00    +0.000 NA
ATOM     27  H   UNL     1       8.219   6.134  13.624  0.00  0.00    +0.000 HD
ENDBRANCH  21  22
ENDBRANCH  20  21
ENDBRANCH   1  20
TORSDOF 4
ENDMDL
MODEL 2
REMARK VINA RESULT:      -8.5      1.726      2.466
REMARK  Name = 
REMARK  5 active torsions:
REMARK  status: ('A' for Active; 'I' for Inactive)
REMARK    1  A    between atoms: C_1  and  N_2
REMARK    2  A    between atoms: N_2  and  C_3
REMARK    3  A    between atoms: N_2  and  C_9
REMARK    4  A    between atoms: C_3  and  C_4
REMARK    5  A    between atoms: C_11  and  C_12
REMARK                            x       y       z     vdW  Elec       q    Type
REMARK                         _______ _______ _______ _____ _____    ______ ____
ROOT
ATOM      1  C   UNL     1       4.013   5.000  18.102  0.00  0.00    +0.000 A 
ATOM      2  N   UNL     1       3.561   6.276  18.037  0.00  0.00    +0.000 NA
ATOM      3  C   UNL     1       2.506   6.626  18.799  0.00  0.00    +0.000 A 
ATOM      4  N   UNL     1       1.836   5.780  19.590  0.00  0.00    +0.000 NA
ATOM      5  C   UNL     1       2.272   4.511  19.637  0.00  0.00    +0.000 A 
ATOM      6  C   UNL     1       3.386   4.067  18.932  0.00  0.00    +0.000 A 
ATOM      7  C   UNL     1       3.822   2.637  19.112  0.00  0.00    +0.000 C 
ATOM      8  C   UNL     1       4.328   2.380  20.542  0.00  0.00    +0.000 C 
ATOM      9  N   UNL     1       3.261   2.058  21.501  0.00  0.00    +0.000 NA
ATOM     10  C   UNL     1       2.340   3.170  21.755  0.00  0.00    +0.000 C 
ATOM     11  C   UNL     1       1.503   3.592  20.551  0.00  0.00    +0.000 C 
ATOM     12  H   UNL     1       3.698   1.794  22.386  0.00  0.00    +0.000 HD
ENDROOT
BRANCH   3  13
ATOM     13  C   UNL     1       2.071   8.032  18.832  0.00  0.00    +0.000 A 
ATOM     14  C   UNL     1       2.305   8.941  17.789  0.00  0.00    +0.000 A 
ATOM     15  C   UNL     1       1.903  10.274  17.898  0.00  0.00    +0.000 A 
ATOM     16  C   UNL     1       1.264  10.679  19.056  0.00  0.00    +0.000 A 
ATOM     17  N   UNL     1       1.010   9.855  20.088  0.00  0.00    +0.000 NA
ATOM     18  C   UNL     1       1.416   8.563  19.948  0.00  0.00    +0.000 A 
ENDBRANCH   3  13
BRANCH   1  20
ATOM     19  C   UNL     1       5.061   5.146  15.918  0.00  0.00    +0.000 C 
ATOM     20  N   UNL     1       5.093   4.638  17.287  0.00  0.00    +0.000 N 
BRANCH  20  21
ATOM     21  C   UNL     1       6.430   4.592  17.919  0.00  0.00    +0.000 C 
BRANCH  21  22
ATOM     22  C   UNL     1       7.126   5.931  18.098  0.00  0.00    +0.000 A 
ATOM     23  C   UNL     1       7.020   7.083  17.275  0.00  0.00    +0.000 A 
ATOM     24  C   UNL     1       7.875   8.003  17.828  0.00  0.00    +0.000 A 
ATOM     25  N   UNL     1       8.443   7.387  18.901  0.00  0.00    +0.000 N 
ATOM     26  N   UNL     1       8.007   6.128  19.093  0.00  0.00    +0.000 NA
ATOM     27  H   UNL     1       9.139   7.759  19.540  0.00  0.00    +0.000 HD
ENDBRANCH  21  22
ENDBRANCH  20  21
ENDBRANCH   1  20
TORSDOF 4
ENDMDL
MODEL 3
REMARK VINA RESULT:      -8.4      1.141      1.220
REMARK  Name = 
REMARK  5 active torsions:
REMARK  status: ('A' for Active; 'I' for Inactive)
REMARK    1  A    between atoms: C_1  and  N_2
REMARK    2  A    between atoms: N_2  and  C_3
REMARK    3  A    between atoms: N_2  and  C_9
REMARK    4  A    between atoms: C_3  and  C_4
REMARK    5  A    between atoms: C_11  and  C_12
REMARK                            x       y       z     vdW  Elec       q    Type
REMARK                         _______ _______ _______ _____ _____    ______ ____
ROOT
ATOM      1  C   UNL     1       4.320   5.215  18.371  0.00  0.00    +0.000 A 
ATOM      2  N   UNL     1       3.796   6.462  18.292  0.00  0.00    +0.000 NA
ATOM      3  C   UNL     1       2.606   6.700  18.878  0.00  0.00    +0.000 A 
ATOM      4  N   UNL     1       1.875   5.768  19.501  0.00  0.00    +0.000 NA
ATOM      5  C   UNL     1       2.386   4.528  19.560  0.00  0.00    +0.000 A 
ATOM      6  C   UNL     1       3.632   4.197  19.036  0.00  0.00    +0.000 A 
ATOM      7  C   UNL     1       4.132   2.789  19.218  0.00  0.00    +0.000 C 
ATOM      8  C   UNL     1       4.408   2.477  20.698  0.00  0.00    +0.000 C 
ATOM      9  N   UNL     1       3.221   2.033  21.444  0.00  0.00    +0.000 NA
ATOM     10  C   UNL     1       2.193   3.068  21.590  0.00  0.00    +0.000 C 
ATOM     11  C   UNL     1       1.542   3.509  20.282  0.00  0.00    +0.000 C 
ATOM     12  H   UNL     1       3.521   1.743  22.377  0.00  0.00    +0.000 HD
ENDROOT
BRANCH   3  13
ATOM     13  C   UNL     1       2.073   8.072  18.905  0.00  0.00    +0.000 A 
ATOM     14  C   UNL     1       2.213   8.979  17.844  0.00  0.00    +0.000 A 
ATOM     15  C   UNL     1       1.720  10.281  17.947  0.00  0.00    +0.000 A 
ATOM     16  C   UNL     1       1.084  10.658  19.117  0.00  0.00    +0.000 A 
ATOM     17  N   UNL     1       0.918   9.832  20.167  0.00  0.00    +0.000 NA
ATOM     18  C   UNL     1       1.411   8.571  20.032  0.00  0.00    +0.000 A 
ENDBRANCH   3  13
BRANCH   1  20
ATOM     19  C   UNL     1       6.722   4.948  18.603  0.00  0.00    +0.000 C 
ATOM     20  N   UNL     1       5.545   4.971  17.737  0.00  0.00    +0.000 N 
BRANCH  20  21
ATOM     21  C   UNL     1       5.549   3.989  16.630  0.00  0.00    +0.000 C 
BRANCH  21  22
ATOM     22  C   UNL     1       6.264   4.424  15.362  0.00  0.00    +0.000 A 
ATOM     23  C   UNL     1       6.062   3.946  14.041  0.00  0.00    +0.000 A 
ATOM     24  C   UNL     1       6.980   4.612  13.269  0.00  0.00    +0.000 A 
ATOM     25  N   UNL     1       7.674   5.414  14.124  0.00  0.00    +0.000 N 
ATOM     26  N   UNL     1       7.262   5.324  15.402  0.00  0.00    +0.000 NA
ATOM     27  H   UNL     1       8.444   6.039  13.908  0.00  0.00    +0.000 HD
ENDBRANCH  21  22
ENDBRANCH  20  21
ENDBRANCH   1  20
TORSDOF 4
ENDMDL
MODEL 4
REMARK VINA RESULT:      -8.4      1.621      6.223
REMARK  Name = 
REMARK  5 active torsions:
REMARK  status: ('A' for Active; 'I' for Inactive)
REMARK    1  A    between atoms: C_1  and  N_2
REMARK    2  A    between atoms: N_2  and  C_3
REMARK    3  A    between atoms: N_2  and  C_9
REMARK    4  A    between atoms: C_3  and  C_4
REMARK    5  A    between atoms: C_11  and  C_12
REMARK                            x       y       z     vdW  Elec       q    Type
REMARK                         _______ _______ _______ _____ _____    ______ ____
ROOT
ATOM      1  C   UNL     1       2.871   6.249  18.660  0.00  0.00    +0.000 A 
ATOM      2  N   UNL     1       3.779   6.233  17.654  0.00  0.00    +0.000 NA
ATOM      3  C   UNL     1       4.522   5.123  17.475  0.00  0.00    +0.000 A 
ATOM      4  N   UNL     1       4.458   4.040  18.257  0.00  0.00    +0.000 NA
ATOM      5  C   UNL     1       3.572   4.066  19.267  0.00  0.00    +0.000 A 
ATOM      6  C   UNL     1       2.721   5.142  19.499  0.00  0.00    +0.000 A 
ATOM      7  C   UNL     1       1.723   5.034  20.621  0.00  0.00    +0.000 C 
ATOM      8  C   UNL     1       0.666   3.955  20.331  0.00  0.00    +0.000 C 
ATOM      9  N   UNL     1       1.080   2.598  20.718  0.00  0.00    +0.000 NA
ATOM     10  C   UNL     1       2.200   2.074  19.930  0.00  0.00    +0.000 C 
ATOM     11  C   UNL     1       3.517   2.823  20.117  0.00  0.00    +0.000 C 
ATOM     12  H   UNL     1       0.280   1.974  20.596  0.00  0.00    +0.000 HD
ENDROOT
BRANCH   3  13
ATOM     13  C   UNL     1       5.431   5.038  16.319  0.00  0.00    +0.000 A 
ATOM     14  C   UNL     1       5.160   4.275  15.174  0.00  0.00    +0.000 A 
ATOM     15  C   UNL     1       6.082   4.204  14.127  0.00  0.00    +0.000 A 
ATOM     16  C   UNL     1       7.268   4.907  14.241  0.00  0.00    +0.000 A 
ATOM     17  N   UNL     1       7.582   5.657  15.313  0.00  0.00    +0.000 NA
ATOM     18  C   UNL     1       6.661   5.704  16.314  0.00  0.00    +0.000 A 
ENDBRANCH   3  13
BRANCH   1  20
ATOM     19  C   UNL     1       2.047   7.906  20.230  0.00  0.00    +0.000 C 
ATOM     20  N   UNL     1       2.122   7.416  18.856  0.00  0.00    +0.000 N 
BRANCH  20  21
ATOM     21  C   UNL     1       2.211   8.461  17.811  0.00  0.00    +0.000 C 
BRANCH  21  22
ATOM     22  C   UNL     1       1.462   9.751  18.098  0.00  0.00    +0.000 A 
ATOM     23  C   UNL     1       0.063   9.928  18.260  0.00  0.00    +0.000 A 
ATOM     24  C   UNL     1      -0.112  11.276  18.451  0.00  0.00    +0.000 A 
ATOM     25  N   UNL     1       1.131  11.827  18.382  0.00  0.00    +0.000 N 
ATOM     26  N   UNL     1       2.109  10.927  18.171  0.00  0.00    +0.000 NA
ATOM     27  H   UNL     1       1.385  12.807  18.462  0.00  0.00    +0.000 HD
ENDBRANCH  21  22
ENDBRANCH  20  21
ENDBRANCH   1  20
TORSDOF 4
ENDMDL
MODEL 5
REMARK VINA RESULT:      -8.4      1.771      2.403
REMARK  Name = 
REMARK  5 active torsions:
REMARK  status: ('A' for Active; 'I' for Inactive)
REMARK    1  A    between atoms: C_1  and  N_2
REMARK    2  A    between atoms: N_2  and  C_3
REMARK    3  A    between atoms: N_2  and  C_9
REMARK    4  A    between atoms: C_3  and  C_4
REMARK    5  A    between atoms: C_11  and  C_12
REMARK                            x       y       z     vdW  Elec       q    Type
REMARK                         _______ _______ _______ _____ _____    ______ ____
ROOT
ATOM      1  C   UNL     1       3.113   6.221  18.665  0.00  0.00    +0.000 A 
ATOM      2  N   UNL     1       2.557   7.354  19.156  0.00  0.00    +0.000 NA
ATOM      3  C   UNL     1       1.678   7.253  20.173  0.00  0.00    +0.000 A 
ATOM      4  N   UNL     1       1.276   6.094  20.707  0.00  0.00    +0.000 NA
ATOM      5  C   UNL     1       1.812   4.970  20.205  0.00  0.00    +0.000 A 
ATOM      6  C   UNL     1       2.769   4.974  19.194  0.00  0.00    +0.000 A 
ATOM      7  C   UNL     1       3.348   3.656  18.754  0.00  0.00    +0.000 C 
ATOM      8  C   UNL     1       4.184   3.009  19.870  0.00  0.00    +0.000 C 
ATOM      9  N   UNL     1       3.393   2.216  20.823  0.00  0.00    +0.000 NA
ATOM     10  C   UNL     1       2.467   3.015  21.631  0.00  0.00    +0.000 C 
ATOM     11  C   UNL     1       1.347   3.686  20.841  0.00  0.00    +0.000 C 
ATOM     12  H   UNL     1       4.040   1.737  21.453  0.00  0.00    +0.000 HD
ENDROOT
BRANCH   3  13
ATOM     13  C   UNL     1       1.151   8.477  20.799  0.00  0.00    +0.000 A 
ATOM     14  C   UNL     1       0.842   8.578  22.164  0.00  0.00    +0.000 A 
ATOM     15  C   UNL     1       0.306   9.756  22.690  0.00  0.00    +0.000 A 
ATOM     16  C   UNL     1       0.091  10.824  21.837  0.00  0.00    +0.000 A 
ATOM     17  N   UNL     1       0.369  10.787  20.521  0.00  0.00    +0.000 NA
ATOM     18  C   UNL     1       0.889   9.624  20.042  0.00  0.00    +0.000 A 
ENDBRANCH   3  13
BRANCH   1  20
ATOM     19  C   UNL     1       3.915   7.563  16.809  0.00  0.00    +0.000 C 
ATOM     20  N   UNL     1       4.005   6.333  17.591  0.00  0.00    +0.000 N 
BRANCH  20  21
ATOM     21  C   UNL     1       5.372   5.803  17.790  0.00  0.00    +0.000 C 
BRANCH  21  22
ATOM     22  C   UNL     1       6.113   5.391  16.528  0.00  0.00    +0.000 A 
ATOM     23  C   UNL     1       5.768   4.362  15.613  0.00  0.00    +0.000 A 
ATOM     24  C   UNL     1       6.773   4.356  14.678  0.00  0.00    +0.000 A 
ATOM     25  N   UNL     1       7.647   5.327  15.064  0.00  0.00    +0.000 N 
ATOM     26  N   UNL     1       7.273   5.975  16.183  0.00  0.00    +0.000 NA
ATOM     27  H   UNL     1       8.519   5.596  14.619  0.00  0.00    +0.000 HD
ENDBRANCH  21  22
ENDBRANCH  20  21
ENDBRANCH   1  20
TORSDOF 4
ENDMDL
MODEL 6
REMARK VINA RESULT:      -8.3      1.425      2.251
REMARK  Name = 
REMARK  5 active torsions:
REMARK  status: ('A' for Active; 'I' for Inactive)
REMARK    1  A    between atoms: C_1  and  N_2
REMARK    2  A    between atoms: N_2  and  C_3
REMARK    3  A    between atoms: N_2  and  C_9
REMARK    4  A    between atoms: C_3  and  C_4
REMARK    5  A    between atoms: C_11  and  C_12
REMARK                            x       y       z     vdW  Elec       q    Type
REMARK                         _______ _______ _______ _____ _____    ______ ____
ROOT
ATOM      1  C   UNL     1       4.170   5.005  17.325  0.00  0.00    +0.000 A 
ATOM      2  N   UNL     1       3.757   6.266  17.599  0.00  0.00    +0.000 NA
ATOM      3  C   UNL     1       2.531   6.441  18.131  0.00  0.00    +0.000 A 
ATOM      4  N   UNL     1       1.665   5.449  18.369  0.00  0.00    +0.000 NA
ATOM      5  C   UNL     1       2.069   4.202  18.077  0.00  0.00    +0.000 A 
ATOM      6  C   UNL     1       3.336   3.913  17.578  0.00  0.00    +0.000 A 
ATOM      7  C   UNL     1       3.702   2.471  17.349  0.00  0.00    +0.000 C 
ATOM      8  C   UNL     1       3.788   1.696  18.675  0.00  0.00    +0.000 C 
ATOM      9  N   UNL     1       2.495   1.177  19.145  0.00  0.00    +0.000 NA
ATOM     10  C   UNL     1       1.541   2.223  19.525  0.00  0.00    +0.000 C 
ATOM     11  C   UNL     1       1.074   3.109  18.373  0.00  0.00    +0.000 C 
ATOM     12  H   UNL     1       2.667   0.586  19.960  0.00  0.00    +0.000 HD
ENDROOT
BRANCH   3  13
ATOM     13  C   UNL     1       2.106   7.789  18.544  0.00  0.00    +0.000 A 
ATOM     14  C   UNL     1       2.154   8.909  17.701  0.00  0.00    +0.000 A 
ATOM     15  C   UNL     1       1.774  10.170  18.165  0.00  0.00    +0.000 A 
ATOM     16  C   UNL     1       1.345  10.291  19.475  0.00  0.00    +0.000 A 
ATOM     17  N   UNL     1       1.276   9.255  20.330  0.00  0.00    +0.000 NA
ATOM     18  C   UNL     1       1.653   8.041  19.844  0.00  0.00    +0.000 A 
ENDBRANCH   3  13
BRANCH   1  20
ATOM     19  C   UNL     1       5.665   5.542  15.490  0.00  0.00    +0.000 C 
ATOM     20  N   UNL     1       5.435   4.835  16.747  0.00  0.00    +0.000 N 
BRANCH  20  21
ATOM     21  C   UNL     1       6.594   4.771  17.665  0.00  0.00    +0.000 C 
BRANCH  21  22
ATOM     22  C   UNL     1       7.262   6.099  17.981  0.00  0.00    +0.000 A 
ATOM     23  C   UNL     1       7.189   7.308  17.241  0.00  0.00    +0.000 A 
ATOM     24  C   UNL     1       8.000   8.191  17.909  0.00  0.00    +0.000 A 
ATOM     25  N   UNL     1       8.514   7.501  18.964  0.00  0.00    +0.000 N 
ATOM     26  N   UNL     1       8.084   6.228  19.037  0.00  0.00    +0.000 NA
ATOM     27  H   UNL     1       9.169   7.831  19.667  0.00  0.00    +0.000 HD
ENDBRANCH  21  22
ENDBRANCH  20  21
ENDBRANCH   1  20
TORSDOF 4
ENDMDL
MODEL 7
REMARK VINA RESULT:      -8.2      1.414      2.383
REMARK  Name = 
REMARK  5 active torsions:
REMARK  status: ('A' for Active; 'I' for Inactive)
REMARK    1  A    between atoms: C_1  and  N_2
REMARK    2  A    between atoms: N_2  and  C_3
REMARK    3  A    between atoms: N_2  and  C_9
REMARK    4  A    between atoms: C_3  and  C_4
REMARK    5  A    between atoms: C_11  and  C_12
REMARK                            x       y       z     vdW  Elec       q    Type
REMARK                         _______ _______ _______ _____ _____    ______ ____
ROOT
ATOM      1  C   UNL     1       4.151   4.799  17.202  0.00  0.00    +0.000 A 
ATOM      2  N   UNL     1       3.785   6.077  17.462  0.00  0.00    +0.000 NA
ATOM      3  C   UNL     1       2.594   6.299  18.051  0.00  0.00    +0.000 A 
ATOM      4  N   UNL     1       1.715   5.338  18.358  0.00  0.00    +0.000 NA
ATOM      5  C   UNL     1       2.070   4.073  18.080  0.00  0.00    +0.000 A 
ATOM      6  C   UNL     1       3.301   3.737  17.526  0.00  0.00    +0.000 A 
ATOM      7  C   UNL     1       3.617   2.280  17.317  0.00  0.00    +0.000 C 
ATOM      8  C   UNL     1       3.750   1.537  18.657  0.00  0.00    +0.000 C 
ATOM      9  N   UNL     1       2.469   1.066  19.205  0.00  0.00    +0.000 NA
ATOM     10  C   UNL     1       1.563   2.147  19.604  0.00  0.00    +0.000 C 
ATOM     11  C   UNL     1       1.063   3.017  18.454  0.00  0.00    +0.000 C 
ATOM     12  H   UNL     1       2.666   0.491  20.027  0.00  0.00    +0.000 HD
ENDROOT
BRANCH   3  13
ATOM     13  C   UNL     1       2.226   7.669  18.449  0.00  0.00    +0.000 A 
ATOM     14  C   UNL     1       1.712   7.998  19.711  0.00  0.00    +0.000 A 
ATOM     15  C   UNL     1       1.344   9.311  20.014  0.00  0.00    +0.000 A 
ATOM     16  C   UNL     1       1.503  10.283  19.042  0.00  0.00    +0.000 A 
ATOM     17  N   UNL     1       1.993  10.029  17.815  0.00  0.00    +0.000 NA
ATOM     18  C   UNL     1       2.340   8.739  17.554  0.00  0.00    +0.000 A 
ENDBRANCH   3  13
BRANCH   1  20
ATOM     19  C   UNL     1       5.520   5.149  15.229  0.00  0.00    +0.000 C 
ATOM     20  N   UNL     1       5.379   4.578  16.566  0.00  0.00    +0.000 N 
BRANCH  20  21
ATOM     21  C   UNL     1       6.595   4.623  17.409  0.00  0.00    +0.000 C 
BRANCH  21  22
ATOM     22  C   UNL     1       7.215   5.996  17.605  0.00  0.00    +0.000 A 
ATOM     23  C   UNL     1       7.927   6.477  18.735  0.00  0.00    +0.000 A 
ATOM     24  C   UNL     1       8.234   7.782  18.442  0.00  0.00    +0.000 A 
ATOM     25  N   UNL     1       7.703   8.022  17.211  0.00  0.00    +0.000 N 
ATOM     26  N   UNL     1       7.080   6.957  16.675  0.00  0.00    +0.000 NA
ATOM     27  H   UNL     1       7.721   8.888  16.681  0.00  0.00    +0.000 HD
ENDBRANCH  21  22
ENDBRANCH  20  21
ENDBRANCH   1  20
TORSDOF 4
ENDMDL
MODEL 8
REMARK VINA RESULT:      -8.0      2.209      2.863
REMARK  Name = 
REMARK  5 active torsions:
REMARK  status: ('A' for Active; 'I' for Inactive)
REMARK    1  A    between atoms: C_1  and  N_2
REMARK    2  A    between atoms: N_2  and  C_3
REMARK    3  A    between atoms: N_2  and  C_9
REMARK    4  A    between atoms: C_3  and  C_4
REMARK    5  A    between atoms: C_11  and  C_12
REMARK                            x       y       z     vdW  Elec       q    Type
REMARK                         _______ _______ _______ _____ _____    ______ ____
ROOT
ATOM      1  C   UNL     1       3.226   5.806  18.474  0.00  0.00    +0.000 A 
ATOM      2  N   UNL     1       2.758   7.023  18.840  0.00  0.00    +0.000 NA
ATOM      3  C   UNL     1       1.881   7.096  19.862  0.00  0.00    +0.000 A 
ATOM      4  N   UNL     1       1.400   6.034  20.518  0.00  0.00    +0.000 NA
ATOM      5  C   UNL     1       1.849   4.826  20.140  0.00  0.00    +0.000 A 
ATOM      6  C   UNL     1       2.797   4.652  19.135  0.00  0.00    +0.000 A 
ATOM      7  C   UNL     1       3.276   3.256  18.840  0.00  0.00    +0.000 C 
ATOM      8  C   UNL     1       4.072   2.673  20.020  0.00  0.00    +0.000 C 
ATOM      9  N   UNL     1       3.233   2.047  21.052  0.00  0.00    +0.000 NA
ATOM     10  C   UNL     1       2.373   2.993  21.769  0.00  0.00    +0.000 C 
ATOM     11  C   UNL     1       1.298   3.655  20.911  0.00  0.00    +0.000 C 
ATOM     12  H   UNL     1       3.848   1.593  21.730  0.00  0.00    +0.000 HD
ENDROOT
BRANCH   3  13
ATOM     13  C   UNL     1       1.448   8.415  20.352  0.00  0.00    +0.000 A 
ATOM     14  C   UNL     1       1.108   9.482  19.508  0.00  0.00    +0.000 A 
ATOM     15  C   UNL     1       0.744  10.723  20.036  0.00  0.00    +0.000 A 
ATOM     16  C   UNL     1       0.721  10.877  21.411  0.00  0.00    +0.000 A 
ATOM     17  N   UNL     1       1.035   9.891  22.270  0.00  0.00    +0.000 NA
ATOM     18  C   UNL     1       1.385   8.696  21.722  0.00  0.00    +0.000 A 
ENDBRANCH   3  13
BRANCH   1  20
ATOM     19  C   UNL     1       4.340   6.985  16.669  0.00  0.00    +0.000 C 
ATOM     20  N   UNL     1       4.116   5.737  17.395  0.00  0.00    +0.000 N 
BRANCH  20  21
ATOM     21  C   UNL     1       5.304   4.868  17.553  0.00  0.00    +0.000 C 
BRANCH  21  22
ATOM     22  C   UNL     1       6.453   5.457  18.354  0.00  0.00    +0.000 A 
ATOM     23  C   UNL     1       7.396   6.432  17.935  0.00  0.00    +0.000 A 
ATOM     24  C   UNL     1       8.252   6.587  18.996  0.00  0.00    +0.000 A 
ATOM     25  N   UNL     1       7.816   5.726  19.957  0.00  0.00    +0.000 N 
ATOM     26  N   UNL     1       6.724   5.026  19.598  0.00  0.00    +0.000 NA
ATOM     27  H   UNL     1       8.218   5.557  20.874  0.00  0.00    +0.000 HD
ENDBRANCH  21  22
ENDBRANCH  20  21
ENDBRANCH   1  20
TORSDOF 4
ENDMDL
MODEL 9
REMARK VINA RESULT:      -8.0      1.546      2.547
REMARK  Name = 
REMARK  5 active torsions:
REMARK  status: ('A' for Active; 'I' for Inactive)
REMARK    1  A    between atoms: C_1  and  N_2
REMARK    2  A    between atoms: N_2  and  C_3
REMARK    3  A    between atoms: N_2  and  C_9
REMARK    4  A    between atoms: C_3  and  C_4
REMARK    5  A    between atoms: C_11  and  C_12
REMARK                            x       y       z     vdW  Elec       q    Type
REMARK                         _______ _______ _______ _____ _____    ______ ____
ROOT
ATOM      1  C   UNL     1       3.774   5.328  17.283  0.00  0.00    +0.000 A 
ATOM      2  N   UNL     1       3.371   6.512  17.802  0.00  0.00    +0.000 NA
ATOM      3  C   UNL     1       2.281   6.531  18.594  0.00  0.00    +0.000 A 
ATOM      4  N   UNL     1       1.532   5.457  18.870  0.00  0.00    +0.000 NA
ATOM      5  C   UNL     1       1.920   4.288  18.336  0.00  0.00    +0.000 A 
ATOM      6  C   UNL     1       3.063   4.155  17.553  0.00  0.00    +0.000 A 
ATOM      7  C   UNL     1       3.438   2.783  17.062  0.00  0.00    +0.000 C 
ATOM      8  C   UNL     1       3.840   1.860  18.225  0.00  0.00    +0.000 C 
ATOM      9  N   UNL     1       2.703   1.194  18.877  0.00  0.00    +0.000 NA
ATOM     10  C   UNL     1       1.804   2.114  19.582  0.00  0.00    +0.000 C 
ATOM     11  C   UNL     1       1.063   3.097  18.681  0.00  0.00    +0.000 C 
ATOM     12  H   UNL     1       3.071   0.523  19.553  0.00  0.00    +0.000 HD
ENDROOT
BRANCH   3  13
ATOM     13  C   UNL     1       1.893   7.785  19.263  0.00  0.00    +0.000 A 
ATOM     14  C   UNL     1       1.629   7.881  20.637  0.00  0.00    +0.000 A 
ATOM     15  C   UNL     1       1.225   9.091  21.205  0.00  0.00    +0.000 A 
ATOM     16  C   UNL     1       1.095  10.197  20.383  0.00  0.00    +0.000 A 
ATOM     17  N   UNL     1       1.336  10.167  19.060  0.00  0.00    +0.000 NA
ATOM     18  C   UNL     1       1.727   8.971  18.540  0.00  0.00    +0.000 A 
ENDBRANCH   3  13
BRANCH   1  20
ATOM     19  C   UNL     1       5.133   6.549  15.685  0.00  0.00    +0.000 C 
ATOM     20  N   UNL     1       4.892   5.322  16.440  0.00  0.00    +0.000 N 
BRANCH  20  21
ATOM     21  C   UNL     1       6.104   4.626  16.929  0.00  0.00    +0.000 C 
BRANCH  21  22
ATOM     22  C   UNL     1       6.945   5.391  17.937  0.00  0.00    +0.000 A 
ATOM     23  C   UNL     1       7.553   6.664  17.776  0.00  0.00    +0.000 A 
ATOM     24  C   UNL     1       8.238   6.889  18.944  0.00  0.00    +0.000 A 
ATOM     25  N   UNL     1       8.034   5.785  19.714  0.00  0.00    +0.000 N 
ATOM     26  N   UNL     1       7.251   4.857  19.132  0.00  0.00    +0.000 NA
ATOM     27  H   UNL     1       8.403   5.592  20.640  0.00  0.00    +0.000 HD
ENDBRANCH  21  22
ENDBRANCH  20  21
ENDBRANCH   1  20
TORSDOF 4
ENDMDL
