MODEL 1
REMARK VINA RESULT:      -7.8      0.000      0.000
REMARK  Name = 
REMARK  6 active torsions:
REMARK  status: ('A' for Active; 'I' for Inactive)
REMARK    1  A    between atoms: N_1  and  S_2
REMARK    2  A    between atoms: S_2  and  C_5
REMARK    3  A    between atoms: C_9  and  C_10
REMARK    4  A    between atoms: N_12  and  C_13
REMARK    5  A    between atoms: C_18  and  C_19
REMARK    6  A    between atoms: C_19  and  O_21
REMARK                            x       y       z     vdW  Elec       q    Type
REMARK                         _______ _______ _______ _____ _____    ______ ____
ROOT
ATOM      1  C   UNL     1       2.330   6.364  19.714  0.00  0.00    +0.000 C 
ATOM      2  O   UNL     1       1.583   5.679  20.406  0.00  0.00    +0.000 OA
ATOM      3  N   UNL     1       2.259   7.743  19.563  0.00  0.00    +0.000 N 
ATOM      4  H   UNL     1       2.694   8.154  18.736  0.00  0.00    +0.000 HD
ENDROOT
BRANCH   1   9
ATOM      5  C   UNL     1       5.664   5.101  18.416  0.00  0.00    +0.000 A 
ATOM      6  C   UNL     1       5.254   4.100  17.530  0.00  0.00    +0.000 A 
ATOM      7  C   UNL     1       3.893   3.874  17.345  0.00  0.00    +0.000 A 
ATOM      8  C   UNL     1       2.959   4.644  18.043  0.00  0.00    +0.000 A 
ATOM      9  C   UNL     1       3.374   5.642  18.942  0.00  0.00    +0.000 A 
ATOM     10  C   UNL     1       4.736   5.860  19.144  0.00  0.00    +0.000 A 
BRANCH   5  11
ATOM     11  S   UNL     1       7.383   5.458  18.625  0.00  0.00    +0.000 S 
ATOM     12  O   UNL     1       7.757   5.254  20.006  0.00  0.00    +0.000 OA
ATOM     13  O   UNL     1       7.708   6.657  17.890  0.00  0.00    +0.000 OA
BRANCH  11  14
ATOM     14  N   UNL     1       8.047   4.180  17.760  0.00  0.00    +0.000 NA
ATOM     15  H   UNL     1       8.197   4.449  16.787  0.00  0.00    +0.000 HD
ATOM     16  H   UNL     1       7.509   3.323  17.889  0.00  0.00    +0.000 HD
ENDBRANCH  11  14
ENDBRANCH   5  11
ENDBRANCH   1   9
BRANCH   3  17
ATOM     17  C   UNL     1       1.378   8.598  20.293  0.00  0.00    +0.000 A 
ATOM     18  C   UNL     1       1.275   8.495  21.687  0.00  0.00    +0.000 A 
ATOM     19  C   UNL     1       0.369   9.270  22.416  0.00  0.00    +0.000 A 
ATOM     20  C   UNL     1      -0.452  10.175  21.764  0.00  0.00    +0.000 A 
ATOM     21  C   UNL     1      -0.341  10.334  20.383  0.00  0.00    +0.000 A 
ATOM     22  C   UNL     1       0.595   9.580  19.646  0.00  0.00    +0.000 A 
BRANCH  22  23
ATOM     23  C   UNL     1       0.711   9.802  18.180  0.00  0.00    +0.000 C 
ATOM     24  O   UNL     1       1.774   9.754  17.582  0.00  0.00    +0.000 OA
BRANCH  23  25
ATOM     25  O   UNL     1      -0.449  10.142  17.576  0.00  0.00    +0.000 OA
ATOM     26  H   UNL     1      -0.453  11.005  17.120  0.00  0.00    +0.000 HD
ENDBRANCH  23  25
ENDBRANCH  22  23
ENDBRANCH   3  17
TORSDOF 6
ENDMDL
MODEL 2
REMARK VINA RESULT:      -7.8      0.821      1.013
REMARK  Name = 
REMARK  6 active torsions:
REMARK  status: ('A' for Active; 'I' for Inactive)
REMARK    1  A    between atoms: N_1  and  S_2
REMARK    2  A    between atoms: S_2  and  C_5
REMARK    3  A    between atoms: C_9  and  C_10
REMARK    4  A    between atoms: N_12  and  C_13
REMARK    5  A    between atoms: C_18  and  C_19
REMARK    6  A    between atoms: C_19  and  O_21
REMARK                            x       y       z     vdW  Elec       q    Type
REMARK                         _______ _______ _______ _____ _____    ______ ____
ROOT
ATOM      1  C   UNL     1       2.392   6.243  19.598  0.00  0.00    +0.000 C 
ATOM      2  O   UNL     1       1.732   5.583  20.395  0.00  0.00    +0.000 OA
ATOM      3  N   UNL     1       2.293   7.614  19.400  0.00  0.00    +0.000 N 
ATOM      4  H   UNL     1       2.630   7.992  18.514  0.00  0.00    +0.000 HD
ENDROOT
BRANCH   1   9
ATOM      5  C   UNL     1       5.573   4.877  18.044  0.00  0.00    +0.000 A 
ATOM      6  C   UNL     1       5.063   3.903  17.180  0.00  0.00    +0.000 A 
ATOM      7  C   UNL     1       3.684   3.730  17.093  0.00  0.00    +0.000 A 
ATOM      8  C   UNL     1       2.833   4.523  17.866  0.00  0.00    +0.000 A 
ATOM      9  C   UNL     1       3.350   5.493  18.743  0.00  0.00    +0.000 A 
ATOM     10  C   UNL     1       4.729   5.659  18.847  0.00  0.00    +0.000 A 
BRANCH   5  11
ATOM     11  S   UNL     1       7.315   5.168  18.131  0.00  0.00    +0.000 S 
ATOM     12  O   UNL     1       7.991   4.373  17.131  0.00  0.00    +0.000 OA
ATOM     13  O   UNL     1       7.719   5.200  19.516  0.00  0.00    +0.000 OA
BRANCH  11  14
ATOM     14  N   UNL     1       7.366   6.757  17.587  0.00  0.00    +0.000 NA
ATOM     15  H   UNL     1       8.329   7.037  17.397  0.00  0.00    +0.000 HD
ATOM     16  H   UNL     1       6.855   7.381  18.211  0.00  0.00    +0.000 HD
ENDBRANCH  11  14
ENDBRANCH   5  11
ENDBRANCH   1   9
BRANCH   3  17
ATOM     17  C   UNL     1       1.492   8.495  20.189  0.00  0.00    +0.000 A 
ATOM     18  C   UNL     1       1.442   8.359  21.584  0.00  0.00    +0.000 A 
ATOM     19  C   UNL     1       0.612   9.161  22.370  0.00  0.00    +0.000 A 
ATOM     20  C   UNL     1      -0.185  10.127  21.778  0.00  0.00    +0.000 A 
ATOM     21  C   UNL     1      -0.124  10.317  20.398  0.00  0.00    +0.000 A 
ATOM     22  C   UNL     1       0.738   9.535  19.602  0.00  0.00    +0.000 A 
BRANCH  22  23
ATOM     23  C   UNL     1       0.805   9.791  18.138  0.00  0.00    +0.000 C 
ATOM     24  O   UNL     1       1.843   9.736  17.500  0.00  0.00    +0.000 OA
BRANCH  23  25
ATOM     25  O   UNL     1      -0.370  10.169  17.587  0.00  0.00    +0.000 OA
ATOM     26  H   UNL     1      -0.999   9.448  17.393  0.00  0.00    +0.000 HD
ENDBRANCH  23  25
ENDBRANCH  22  23
ENDBRANCH   3  17
TORSDOF 6
ENDMDL
MODEL 3
REMARK VINA RESULT:      -7.5      2.980      7.333
REMARK  Name = 
REMARK  6 active torsions:
REMARK  status: ('A' for Active; 'I' for Inactive)
REMARK    1  A    between atoms: N_1  and  S_2
REMARK    2  A    between atoms: S_2  and  C_5
REMARK    3  A    between atoms: C_9  and  C_10
REMARK    4  A    between atoms: N_12  and  C_13
REMARK    5  A    between atoms: C_18  and  C_19
REMARK    6  A    between atoms: C_19  and  O_21
REMARK                            x       y       z     vdW  Elec       q    Type
REMARK                         _______ _______ _______ _____ _____    ______ ____
ROOT
ATOM      1  C   UNL     1       2.889   6.949  18.024  0.00  0.00    +0.000 C 
ATOM      2  O   UNL     1       2.303   5.872  17.989  0.00  0.00    +0.000 OA
ATOM      3  N   UNL     1       4.195   7.178  17.609  0.00  0.00    +0.000 N 
ATOM      4  H   UNL     1       4.675   7.999  17.982  0.00  0.00    +0.000 HD
ENDROOT
BRANCH   1   9
ATOM      5  C   UNL     1       1.091   9.278  20.420  0.00  0.00    +0.000 A 
ATOM      6  C   UNL     1       0.869  10.394  19.607  0.00  0.00    +0.000 A 
ATOM      7  C   UNL     1       1.281  10.357  18.278  0.00  0.00    +0.000 A 
ATOM      8  C   UNL     1       1.909   9.214  17.776  0.00  0.00    +0.000 A 
ATOM      9  C   UNL     1       2.141   8.098  18.599  0.00  0.00    +0.000 A 
ATOM     10  C   UNL     1       1.747   8.136  19.935  0.00  0.00    +0.000 A 
BRANCH   5  11
ATOM     11  S   UNL     1       0.522   9.267  22.095  0.00  0.00    +0.000 S 
ATOM     12  O   UNL     1       1.654   9.199  22.992  0.00  0.00    +0.000 OA
ATOM     13  O   UNL     1      -0.618   8.388  22.199  0.00  0.00    +0.000 OA
BRANCH  11  14
ATOM     14  N   UNL     1      -0.076  10.833  22.203  0.00  0.00    +0.000 NA
ATOM     15  H   UNL     1      -0.635  10.943  23.050  0.00  0.00    +0.000 HD
ATOM     16  H   UNL     1      -0.545  11.113  21.342  0.00  0.00    +0.000 HD
ENDBRANCH  11  14
ENDBRANCH   5  11
ENDBRANCH   1   9
BRANCH   3  17
ATOM     17  C   UNL     1       5.023   6.214  16.957  0.00  0.00    +0.000 A 
ATOM     18  C   UNL     1       5.127   6.190  15.559  0.00  0.00    +0.000 A 
ATOM     19  C   UNL     1       5.872   5.214  14.895  0.00  0.00    +0.000 A 
ATOM     20  C   UNL     1       6.541   4.238  15.618  0.00  0.00    +0.000 A 
ATOM     21  C   UNL     1       6.493   4.262  17.011  0.00  0.00    +0.000 A 
ATOM     22  C   UNL     1       5.771   5.266  17.689  0.00  0.00    +0.000 A 
BRANCH  22  23
ATOM     23  C   UNL     1       5.773   5.281  19.176  0.00  0.00    +0.000 C 
ATOM     24  O   UNL     1       6.788   5.434  19.838  0.00  0.00    +0.000 OA
BRANCH  23  25
ATOM     25  O   UNL     1       4.569   5.031  19.736  0.00  0.00    +0.000 OA
ATOM     26  H   UNL     1       3.851   5.645  19.490  0.00  0.00    +0.000 HD
ENDBRANCH  23  25
ENDBRANCH  22  23
ENDBRANCH   3  17
TORSDOF 6
ENDMDL
MODEL 4
REMARK VINA RESULT:      -7.4      2.797      7.355
REMARK  Name = 
REMARK  6 active torsions:
REMARK  status: ('A' for Active; 'I' for Inactive)
REMARK    1  A    between atoms: N_1  and  S_2
REMARK    2  A    between atoms: S_2  and  C_5
REMARK    3  A    between atoms: C_9  and  C_10
REMARK    4  A    between atoms: N_12  and  C_13
REMARK    5  A    between atoms: C_18  and  C_19
REMARK    6  A    between atoms: C_19  and  O_21
REMARK                            x       y       z     vdW  Elec       q    Type
REMARK                         _______ _______ _______ _____ _____    ______ ____
ROOT
ATOM      1  C   UNL     1       3.006   6.391  18.214  0.00  0.00    +0.000 C 
ATOM      2  O   UNL     1       2.405   5.364  17.914  0.00  0.00    +0.000 OA
ATOM      3  N   UNL     1       4.309   6.707  17.849  0.00  0.00    +0.000 N 
ATOM      4  H   UNL     1       4.806   7.400  18.411  0.00  0.00    +0.000 HD
ENDROOT
BRANCH   1   9
ATOM      5  C   UNL     1       1.171   9.462  19.478  0.00  0.00    +0.000 A 
ATOM      6  C   UNL     1       0.778   9.044  20.754  0.00  0.00    +0.000 A 
ATOM      7  C   UNL     1       1.147   7.776  21.195  0.00  0.00    +0.000 A 
ATOM      8  C   UNL     1       1.898   6.942  20.363  0.00  0.00    +0.000 A 
ATOM      9  C   UNL     1       2.281   7.361  19.077  0.00  0.00    +0.000 A 
ATOM     10  C   UNL     1       1.900   8.622  18.623  0.00  0.00    +0.000 A 
BRANCH   5  11
ATOM     11  S   UNL     1       0.775  11.090  18.912  0.00  0.00    +0.000 S 
ATOM     12  O   UNL     1       1.046  12.048  19.960  0.00  0.00    +0.000 OA
ATOM     13  O   UNL     1      -0.474  11.047  18.189  0.00  0.00    +0.000 OA
BRANCH  11  14
ATOM     14  N   UNL     1       1.981  11.293  17.760  0.00  0.00    +0.000 NA
ATOM     15  H   UNL     1       2.895  11.080  18.161  0.00  0.00    +0.000 HD
ATOM     16  H   UNL     1       1.915  12.203  17.307  0.00  0.00    +0.000 HD
ENDBRANCH  11  14
ENDBRANCH   5  11
ENDBRANCH   1   9
BRANCH   3  17
ATOM     17  C   UNL     1       5.114   5.934  16.958  0.00  0.00    +0.000 A 
ATOM     18  C   UNL     1       5.127   6.211  15.583  0.00  0.00    +0.000 A 
ATOM     19  C   UNL     1       5.849   5.426  14.682  0.00  0.00    +0.000 A 
ATOM     20  C   UNL     1       6.586   4.345  15.138  0.00  0.00    +0.000 A 
ATOM     21  C   UNL     1       6.630   4.070  16.505  0.00  0.00    +0.000 A 
ATOM     22  C   UNL     1       5.931   4.880  17.424  0.00  0.00    +0.000 A 
BRANCH  22  23
ATOM     23  C   UNL     1       6.031   4.580  18.877  0.00  0.00    +0.000 C 
ATOM     24  O   UNL     1       6.596   5.315  19.671  0.00  0.00    +0.000 OA
BRANCH  23  25
ATOM     25  O   UNL     1       5.514   3.383  19.233  0.00  0.00    +0.000 OA
ATOM     26  H   UNL     1       5.053   3.359  20.093  0.00  0.00    +0.000 HD
ENDBRANCH  23  25
ENDBRANCH  22  23
ENDBRANCH   3  17
TORSDOF 6
ENDMDL
MODEL 5
REMARK VINA RESULT:      -7.4      1.233      1.430
REMARK  Name = 
REMARK  6 active torsions:
REMARK  status: ('A' for Active; 'I' for Inactive)
REMARK    1  A    between atoms: N_1  and  S_2
REMARK    2  A    between atoms: S_2  and  C_5
REMARK    3  A    between atoms: C_9  and  C_10
REMARK    4  A    between atoms: N_12  and  C_13
REMARK    5  A    between atoms: C_18  and  C_19
REMARK    6  A    between atoms: C_19  and  O_21
REMARK                            x       y       z     vdW  Elec       q    Type
REMARK                         _______ _______ _______ _____ _____    ______ ____
ROOT
ATOM      1  C   UNL     1       2.273   6.370  19.913  0.00  0.00    +0.000 C 
ATOM      2  O   UNL     1       1.499   5.737  20.623  0.00  0.00    +0.000 OA
ATOM      3  N   UNL     1       2.239   7.741  19.693  0.00  0.00    +0.000 N 
ATOM      4  H   UNL     1       2.698   8.100  18.855  0.00  0.00    +0.000 HD
ENDROOT
BRANCH   1   9
ATOM      5  C   UNL     1       5.169   5.374  17.671  0.00  0.00    +0.000 A 
ATOM      6  C   UNL     1       5.342   4.032  18.022  0.00  0.00    +0.000 A 
ATOM      7  C   UNL     1       4.489   3.462  18.963  0.00  0.00    +0.000 A 
ATOM      8  C   UNL     1       3.478   4.234  19.543  0.00  0.00    +0.000 A 
ATOM      9  C   UNL     1       3.314   5.586  19.196  0.00  0.00    +0.000 A 
ATOM     10  C   UNL     1       4.176   6.166  18.267  0.00  0.00    +0.000 A 
BRANCH   5  11
ATOM     11  S   UNL     1       6.193   6.111  16.432  0.00  0.00    +0.000 S 
ATOM     12  O   UNL     1       6.847   7.280  16.974  0.00  0.00    +0.000 OA
ATOM     13  O   UNL     1       5.480   6.120  15.176  0.00  0.00    +0.000 OA
BRANCH  11  14
ATOM     14  N   UNL     1       7.375   4.925  16.296  0.00  0.00    +0.000 NA
ATOM     15  H   UNL     1       7.644   4.801  15.320  0.00  0.00    +0.000 HD
ATOM     16  H   UNL     1       7.100   4.068  16.775  0.00  0.00    +0.000 HD
ENDBRANCH  11  14
ENDBRANCH   5  11
ENDBRANCH   1   9
BRANCH   3  17
ATOM     17  C   UNL     1       1.367   8.651  20.364  0.00  0.00    +0.000 A 
ATOM     18  C   UNL     1       1.244   8.625  21.761  0.00  0.00    +0.000 A 
ATOM     19  C   UNL     1       0.345   9.455  22.435  0.00  0.00    +0.000 A 
ATOM     20  C   UNL     1      -0.450  10.340  21.724  0.00  0.00    +0.000 A 
ATOM     21  C   UNL     1      -0.319  10.422  20.338  0.00  0.00    +0.000 A 
ATOM     22  C   UNL     1       0.611   9.611  19.655  0.00  0.00    +0.000 A 
BRANCH  22  23
ATOM     23  C   UNL     1       0.750   9.751  18.181  0.00  0.00    +0.000 C 
ATOM     24  O   UNL     1       1.818   9.645  17.600  0.00  0.00    +0.000 OA
BRANCH  23  25
ATOM     25  O   UNL     1      -0.395  10.087  17.545  0.00  0.00    +0.000 OA
ATOM     26  H   UNL     1      -1.218   9.951  18.053  0.00  0.00    +0.000 HD
ENDBRANCH  23  25
ENDBRANCH  22  23
ENDBRANCH   3  17
TORSDOF 6
ENDMDL
MODEL 6
REMARK VINA RESULT:      -7.4      1.295      1.710
REMARK  Name = 
REMARK  6 active torsions:
REMARK  status: ('A' for Active; 'I' for Inactive)
REMARK    1  A    between atoms: N_1  and  S_2
REMARK    2  A    between atoms: S_2  and  C_5
REMARK    3  A    between atoms: C_9  and  C_10
REMARK    4  A    between atoms: N_12  and  C_13
REMARK    5  A    between atoms: C_18  and  C_19
REMARK    6  A    between atoms: C_19  and  O_21
REMARK                            x       y       z     vdW  Elec       q    Type
REMARK                         _______ _______ _______ _____ _____    ______ ____
ROOT
ATOM      1  C   UNL     1       2.324   6.286  19.466  0.00  0.00    +0.000 C 
ATOM      2  O   UNL     1       1.921   5.670  20.448  0.00  0.00    +0.000 OA
ATOM      3  N   UNL     1       2.092   7.629  19.197  0.00  0.00    +0.000 N 
ATOM      4  H   UNL     1       2.179   7.943  18.230  0.00  0.00    +0.000 HD
ENDROOT
BRANCH   1   9
ATOM      5  C   UNL     1       5.042   5.090  17.104  0.00  0.00    +0.000 A 
ATOM      6  C   UNL     1       4.516   3.869  16.672  0.00  0.00    +0.000 A 
ATOM      7  C   UNL     1       3.265   3.469  17.133  0.00  0.00    +0.000 A 
ATOM      8  C   UNL     1       2.556   4.286  18.018  0.00  0.00    +0.000 A 
ATOM      9  C   UNL     1       3.093   5.508  18.459  0.00  0.00    +0.000 A 
ATOM     10  C   UNL     1       4.353   5.905  18.015  0.00  0.00    +0.000 A 
BRANCH   5  11
ATOM     11  S   UNL     1       6.599   5.659  16.486  0.00  0.00    +0.000 S 
ATOM     12  O   UNL     1       6.535   5.783  15.048  0.00  0.00    +0.000 OA
ATOM     13  O   UNL     1       7.660   4.958  17.169  0.00  0.00    +0.000 OA
BRANCH  11  14
ATOM     14  N   UNL     1       6.595   7.223  17.099  0.00  0.00    +0.000 NA
ATOM     15  H   UNL     1       5.750   7.717  16.808  0.00  0.00    +0.000 HD
ATOM     16  H   UNL     1       7.466   7.708  16.890  0.00  0.00    +0.000 HD
ENDBRANCH  11  14
ENDBRANCH   5  11
ENDBRANCH   1   9
BRANCH   3  17
ATOM     17  C   UNL     1       1.450   8.539  20.092  0.00  0.00    +0.000 A 
ATOM     18  C   UNL     1       1.598   8.402  21.479  0.00  0.00    +0.000 A 
ATOM     19  C   UNL     1       0.924   9.234  22.376  0.00  0.00    +0.000 A 
ATOM     20  C   UNL     1       0.088  10.232  21.903  0.00  0.00    +0.000 A 
ATOM     21  C   UNL     1      -0.045  10.424  20.528  0.00  0.00    +0.000 A 
ATOM     22  C   UNL     1       0.660   9.609  19.617  0.00  0.00    +0.000 A 
BRANCH  22  23
ATOM     23  C   UNL     1       0.523   9.866  18.159  0.00  0.00    +0.000 C 
ATOM     24  O   UNL     1      -0.553   9.865  17.582  0.00  0.00    +0.000 OA
BRANCH  23  25
ATOM     25  O   UNL     1       1.698  10.020  17.509  0.00  0.00    +0.000 OA
ATOM     26  H   UNL     1       1.694  10.660  16.772  0.00  0.00    +0.000 HD
ENDBRANCH  23  25
ENDBRANCH  22  23
ENDBRANCH   3  17
TORSDOF 6
ENDMDL
MODEL 7
REMARK VINA RESULT:      -7.4      2.784      7.432
REMARK  Name = 
REMARK  6 active torsions:
REMARK  status: ('A' for Active; 'I' for Inactive)
REMARK    1  A    between atoms: N_1  and  S_2
REMARK    2  A    between atoms: S_2  and  C_5
REMARK    3  A    between atoms: C_9  and  C_10
REMARK    4  A    between atoms: N_12  and  C_13
REMARK    5  A    between atoms: C_18  and  C_19
REMARK    6  A    between atoms: C_19  and  O_21
REMARK                            x       y       z     vdW  Elec       q    Type
REMARK                         _______ _______ _______ _____ _____    ______ ____
ROOT
ATOM      1  C   UNL     1       3.241   6.394  18.178  0.00  0.00    +0.000 C 
ATOM      2  O   UNL     1       2.687   5.362  17.815  0.00  0.00    +0.000 OA
ATOM      3  N   UNL     1       4.551   6.758  17.891  0.00  0.00    +0.000 N 
ATOM      4  H   UNL     1       4.998   7.445  18.500  0.00  0.00    +0.000 HD
ENDROOT
BRANCH   1   9
ATOM      5  C   UNL     1       1.230   9.354  19.442  0.00  0.00    +0.000 A 
ATOM      6  C   UNL     1       0.815   8.892  20.694  0.00  0.00    +0.000 A 
ATOM      7  C   UNL     1       1.225   7.632  21.122  0.00  0.00    +0.000 A 
ATOM      8  C   UNL     1       2.039   6.849  20.299  0.00  0.00    +0.000 A 
ATOM      9  C   UNL     1       2.446   7.312  19.036  0.00  0.00    +0.000 A 
ATOM     10  C   UNL     1       2.024   8.565  18.595  0.00  0.00    +0.000 A 
BRANCH   5  11
ATOM     11  S   UNL     1       0.782  10.975  18.896  0.00  0.00    +0.000 S 
ATOM     12  O   UNL     1       1.906  11.592  18.230  0.00  0.00    +0.000 OA
ATOM     13  O   UNL     1       0.027  11.630  19.937  0.00  0.00    +0.000 OA
BRANCH  11  14
ATOM     14  N   UNL     1      -0.321  10.575  17.693  0.00  0.00    +0.000 NA
ATOM     15  H   UNL     1       0.155  10.466  16.796  0.00  0.00    +0.000 HD
ATOM     16  H   UNL     1      -1.111  11.220  17.681  0.00  0.00    +0.000 HD
ENDBRANCH  11  14
ENDBRANCH   5  11
ENDBRANCH   1   9
BRANCH   3  17
ATOM     17  C   UNL     1       5.421   6.040  17.016  0.00  0.00    +0.000 A 
ATOM     18  C   UNL     1       5.121   5.915  15.652  0.00  0.00    +0.000 A 
ATOM     19  C   UNL     1       5.918   5.159  14.791  0.00  0.00    +0.000 A 
ATOM     20  C   UNL     1       7.045   4.513  15.274  0.00  0.00    +0.000 A 
ATOM     21  C   UNL     1       7.396   4.654  16.616  0.00  0.00    +0.000 A 
ATOM     22  C   UNL     1       6.614   5.445  17.484  0.00  0.00    +0.000 A 
BRANCH  22  23
ATOM     23  C   UNL     1       7.039   5.604  18.900  0.00  0.00    +0.000 C 
ATOM     24  O   UNL     1       6.420   5.128  19.838  0.00  0.00    +0.000 OA
BRANCH  23  25
ATOM     25  O   UNL     1       8.127   6.388  19.069  0.00  0.00    +0.000 OA
ATOM     26  H   UNL     1       8.549   6.709  18.250  0.00  0.00    +0.000 HD
ENDBRANCH  23  25
ENDBRANCH  22  23
ENDBRANCH   3  17
TORSDOF 6
ENDMDL
MODEL 8
REMARK VINA RESULT:      -7.3      3.323      7.235
REMARK  Name = 
REMARK  6 active torsions:
REMARK  status: ('A' for Active; 'I' for Inactive)
REMARK    1  A    between atoms: N_1  and  S_2
REMARK    2  A    between atoms: S_2  and  C_5
REMARK    3  A    between atoms: C_9  and  C_10
REMARK    4  A    between atoms: N_12  and  C_13
REMARK    5  A    between atoms: C_18  and  C_19
REMARK    6  A    between atoms: C_19  and  O_21
REMARK                            x       y       z     vdW  Elec       q    Type
REMARK                         _______ _______ _______ _____ _____    ______ ____
ROOT
ATOM      1  C   UNL     1       1.978   8.463  18.187  0.00  0.00    +0.000 C 
ATOM      2  O   UNL     1       2.244   8.870  17.061  0.00  0.00    +0.000 OA
ATOM      3  N   UNL     1       2.400   7.259  18.737  0.00  0.00    +0.000 N 
ATOM      4  H   UNL     1       1.865   6.880  19.520  0.00  0.00    +0.000 HD
ENDROOT
BRANCH   1   9
ATOM      5  C   UNL     1       0.186  10.070  21.121  0.00  0.00    +0.000 A 
ATOM      6  C   UNL     1      -0.501  11.111  20.489  0.00  0.00    +0.000 A 
ATOM      7  C   UNL     1      -0.394  11.253  19.108  0.00  0.00    +0.000 A 
ATOM      8  C   UNL     1       0.393  10.361  18.376  0.00  0.00    +0.000 A 
ATOM      9  C   UNL     1       1.092   9.322  19.016  0.00  0.00    +0.000 A 
ATOM     10  C   UNL     1       1.003   9.186  20.400  0.00  0.00    +0.000 A 
BRANCH   5  11
ATOM     11  S   UNL     1       0.021   9.821  22.864  0.00  0.00    +0.000 S 
ATOM     12  O   UNL     1      -0.865  10.821  23.416  0.00  0.00    +0.000 OA
ATOM     13  O   UNL     1       1.319   9.525  23.422  0.00  0.00    +0.000 OA
BRANCH  11  14
ATOM     14  N   UNL     1      -0.835   8.376  22.866  0.00  0.00    +0.000 NA
ATOM     15  H   UNL     1      -1.174   8.164  23.805  0.00  0.00    +0.000 HD
ATOM     16  H   UNL     1      -0.303   7.626  22.425  0.00  0.00    +0.000 HD
ENDBRANCH  11  14
ENDBRANCH   5  11
ENDBRANCH   1   9
BRANCH   3  17
ATOM     17  C   UNL     1       3.319   6.359  18.117  0.00  0.00    +0.000 A 
ATOM     18  C   UNL     1       4.566   6.811  17.662  0.00  0.00    +0.000 A 
ATOM     19  C   UNL     1       5.452   5.968  16.989  0.00  0.00    +0.000 A 
ATOM     20  C   UNL     1       5.114   4.644  16.762  0.00  0.00    +0.000 A 
ATOM     21  C   UNL     1       3.901   4.152  17.241  0.00  0.00    +0.000 A 
ATOM     22  C   UNL     1       3.016   4.989  17.952  0.00  0.00    +0.000 A 
BRANCH  22  23
ATOM     23  C   UNL     1       1.748   4.421  18.481  0.00  0.00    +0.000 C 
ATOM     24  O   UNL     1       1.386   4.565  19.638  0.00  0.00    +0.000 OA
BRANCH  23  25
ATOM     25  O   UNL     1       1.067   3.662  17.593  0.00  0.00    +0.000 OA
ATOM     26  H   UNL     1       1.358   3.732  16.664  0.00  0.00    +0.000 HD
ENDBRANCH  23  25
ENDBRANCH  22  23
ENDBRANCH   3  17
TORSDOF 6
ENDMDL
MODEL 9
REMARK VINA RESULT:      -7.2      2.712      7.418
REMARK  Name = 
REMARK  6 active torsions:
REMARK  status: ('A' for Active; 'I' for Inactive)
REMARK    1  A    between atoms: N_1  and  S_2
REMARK    2  A    between atoms: S_2  and  C_5
REMARK    3  A    between atoms: C_9  and  C_10
REMARK    4  A    between atoms: N_12  and  C_13
REMARK    5  A    between atoms: C_18  and  C_19
REMARK    6  A    between atoms: C_19  and  O_21
REMARK                            x       y       z     vdW  Elec       q    Type
REMARK                         _______ _______ _______ _____ _____    ______ ____
ROOT
ATOM      1  C   UNL     1       3.282   6.347  18.270  0.00  0.00    +0.000 C 
ATOM      2  O   UNL     1       2.790   5.247  18.040  0.00  0.00    +0.000 OA
ATOM      3  N   UNL     1       4.539   6.777  17.864  0.00  0.00    +0.000 N 
ATOM      4  H   UNL     1       4.967   7.549  18.376  0.00  0.00    +0.000 HD
ENDROOT
BRANCH   1   9
ATOM      5  C   UNL     1       1.281   9.350  19.444  0.00  0.00    +0.000 A 
ATOM      6  C   UNL     1       0.802   8.898  20.677  0.00  0.00    +0.000 A 
ATOM      7  C   UNL     1       1.166   7.631  21.123  0.00  0.00    +0.000 A 
ATOM      8  C   UNL     1       1.999   6.830  20.337  0.00  0.00    +0.000 A 
ATOM      9  C   UNL     1       2.470   7.283  19.092  0.00  0.00    +0.000 A 
ATOM     10  C   UNL     1       2.094   8.544  18.633  0.00  0.00    +0.000 A 
BRANCH   5  11
ATOM     11  S   UNL     1       0.891  10.980  18.878  0.00  0.00    +0.000 S 
ATOM     12  O   UNL     1      -0.435  10.990  18.304  0.00  0.00    +0.000 OA
ATOM     13  O   UNL     1       2.043  11.534  18.208  0.00  0.00    +0.000 OA
BRANCH  11  14
ATOM     14  N   UNL     1       0.775  11.774  20.354  0.00  0.00    +0.000 NA
ATOM     15  H   UNL     1      -0.048  11.455  20.866  0.00  0.00    +0.000 HD
ATOM     16  H   UNL     1       0.843  12.785  20.240  0.00  0.00    +0.000 HD
ENDBRANCH  11  14
ENDBRANCH   5  11
ENDBRANCH   1   9
BRANCH   3  17
ATOM     17  C   UNL     1       5.410   6.043  17.001  0.00  0.00    +0.000 A 
ATOM     18  C   UNL     1       5.118   5.909  15.636  0.00  0.00    +0.000 A 
ATOM     19  C   UNL     1       5.915   5.139  14.787  0.00  0.00    +0.000 A 
ATOM     20  C   UNL     1       7.032   4.487  15.284  0.00  0.00    +0.000 A 
ATOM     21  C   UNL     1       7.375   4.637  16.627  0.00  0.00    +0.000 A 
ATOM     22  C   UNL     1       6.594   5.442  17.483  0.00  0.00    +0.000 A 
BRANCH  22  23
ATOM     23  C   UNL     1       7.010   5.609  18.901  0.00  0.00    +0.000 C 
ATOM     24  O   UNL     1       6.379   5.147  19.838  0.00  0.00    +0.000 OA
BRANCH  23  25
ATOM     25  O   UNL     1       8.104   6.384  19.070  0.00  0.00    +0.000 OA
ATOM     26  H   UNL     1       8.832   6.235  18.437  0.00  0.00    +0.000 HD
ENDBRANCH  23  25
ENDBRANCH  22  23
ENDBRANCH   3  17
TORSDOF 6
ENDMDL
