MODEL 1
REMARK VINA RESULT:      -8.2      0.000      0.000
REMARK  Name = 
REMARK  7 active torsions:
REMARK  status: ('A' for Active; 'I' for Inactive)
REMARK    1  A    between atoms: C_2  and  C_3
REMARK    2  A    between atoms: C_3  and  N_4
REMARK    3  A    between atoms: N_4  and  C_5
REMARK    4  A    between atoms: C_5  and  C_6
REMARK    5  A    between atoms: C_13  and  C_15
REMARK    6  A    between atoms: N_20  and  C_21
REMARK    7  A    between atoms: C_21  and  C_22
REMARK                            x       y       z     vdW  Elec       q    Type
REMARK                         _______ _______ _______ _____ _____    ______ ____
ROOT
ATOM      1  N   UNL     1       3.681   5.937  17.981  0.00  0.00    +0.000 N 
ATOM      2  C   UNL     1       4.956   6.152  17.416  0.00  0.00    +0.000 C 
ATOM      3  O   UNL     1       5.716   7.002  17.875  0.00  0.00    +0.000 OA
ENDROOT
BRANCH   2   4
ATOM      4  C   UNL     1       5.428   5.341  16.318  0.00  0.00    +0.000 A 
ATOM      5  C   UNL     1       5.322   5.590  14.962  0.00  0.00    +0.000 A 
ATOM      6  C   UNL     1       5.888   4.481  14.298  0.00  0.00    +0.000 A 
ATOM      7  C   UNL     1       6.268   3.604  15.285  0.00  0.00    +0.000 A 
ATOM      8  O   UNL     1       5.973   4.105  16.510  0.00  0.00    +0.000 OA
ENDBRANCH   2   4
BRANCH   1   9
ATOM      9  C   UNL     1       3.091   6.898  18.932  0.00  0.00    +0.000 C 
BRANCH   9  11
ATOM     10  O   UNL     1       2.386   8.453  17.199  0.00  0.00    +0.000 OA
ATOM     11  C   UNL     1       2.345   8.132  18.387  0.00  0.00    +0.000 C 
ATOM     12  N   UNL     1       1.643   8.913  19.264  0.00  0.00    +0.000 N 
ATOM     13  H   UNL     1       1.205   9.718  18.848  0.00  0.00    +0.000 HD
BRANCH  12  14
ATOM     14  C   UNL     1       1.147   8.473  20.550  0.00  0.00    +0.000 C 
BRANCH  14  15
ATOM     15  C   UNL     1       0.460   9.556  21.301  0.00  0.00    +0.000 A 
ATOM     16  C   UNL     1       0.448  10.861  20.810  0.00  0.00    +0.000 A 
ATOM     17  C   UNL     1      -0.220  11.849  21.520  0.00  0.00    +0.000 A 
ATOM     18  C   UNL     1      -0.872  11.530  22.705  0.00  0.00    +0.000 A 
ATOM     19  F   UNL     1      -1.506  12.489  23.386  0.00  0.00    +0.000 F 
ATOM     20  C   UNL     1      -0.879  10.229  23.200  0.00  0.00    +0.000 A 
ATOM     21  C   UNL     1      -0.210   9.238  22.492  0.00  0.00    +0.000 A 
ENDBRANCH  14  15
ENDBRANCH  12  14
ENDBRANCH   9  11
ENDBRANCH   1   9
BRANCH   1  22
ATOM     22  C   UNL     1       2.940   4.696  17.794  0.00  0.00    +0.000 C 
BRANCH  22  23
ATOM     23  C   UNL     1       2.532   4.020  19.074  0.00  0.00    +0.000 A 
ATOM     24  C   UNL     1       1.217   3.975  19.563  0.00  0.00    +0.000 A 
ATOM     25  C   UNL     1       0.910   3.242  20.708  0.00  0.00    +0.000 A 
ATOM     26  C   UNL     1       1.912   2.545  21.380  0.00  0.00    +0.000 A 
ATOM     27  C   UNL     1       3.226   2.608  20.925  0.00  0.00    +0.000 A 
ATOM     28  C   UNL     1       3.524   3.346  19.787  0.00  0.00    +0.000 A 
ATOM     29  F   UNL     1       4.793   3.388  19.355  0.00  0.00    +0.000 F 
ENDBRANCH  22  23
ENDBRANCH   1  22
TORSDOF 7
ENDMDL
MODEL 2
REMARK VINA RESULT:      -8.2      4.451      6.172
REMARK  Name = 
REMARK  7 active torsions:
REMARK  status: ('A' for Active; 'I' for Inactive)
REMARK    1  A    between atoms: C_2  and  C_3
REMARK    2  A    between atoms: C_3  and  N_4
REMARK    3  A    between atoms: N_4  and  C_5
REMARK    4  A    between atoms: C_5  and  C_6
REMARK    5  A    between atoms: C_13  and  C_15
REMARK    6  A    between atoms: N_20  and  C_21
REMARK    7  A    between atoms: C_21  and  C_22
REMARK                            x       y       z     vdW  Elec       q    Type
REMARK                         _______ _______ _______ _____ _____    ______ ____
ROOT
ATOM      1  N   UNL     1       6.137   5.484  17.183  0.00  0.00    +0.000 N 
ATOM      2  C   UNL     1       7.096   4.739  16.464  0.00  0.00    +0.000 C 
ATOM      3  O   UNL     1       8.037   4.196  17.038  0.00  0.00    +0.000 OA
ENDROOT
BRANCH   2   4
ATOM      4  C   UNL     1       6.967   4.544  15.037  0.00  0.00    +0.000 A 
ATOM      5  C   UNL     1       7.543   5.279  14.018  0.00  0.00    +0.000 A 
ATOM      6  C   UNL     1       7.074   4.731  12.805  0.00  0.00    +0.000 A 
ATOM      7  C   UNL     1       6.210   3.723  13.156  0.00  0.00    +0.000 A 
ATOM      8  O   UNL     1       6.120   3.617  14.505  0.00  0.00    +0.000 OA
ENDBRANCH   2   4
BRANCH   1   9
ATOM      9  C   UNL     1       6.375   5.891  18.581  0.00  0.00    +0.000 C 
BRANCH   9  11
ATOM     10  O   UNL     1       8.452   5.176  19.627  0.00  0.00    +0.000 OA
ATOM     11  C   UNL     1       7.823   6.079  19.073  0.00  0.00    +0.000 C 
ATOM     12  N   UNL     1       8.415   7.303  18.916  0.00  0.00    +0.000 N 
ATOM     13  H   UNL     1       9.349   7.365  19.285  0.00  0.00    +0.000 HD
BRANCH  12  14
ATOM     14  C   UNL     1       8.011   8.298  17.948  0.00  0.00    +0.000 C 
BRANCH  14  15
ATOM     15  C   UNL     1       8.527   9.655  18.271  0.00  0.00    +0.000 A 
ATOM     16  C   UNL     1       8.213  10.745  17.459  0.00  0.00    +0.000 A 
ATOM     17  C   UNL     1       8.690  12.004  17.796  0.00  0.00    +0.000 A 
ATOM     18  C   UNL     1       9.467  12.168  18.937  0.00  0.00    +0.000 A 
ATOM     19  F   UNL     1       9.928  13.383  19.249  0.00  0.00    +0.000 F 
ATOM     20  C   UNL     1       9.778  11.091  19.763  0.00  0.00    +0.000 A 
ATOM     21  C   UNL     1       9.303   9.829  19.427  0.00  0.00    +0.000 A 
ENDBRANCH  14  15
ENDBRANCH  12  14
ENDBRANCH   9  11
ENDBRANCH   1   9
BRANCH   1  22
ATOM     22  C   UNL     1       4.805   5.759  16.662  0.00  0.00    +0.000 C 
BRANCH  22  23
ATOM     23  C   UNL     1       3.716   4.917  17.268  0.00  0.00    +0.000 A 
ATOM     24  C   UNL     1       3.501   3.563  16.966  0.00  0.00    +0.000 A 
ATOM     25  C   UNL     1       2.532   2.829  17.648  0.00  0.00    +0.000 A 
ATOM     26  C   UNL     1       1.764   3.438  18.638  0.00  0.00    +0.000 A 
ATOM     27  C   UNL     1       1.945   4.789  18.925  0.00  0.00    +0.000 A 
ATOM     28  C   UNL     1       2.909   5.514  18.237  0.00  0.00    +0.000 A 
ATOM     29  F   UNL     1       3.078   6.811  18.532  0.00  0.00    +0.000 F 
ENDBRANCH  22  23
ENDBRANCH   1  22
TORSDOF 7
ENDMDL
MODEL 3
REMARK VINA RESULT:      -7.9      3.175      8.642
REMARK  Name = 
REMARK  7 active torsions:
REMARK  status: ('A' for Active; 'I' for Inactive)
REMARK    1  A    between atoms: C_2  and  C_3
REMARK    2  A    between atoms: C_3  and  N_4
REMARK    3  A    between atoms: N_4  and  C_5
REMARK    4  A    between atoms: C_5  and  C_6
REMARK    5  A    between atoms: C_13  and  C_15
REMARK    6  A    between atoms: N_20  and  C_21
REMARK    7  A    between atoms: C_21  and  C_22
REMARK                            x       y       z     vdW  Elec       q    Type
REMARK                         _______ _______ _______ _____ _____    ______ ____
ROOT
ATOM      1  N   UNL     1       0.421  10.184  19.992  0.00  0.00    +0.000 N 
ATOM      2  C   UNL     1       0.601  10.499  21.355  0.00  0.00    +0.000 C 
ATOM      3  O   UNL     1       1.318   9.809  22.076  0.00  0.00    +0.000 OA
ENDROOT
BRANCH   2   4
ATOM      4  C   UNL     1      -0.006  11.678  21.931  0.00  0.00    +0.000 A 
ATOM      5  C   UNL     1      -1.160  11.764  22.686  0.00  0.00    +0.000 A 
ATOM      6  C   UNL     1      -1.362  13.132  22.968  0.00  0.00    +0.000 A 
ATOM      7  C   UNL     1      -0.344  13.802  22.334  0.00  0.00    +0.000 A 
ATOM      8  O   UNL     1       0.469  12.933  21.685  0.00  0.00    +0.000 OA
ENDBRANCH   2   4
BRANCH   1   9
ATOM      9  C   UNL     1       0.828   8.874  19.448  0.00  0.00    +0.000 C 
BRANCH   9  11
ATOM     10  O   UNL     1       2.104   9.728  17.561  0.00  0.00    +0.000 OA
ATOM     11  C   UNL     1       1.931   8.818  18.373  0.00  0.00    +0.000 C 
ATOM     12  N   UNL     1       2.720   7.702  18.301  0.00  0.00    +0.000 N 
ATOM     13  H   UNL     1       3.398   7.718  17.558  0.00  0.00    +0.000 HD
BRANCH  12  14
ATOM     14  C   UNL     1       2.939   6.773  19.387  0.00  0.00    +0.000 C 
BRANCH  14  15
ATOM     15  C   UNL     1       2.258   5.468  19.172  0.00  0.00    +0.000 A 
ATOM     16  C   UNL     1       2.322   4.831  17.934  0.00  0.00    +0.000 A 
ATOM     17  C   UNL     1       1.697   3.604  17.767  0.00  0.00    +0.000 A 
ATOM     18  C   UNL     1       1.020   3.021  18.832  0.00  0.00    +0.000 A 
ATOM     19  F   UNL     1       0.413   1.842  18.660  0.00  0.00    +0.000 F 
ATOM     20  C   UNL     1       0.958   3.640  20.077  0.00  0.00    +0.000 A 
ATOM     21  C   UNL     1       1.583   4.870  20.246  0.00  0.00    +0.000 A 
ENDBRANCH  14  15
ENDBRANCH  12  14
ENDBRANCH   9  11
ENDBRANCH   1   9
BRANCH   1  22
ATOM     22  C   UNL     1      -0.022  11.166  19.011  0.00  0.00    +0.000 C 
BRANCH  22  23
ATOM     23  C   UNL     1      -1.496  11.123  18.714  0.00  0.00    +0.000 A 
ATOM     24  C   UNL     1      -2.457  11.919  19.356  0.00  0.00    +0.000 A 
ATOM     25  C   UNL     1      -3.791  11.887  18.951  0.00  0.00    +0.000 A 
ATOM     26  C   UNL     1      -4.182  11.059  17.901  0.00  0.00    +0.000 A 
ATOM     27  C   UNL     1      -3.245  10.241  17.276  0.00  0.00    +0.000 A 
ATOM     28  C   UNL     1      -1.919  10.274  17.690  0.00  0.00    +0.000 A 
ATOM     29  F   UNL     1      -1.026   9.488  17.072  0.00  0.00    +0.000 F 
ENDBRANCH  22  23
ENDBRANCH   1  22
TORSDOF 7
ENDMDL
MODEL 4
REMARK VINA RESULT:      -7.8      4.398      6.174
REMARK  Name = 
REMARK  7 active torsions:
REMARK  status: ('A' for Active; 'I' for Inactive)
REMARK    1  A    between atoms: C_2  and  C_3
REMARK    2  A    between atoms: C_3  and  N_4
REMARK    3  A    between atoms: N_4  and  C_5
REMARK    4  A    between atoms: C_5  and  C_6
REMARK    5  A    between atoms: C_13  and  C_15
REMARK    6  A    between atoms: N_20  and  C_21
REMARK    7  A    between atoms: C_21  and  C_22
REMARK                            x       y       z     vdW  Elec       q    Type
REMARK                         _______ _______ _______ _____ _____    ______ ____
ROOT
ATOM      1  N   UNL     1       6.176   5.482  17.414  0.00  0.00    +0.000 N 
ATOM      2  C   UNL     1       7.089   4.711  16.664  0.00  0.00    +0.000 C 
ATOM      3  O   UNL     1       8.031   4.139  17.207  0.00  0.00    +0.000 OA
ENDROOT
BRANCH   2   4
ATOM      4  C   UNL     1       6.909   4.522  15.242  0.00  0.00    +0.000 A 
ATOM      5  C   UNL     1       7.392   5.301  14.208  0.00  0.00    +0.000 A 
ATOM      6  C   UNL     1       6.905   4.736  13.010  0.00  0.00    +0.000 A 
ATOM      7  C   UNL     1       6.121   3.673  13.386  0.00  0.00    +0.000 A 
ATOM      8  O   UNL     1       6.098   3.548  14.736  0.00  0.00    +0.000 OA
ENDBRANCH   2   4
BRANCH   1   9
ATOM      9  C   UNL     1       6.470   5.880  18.804  0.00  0.00    +0.000 C 
BRANCH   9  11
ATOM     10  O   UNL     1       8.582   5.184  19.791  0.00  0.00    +0.000 OA
ATOM     11  C   UNL     1       7.937   6.075  19.235  0.00  0.00    +0.000 C 
ATOM     12  N   UNL     1       8.527   7.291  19.021  0.00  0.00    +0.000 N 
ATOM     13  H   UNL     1       9.474   7.358  19.353  0.00  0.00    +0.000 HD
BRANCH  12  14
ATOM     14  C   UNL     1       8.091   8.260  18.041  0.00  0.00    +0.000 C 
BRANCH  14  15
ATOM     15  C   UNL     1       8.557   9.638  18.351  0.00  0.00    +0.000 A 
ATOM     16  C   UNL     1       9.363   9.880  19.462  0.00  0.00    +0.000 A 
ATOM     17  C   UNL     1       9.801  11.172  19.717  0.00  0.00    +0.000 A 
ATOM     18  C   UNL     1       9.440  12.207  18.862  0.00  0.00    +0.000 A 
ATOM     19  F   UNL     1       9.861  13.449  19.118  0.00  0.00    +0.000 F 
ATOM     20  C   UNL     1       8.646  11.977  17.742  0.00  0.00    +0.000 A 
ATOM     21  C   UNL     1       8.204  10.685  17.486  0.00  0.00    +0.000 A 
ENDBRANCH  14  15
ENDBRANCH  12  14
ENDBRANCH   9  11
ENDBRANCH   1   9
BRANCH   1  22
ATOM     22  C   UNL     1       4.837   5.798  16.935  0.00  0.00    +0.000 C 
BRANCH  22  23
ATOM     23  C   UNL     1       3.729   5.303  17.825  0.00  0.00    +0.000 A 
ATOM     24  C   UNL     1       3.199   6.024  18.906  0.00  0.00    +0.000 A 
ATOM     25  C   UNL     1       2.105   5.534  19.618  0.00  0.00    +0.000 A 
ATOM     26  C   UNL     1       1.528   4.317  19.260  0.00  0.00    +0.000 A 
ATOM     27  C   UNL     1       2.064   3.576  18.210  0.00  0.00    +0.000 A 
ATOM     28  C   UNL     1       3.157   4.069  17.510  0.00  0.00    +0.000 A 
ATOM     29  F   UNL     1       3.656   3.349  16.494  0.00  0.00    +0.000 F 
ENDBRANCH  22  23
ENDBRANCH   1  22
TORSDOF 7
ENDMDL
MODEL 5
REMARK VINA RESULT:      -7.8      4.704      6.977
REMARK  Name = 
REMARK  7 active torsions:
REMARK  status: ('A' for Active; 'I' for Inactive)
REMARK    1  A    between atoms: C_2  and  C_3
REMARK    2  A    between atoms: C_3  and  N_4
REMARK    3  A    between atoms: N_4  and  C_5
REMARK    4  A    between atoms: C_5  and  C_6
REMARK    5  A    between atoms: C_13  and  C_15
REMARK    6  A    between atoms: N_20  and  C_21
REMARK    7  A    between atoms: C_21  and  C_22
REMARK                            x       y       z     vdW  Elec       q    Type
REMARK                         _______ _______ _______ _____ _____    ______ ____
ROOT
ATOM      1  N   UNL     1       5.060   6.216  18.017  0.00  0.00    +0.000 N 
ATOM      2  C   UNL     1       5.583   5.104  18.712  0.00  0.00    +0.000 C 
ATOM      3  O   UNL     1       6.611   5.200  19.377  0.00  0.00    +0.000 OA
ENDROOT
BRANCH   2   4
ATOM      4  C   UNL     1       4.893   3.834  18.708  0.00  0.00    +0.000 A 
ATOM      5  C   UNL     1       4.121   3.283  17.702  0.00  0.00    +0.000 A 
ATOM      6  C   UNL     1       3.623   2.058  18.195  0.00  0.00    +0.000 A 
ATOM      7  C   UNL     1       4.086   1.954  19.484  0.00  0.00    +0.000 A 
ATOM      8  O   UNL     1       4.836   3.035  19.812  0.00  0.00    +0.000 OA
ENDBRANCH   2   4
BRANCH   1   9
ATOM      9  C   UNL     1       5.861   7.438  17.813  0.00  0.00    +0.000 C 
BRANCH   9  11
ATOM     10  O   UNL     1       7.648   6.368  16.557  0.00  0.00    +0.000 OA
ATOM     11  C   UNL     1       7.295   7.313  17.264  0.00  0.00    +0.000 C 
ATOM     12  N   UNL     1       8.213   8.269  17.605  0.00  0.00    +0.000 N 
ATOM     13  H   UNL     1       9.136   8.110  17.238  0.00  0.00    +0.000 HD
BRANCH  12  14
ATOM     14  C   UNL     1       7.888   9.609  18.042  0.00  0.00    +0.000 C 
BRANCH  14  15
ATOM     15  C   UNL     1       9.073  10.349  18.550  0.00  0.00    +0.000 A 
ATOM     16  C   UNL     1       9.974  10.938  17.664  0.00  0.00    +0.000 A 
ATOM     17  C   UNL     1      11.060  11.642  18.166  0.00  0.00    +0.000 A 
ATOM     18  C   UNL     1      11.235  11.758  19.540  0.00  0.00    +0.000 A 
ATOM     19  F   UNL     1      12.288  12.431  20.015  0.00  0.00    +0.000 F 
ATOM     20  C   UNL     1      10.337  11.185  20.436  0.00  0.00    +0.000 A 
ATOM     21  C   UNL     1       9.250  10.479  19.936  0.00  0.00    +0.000 A 
ENDBRANCH  14  15
ENDBRANCH  12  14
ENDBRANCH   9  11
ENDBRANCH   1   9
BRANCH   1  22
ATOM     22  C   UNL     1       3.666   6.296  17.602  0.00  0.00    +0.000 C 
BRANCH  22  23
ATOM     23  C   UNL     1       2.760   6.967  18.598  0.00  0.00    +0.000 A 
ATOM     24  C   UNL     1       2.427   6.431  19.852  0.00  0.00    +0.000 A 
ATOM     25  C   UNL     1       1.660   7.165  20.756  0.00  0.00    +0.000 A 
ATOM     26  C   UNL     1       1.216   8.442  20.419  0.00  0.00    +0.000 A 
ATOM     27  C   UNL     1       1.512   8.972  19.167  0.00  0.00    +0.000 A 
ATOM     28  C   UNL     1       2.271   8.232  18.270  0.00  0.00    +0.000 A 
ATOM     29  F   UNL     1       2.558   8.761  17.071  0.00  0.00    +0.000 F 
ENDBRANCH  22  23
ENDBRANCH   1  22
TORSDOF 7
ENDMDL
MODEL 6
REMARK VINA RESULT:      -7.8      3.284      8.082
REMARK  Name = 
REMARK  7 active torsions:
REMARK  status: ('A' for Active; 'I' for Inactive)
REMARK    1  A    between atoms: C_2  and  C_3
REMARK    2  A    between atoms: C_3  and  N_4
REMARK    3  A    between atoms: N_4  and  C_5
REMARK    4  A    between atoms: C_5  and  C_6
REMARK    5  A    between atoms: C_13  and  C_15
REMARK    6  A    between atoms: N_20  and  C_21
REMARK    7  A    between atoms: C_21  and  C_22
REMARK                            x       y       z     vdW  Elec       q    Type
REMARK                         _______ _______ _______ _____ _____    ______ ____
ROOT
ATOM      1  N   UNL     1       4.762   5.051  18.390  0.00  0.00    +0.000 N 
ATOM      2  C   UNL     1       4.593   3.856  19.120  0.00  0.00    +0.000 C 
ATOM      3  O   UNL     1       5.412   3.511  19.968  0.00  0.00    +0.000 OA
ENDROOT
BRANCH   2   4
ATOM      4  C   UNL     1       3.422   3.030  18.931  0.00  0.00    +0.000 A 
ATOM      5  C   UNL     1       2.964   2.447  17.764  0.00  0.00    +0.000 A 
ATOM      6  C   UNL     1       1.760   1.785  18.084  0.00  0.00    +0.000 A 
ATOM      7  C   UNL     1       1.533   2.037  19.416  0.00  0.00    +0.000 A 
ATOM      8  O   UNL     1       2.522   2.808  19.932  0.00  0.00    +0.000 OA
ENDBRANCH   2   4
BRANCH   1   9
ATOM      9  C   UNL     1       6.047   5.776  18.392  0.00  0.00    +0.000 C 
BRANCH   9  11
ATOM     10  O   UNL     1       8.031   4.368  18.337  0.00  0.00    +0.000 OA
ATOM     11  C   UNL     1       7.276   5.127  17.727  0.00  0.00    +0.000 C 
ATOM     12  N   UNL     1       7.553   5.433  16.422  0.00  0.00    +0.000 N 
ATOM     13  H   UNL     1       8.385   4.999  16.059  0.00  0.00    +0.000 HD
BRANCH  12  14
ATOM     14  C   UNL     1       6.588   5.932  15.467  0.00  0.00    +0.000 C 
BRANCH  14  15
ATOM     15  C   UNL     1       6.387   5.007  14.320  0.00  0.00    +0.000 A 
ATOM     16  C   UNL     1       7.359   4.887  13.328  0.00  0.00    +0.000 A 
ATOM     17  C   UNL     1       7.155   4.001  12.280  0.00  0.00    +0.000 A 
ATOM     18  C   UNL     1       5.993   3.240  12.231  0.00  0.00    +0.000 A 
ATOM     19  F   UNL     1       5.801   2.395  11.214  0.00  0.00    +0.000 F 
ATOM     20  C   UNL     1       5.019   3.342  13.221  0.00  0.00    +0.000 A 
ATOM     21  C   UNL     1       5.220   4.229  14.271  0.00  0.00    +0.000 A 
ENDBRANCH  14  15
ENDBRANCH  12  14
ENDBRANCH   9  11
ENDBRANCH   1   9
BRANCH   1  22
ATOM     22  C   UNL     1       3.655   5.728  17.727  0.00  0.00    +0.000 C 
BRANCH  22  23
ATOM     23  C   UNL     1       2.822   6.589  18.636  0.00  0.00    +0.000 A 
ATOM     24  C   UNL     1       2.401   6.210  19.920  0.00  0.00    +0.000 A 
ATOM     25  C   UNL     1       1.714   7.107  20.736  0.00  0.00    +0.000 A 
ATOM     26  C   UNL     1       1.439   8.395  20.280  0.00  0.00    +0.000 A 
ATOM     27  C   UNL     1       1.823   8.775  18.997  0.00  0.00    +0.000 A 
ATOM     28  C   UNL     1       2.501   7.872  18.188  0.00  0.00    +0.000 A 
ATOM     29  F   UNL     1       2.874   8.255  16.958  0.00  0.00    +0.000 F 
ENDBRANCH  22  23
ENDBRANCH   1  22
TORSDOF 7
ENDMDL
MODEL 7
REMARK VINA RESULT:      -7.8      3.264      5.089
REMARK  Name = 
REMARK  7 active torsions:
REMARK  status: ('A' for Active; 'I' for Inactive)
REMARK    1  A    between atoms: C_2  and  C_3
REMARK    2  A    between atoms: C_3  and  N_4
REMARK    3  A    between atoms: N_4  and  C_5
REMARK    4  A    between atoms: C_5  and  C_6
REMARK    5  A    between atoms: C_13  and  C_15
REMARK    6  A    between atoms: N_20  and  C_21
REMARK    7  A    between atoms: C_21  and  C_22
REMARK                            x       y       z     vdW  Elec       q    Type
REMARK                         _______ _______ _______ _____ _____    ______ ____
ROOT
ATOM      1  N   UNL     1       2.246   6.919  19.409  0.00  0.00    +0.000 N 
ATOM      2  C   UNL     1       1.534   6.292  20.454  0.00  0.00    +0.000 C 
ATOM      3  O   UNL     1       0.767   6.931  21.170  0.00  0.00    +0.000 OA
ENDROOT
BRANCH   2   4
ATOM      4  C   UNL     1       1.643   4.868  20.677  0.00  0.00    +0.000 A 
ATOM      5  C   UNL     1       0.884   3.855  20.123  0.00  0.00    +0.000 A 
ATOM      6  C   UNL     1       1.339   2.646  20.692  0.00  0.00    +0.000 A 
ATOM      7  C   UNL     1       2.319   2.997  21.589  0.00  0.00    +0.000 A 
ATOM      8  O   UNL     1       2.494   4.342  21.604  0.00  0.00    +0.000 OA
ENDBRANCH   2   4
BRANCH   1   9
ATOM      9  C   UNL     1       2.335   8.389  19.316  0.00  0.00    +0.000 C 
BRANCH   9  11
ATOM     10  O   UNL     1       2.567   8.840  16.937  0.00  0.00    +0.000 OA
ATOM     11  C   UNL     1       1.970   9.080  17.988  0.00  0.00    +0.000 C 
ATOM     12  N   UNL     1       0.971  10.015  17.988  0.00  0.00    +0.000 N 
ATOM     13  H   UNL     1       0.805  10.448  17.095  0.00  0.00    +0.000 HD
BRANCH  12  14
ATOM     14  C   UNL     1      -0.077  10.104  18.980  0.00  0.00    +0.000 C 
BRANCH  14  15
ATOM     15  C   UNL     1      -1.402  10.431  18.387  0.00  0.00    +0.000 A 
ATOM     16  C   UNL     1      -2.243  11.358  19.000  0.00  0.00    +0.000 A 
ATOM     17  C   UNL     1      -3.464  11.661  18.414  0.00  0.00    +0.000 A 
ATOM     18  C   UNL     1      -3.833  11.045  17.224  0.00  0.00    +0.000 A 
ATOM     19  F   UNL     1      -5.013  11.337  16.670  0.00  0.00    +0.000 F 
ATOM     20  C   UNL     1      -2.997  10.126  16.595  0.00  0.00    +0.000 A 
ATOM     21  C   UNL     1      -1.775   9.820  17.180  0.00  0.00    +0.000 A 
ENDBRANCH  14  15
ENDBRANCH  12  14
ENDBRANCH   9  11
ENDBRANCH   1   9
BRANCH   1  22
ATOM     22  C   UNL     1       2.797   6.179  18.281  0.00  0.00    +0.000 C 
BRANCH  22  23
ATOM     23  C   UNL     1       4.291   6.011  18.321  0.00  0.00    +0.000 A 
ATOM     24  C   UNL     1       4.997   5.452  19.398  0.00  0.00    +0.000 A 
ATOM     25  C   UNL     1       6.373   5.243  19.313  0.00  0.00    +0.000 A 
ATOM     26  C   UNL     1       7.061   5.590  18.152  0.00  0.00    +0.000 A 
ATOM     27  C   UNL     1       6.378   6.175  17.088  0.00  0.00    +0.000 A 
ATOM     28  C   UNL     1       5.009   6.386  17.185  0.00  0.00    +0.000 A 
ATOM     29  F   UNL     1       4.363   6.941  16.148  0.00  0.00    +0.000 F 
ENDBRANCH  22  23
ENDBRANCH   1  22
TORSDOF 7
ENDMDL
MODEL 8
REMARK VINA RESULT:      -7.7      1.030      1.157
REMARK  Name = 
REMARK  7 active torsions:
REMARK  status: ('A' for Active; 'I' for Inactive)
REMARK    1  A    between atoms: C_2  and  C_3
REMARK    2  A    between atoms: C_3  and  N_4
REMARK    3  A    between atoms: N_4  and  C_5
REMARK    4  A    between atoms: C_5  and  C_6
REMARK    5  A    between atoms: C_13  and  C_15
REMARK    6  A    between atoms: N_20  and  C_21
REMARK    7  A    between atoms: C_21  and  C_22
REMARK                            x       y       z     vdW  Elec       q    Type
REMARK                         _______ _______ _______ _____ _____    ______ ____
ROOT
ATOM      1  N   UNL     1       3.512   6.238  17.872  0.00  0.00    +0.000 N 
ATOM      2  C   UNL     1       4.852   6.195  17.434  0.00  0.00    +0.000 C 
ATOM      3  O   UNL     1       5.728   6.838  18.008  0.00  0.00    +0.000 OA
ENDROOT
BRANCH   2   4
ATOM      4  C   UNL     1       5.246   5.347  16.331  0.00  0.00    +0.000 A 
ATOM      5  C   UNL     1       5.447   3.979  16.332  0.00  0.00    +0.000 A 
ATOM      6  C   UNL     1       5.871   3.628  15.033  0.00  0.00    +0.000 A 
ATOM      7  C   UNL     1       5.943   4.805  14.329  0.00  0.00    +0.000 A 
ATOM      8  O   UNL     1       5.589   5.854  15.112  0.00  0.00    +0.000 OA
ENDBRANCH   2   4
BRANCH   1   9
ATOM      9  C   UNL     1       3.051   7.264  18.828  0.00  0.00    +0.000 C 
BRANCH   9  11
ATOM     10  O   UNL     1       2.202   8.782  17.128  0.00  0.00    +0.000 OA
ATOM     11  C   UNL     1       2.205   8.444  18.312  0.00  0.00    +0.000 C 
ATOM     12  N   UNL     1       1.459   9.157  19.211  0.00  0.00    +0.000 N 
ATOM     13  H   UNL     1       0.955   9.932  18.812  0.00  0.00    +0.000 HD
BRANCH  12  14
ATOM     14  C   UNL     1       1.019   8.664  20.497  0.00  0.00    +0.000 C 
BRANCH  14  15
ATOM     15  C   UNL     1       0.238   9.672  21.261  0.00  0.00    +0.000 A 
ATOM     16  C   UNL     1      -0.133  10.878  20.669  0.00  0.00    +0.000 A 
ATOM     17  C   UNL     1      -0.880  11.793  21.398  0.00  0.00    +0.000 A 
ATOM     18  C   UNL     1      -1.256  11.497  22.703  0.00  0.00    +0.000 A 
ATOM     19  F   UNL     1      -1.969  12.386  23.400  0.00  0.00    +0.000 F 
ATOM     20  C   UNL     1      -0.902  10.291  23.303  0.00  0.00    +0.000 A 
ATOM     21  C   UNL     1      -0.153   9.375  22.576  0.00  0.00    +0.000 A 
ENDBRANCH  14  15
ENDBRANCH  12  14
ENDBRANCH   9  11
ENDBRANCH   1   9
BRANCH   1  22
ATOM     22  C   UNL     1       2.545   5.198  17.546  0.00  0.00    +0.000 C 
BRANCH  22  23
ATOM     23  C   UNL     1       2.205   4.287  18.694  0.00  0.00    +0.000 A 
ATOM     24  C   UNL     1       1.835   4.729  19.973  0.00  0.00    +0.000 A 
ATOM     25  C   UNL     1       1.439   3.818  20.952  0.00  0.00    +0.000 A 
ATOM     26  C   UNL     1       1.410   2.454  20.665  0.00  0.00    +0.000 A 
ATOM     27  C   UNL     1       1.806   2.000  19.410  0.00  0.00    +0.000 A 
ATOM     28  C   UNL     1       2.205   2.914  18.443  0.00  0.00    +0.000 A 
ATOM     29  F   UNL     1       2.573   2.461  17.236  0.00  0.00    +0.000 F 
ENDBRANCH  22  23
ENDBRANCH   1  22
TORSDOF 7
ENDMDL
MODEL 9
REMARK VINA RESULT:      -7.7      3.162      8.227
REMARK  Name = 
REMARK  7 active torsions:
REMARK  status: ('A' for Active; 'I' for Inactive)
REMARK    1  A    between atoms: C_2  and  C_3
REMARK    2  A    between atoms: C_3  and  N_4
REMARK    3  A    between atoms: N_4  and  C_5
REMARK    4  A    between atoms: C_5  and  C_6
REMARK    5  A    between atoms: C_13  and  C_15
REMARK    6  A    between atoms: N_20  and  C_21
REMARK    7  A    between atoms: C_21  and  C_22
REMARK                            x       y       z     vdW  Elec       q    Type
REMARK                         _______ _______ _______ _____ _____    ______ ____
ROOT
ATOM      1  N   UNL     1       4.413   5.115  18.442  0.00  0.00    +0.000 N 
ATOM      2  C   UNL     1       4.269   3.958  19.237  0.00  0.00    +0.000 C 
ATOM      3  O   UNL     1       5.134   3.635  20.047  0.00  0.00    +0.000 OA
ENDROOT
BRANCH   2   4
ATOM      4  C   UNL     1       3.072   3.151  19.165  0.00  0.00    +0.000 A 
ATOM      5  C   UNL     1       2.583   2.441  18.084  0.00  0.00    +0.000 A 
ATOM      6  C   UNL     1       1.365   1.860  18.495  0.00  0.00    +0.000 A 
ATOM      7  C   UNL     1       1.162   2.283  19.786  0.00  0.00    +0.000 A 
ATOM      8  O   UNL     1       2.178   3.083  20.193  0.00  0.00    +0.000 OA
ENDBRANCH   2   4
BRANCH   1   9
ATOM      9  C   UNL     1       5.709   5.810  18.327  0.00  0.00    +0.000 C 
BRANCH   9  11
ATOM     10  O   UNL     1       7.870   4.907  18.985  0.00  0.00    +0.000 OA
ATOM     11  C   UNL     1       6.991   4.979  18.125  0.00  0.00    +0.000 C 
ATOM     12  N   UNL     1       7.169   4.328  16.934  0.00  0.00    +0.000 N 
ATOM     13  H   UNL     1       8.040   3.830  16.857  0.00  0.00    +0.000 HD
BRANCH  12  14
ATOM     14  C   UNL     1       6.105   3.960  16.026  0.00  0.00    +0.000 C 
BRANCH  14  15
ATOM     15  C   UNL     1       6.469   4.174  14.600  0.00  0.00    +0.000 A 
ATOM     16  C   UNL     1       5.807   3.481  13.588  0.00  0.00    +0.000 A 
ATOM     17  C   UNL     1       6.151   3.716  12.264  0.00  0.00    +0.000 A 
ATOM     18  C   UNL     1       7.144   4.640  11.960  0.00  0.00    +0.000 A 
ATOM     19  F   UNL     1       7.475   4.854  10.683  0.00  0.00    +0.000 F 
ATOM     20  C   UNL     1       7.806   5.347  12.960  0.00  0.00    +0.000 A 
ATOM     21  C   UNL     1       7.464   5.113  14.286  0.00  0.00    +0.000 A 
ENDBRANCH  14  15
ENDBRANCH  12  14
ENDBRANCH   9  11
ENDBRANCH   1   9
BRANCH   1  22
ATOM     22  C   UNL     1       3.278   5.784  17.819  0.00  0.00    +0.000 C 
BRANCH  22  23
ATOM     23  C   UNL     1       2.548   6.737  18.726  0.00  0.00    +0.000 A 
ATOM     24  C   UNL     1       2.152   6.436  20.038  0.00  0.00    +0.000 A 
ATOM     25  C   UNL     1       1.567   7.411  20.844  0.00  0.00    +0.000 A 
ATOM     26  C   UNL     1       1.368   8.698  20.350  0.00  0.00    +0.000 A 
ATOM     27  C   UNL     1       1.727   9.002  19.039  0.00  0.00    +0.000 A 
ATOM     28  C   UNL     1       2.304   8.023  18.241  0.00  0.00    +0.000 A 
ATOM     29  F   UNL     1       2.654   8.333  16.984  0.00  0.00    +0.000 F 
ENDBRANCH  22  23
ENDBRANCH   1  22
TORSDOF 7
ENDMDL
