MODEL 1
REMARK VINA RESULT:      -8.7      0.000      0.000
REMARK  Name = 
REMARK  6 active torsions:
REMARK  status: ('A' for Active; 'I' for Inactive)
REMARK    1  A    between atoms: C_1  and  C_2
REMARK    2  A    between atoms: C_3  and  C_4
REMARK    3  A    between atoms: C_4  and  C_5
REMARK    4  A    between atoms: C_5  and  O_7
REMARK    5  A    between atoms: C_16  and  C_17
REMARK    6  A    between atoms: C_21  and  C_22
REMARK                            x       y       z     vdW  Elec       q    Type
REMARK                         _______ _______ _______ _____ _____    ______ ____
ROOT
ATOM      1  C   UNL     1       5.108   7.035  16.305  0.00  0.00    +0.000 C 
ATOM      2  C   UNL     1       4.404   6.315  17.409  0.00  0.00    +0.000 C 
ATOM      3  C   UNL     1       4.676   5.081  17.895  0.00  0.00    +0.000 C 
ATOM      4  C   UNL     1       3.702   4.804  18.971  0.00  0.00    +0.000 A 
ATOM      5  C   UNL     1       3.585   3.699  19.805  0.00  0.00    +0.000 A 
ATOM      6  C   UNL     1       2.528   3.669  20.713  0.00  0.00    +0.000 A 
ATOM      7  F   UNL     1       2.405   2.619  21.538  0.00  0.00    +0.000 F 
ATOM      8  C   UNL     1       1.589   4.699  20.784  0.00  0.00    +0.000 A 
ATOM      9  C   UNL     1       1.717   5.817  19.959  0.00  0.00    +0.000 A 
ATOM     10  C   UNL     1       2.790   5.874  19.079  0.00  0.00    +0.000 A 
ATOM     11  C   UNL     1       3.246   6.887  18.117  0.00  0.00    +0.000 C 
ATOM     12  C   UNL     1       2.763   8.123  17.899  0.00  0.00    +0.000 C 
ENDROOT
BRANCH  12  13
ATOM     13  C   UNL     1       1.669   8.791  18.607  0.00  0.00    +0.000 A 
ATOM     14  C   UNL     1       0.635   9.416  17.900  0.00  0.00    +0.000 A 
ATOM     15  C   UNL     1      -0.377  10.090  18.586  0.00  0.00    +0.000 A 
ATOM     16  C   UNL     1      -0.360  10.145  19.980  0.00  0.00    +0.000 A 
ATOM     17  C   UNL     1       0.662   9.513  20.689  0.00  0.00    +0.000 A 
ATOM     18  C   UNL     1       1.676   8.836  20.007  0.00  0.00    +0.000 A 
BRANCH  17  19
ATOM     19  C   UNL     1       0.681   9.566  22.120  0.00  0.00    +0.000 C 
ATOM     20  N   UNL     1       0.695   9.609  23.280  0.00  0.00    +0.000 NA
ENDBRANCH  17  19
ENDBRANCH  12  13
BRANCH   3  21
ATOM     21  C   UNL     1       5.686   4.088  17.411  0.00  0.00    +0.000 C 
BRANCH  21  22
ATOM     22  C   UNL     1       7.150   4.500  17.479  0.00  0.00    +0.000 C 
ATOM     23  O   UNL     1       7.877   4.530  16.493  0.00  0.00    +0.000 OA
BRANCH  22  24
ATOM     24  O   UNL     1       7.626   4.769  18.715  0.00  0.00    +0.000 OA
ATOM     25  H   UNL     1       8.490   4.359  18.907  0.00  0.00    +0.000 HD
ENDBRANCH  22  24
ENDBRANCH  21  22
ENDBRANCH   3  21
TORSDOF 5
ENDMDL
MODEL 2
REMARK VINA RESULT:      -8.4      1.407      1.943
REMARK  Name = 
REMARK  6 active torsions:
REMARK  status: ('A' for Active; 'I' for Inactive)
REMARK    1  A    between atoms: C_1  and  C_2
REMARK    2  A    between atoms: C_3  and  C_4
REMARK    3  A    between atoms: C_4  and  C_5
REMARK    4  A    between atoms: C_5  and  O_7
REMARK    5  A    between atoms: C_16  and  C_17
REMARK    6  A    between atoms: C_21  and  C_22
REMARK                            x       y       z     vdW  Elec       q    Type
REMARK                         _______ _______ _______ _____ _____    ______ ____
ROOT
ATOM      1  C   UNL     1       4.901   7.025  16.020  0.00  0.00    +0.000 C 
ATOM      2  C   UNL     1       4.295   6.297  17.176  0.00  0.00    +0.000 C 
ATOM      3  C   UNL     1       4.599   5.054  17.618  0.00  0.00    +0.000 C 
ATOM      4  C   UNL     1       3.727   4.770  18.776  0.00  0.00    +0.000 A 
ATOM      5  C   UNL     1       3.678   3.656  19.604  0.00  0.00    +0.000 A 
ATOM      6  C   UNL     1       2.709   3.621  20.606  0.00  0.00    +0.000 A 
ATOM      7  F   UNL     1       2.653   2.562  21.426  0.00  0.00    +0.000 F 
ATOM      8  C   UNL     1       1.790   4.658  20.776  0.00  0.00    +0.000 A 
ATOM      9  C   UNL     1       1.852   5.785  19.957  0.00  0.00    +0.000 A 
ATOM     10  C   UNL     1       2.838   5.845  18.982  0.00  0.00    +0.000 A 
ATOM     11  C   UNL     1       3.212   6.868  17.995  0.00  0.00    +0.000 C 
ATOM     12  C   UNL     1       2.723   8.111  17.839  0.00  0.00    +0.000 C 
ENDROOT
BRANCH  12  13
ATOM     13  C   UNL     1       1.705   8.778  18.653  0.00  0.00    +0.000 A 
ATOM     14  C   UNL     1       1.730   8.682  20.049  0.00  0.00    +0.000 A 
ATOM     15  C   UNL     1       0.726   9.283  20.812  0.00  0.00    +0.000 A 
ATOM     16  C   UNL     1      -0.307   9.979  20.184  0.00  0.00    +0.000 A 
ATOM     17  C   UNL     1      -0.329  10.087  18.793  0.00  0.00    +0.000 A 
ATOM     18  C   UNL     1       0.674   9.489  18.026  0.00  0.00    +0.000 A 
BRANCH  17  19
ATOM     19  C   UNL     1      -1.386  10.803  18.146  0.00  0.00    +0.000 C 
ATOM     20  N   UNL     1      -2.244  11.383  17.620  0.00  0.00    +0.000 NA
ENDBRANCH  17  19
ENDBRANCH  12  13
BRANCH   3  21
ATOM     21  C   UNL     1       5.552   4.059  17.030  0.00  0.00    +0.000 C 
BRANCH  21  22
ATOM     22  C   UNL     1       7.032   4.415  17.063  0.00  0.00    +0.000 C 
ATOM     23  O   UNL     1       7.655   4.754  16.064  0.00  0.00    +0.000 OA
BRANCH  22  24
ATOM     24  O   UNL     1       7.643   4.269  18.259  0.00  0.00    +0.000 OA
ATOM     25  H   UNL     1       8.431   3.695  18.236  0.00  0.00    +0.000 HD
ENDBRANCH  22  24
ENDBRANCH  21  22
ENDBRANCH   3  21
TORSDOF 5
ENDMDL
MODEL 3
REMARK VINA RESULT:      -8.3      4.382      7.315
REMARK  Name = 
REMARK  6 active torsions:
REMARK  status: ('A' for Active; 'I' for Inactive)
REMARK    1  A    between atoms: C_1  and  C_2
REMARK    2  A    between atoms: C_3  and  C_4
REMARK    3  A    between atoms: C_4  and  C_5
REMARK    4  A    between atoms: C_5  and  O_7
REMARK    5  A    between atoms: C_16  and  C_17
REMARK    6  A    between atoms: C_21  and  C_22
REMARK                            x       y       z     vdW  Elec       q    Type
REMARK                         _______ _______ _______ _____ _____    ______ ____
ROOT
ATOM      1  C   UNL     1       4.242   2.220  20.095  0.00  0.00    +0.000 C 
ATOM      2  C   UNL     1       3.909   3.590  19.599  0.00  0.00    +0.000 C 
ATOM      3  C   UNL     1       3.086   4.497  20.175  0.00  0.00    +0.000 C 
ATOM      4  C   UNL     1       3.070   5.694  19.309  0.00  0.00    +0.000 A 
ATOM      5  C   UNL     1       2.419   6.909  19.477  0.00  0.00    +0.000 A 
ATOM      6  C   UNL     1       2.531   7.863  18.466  0.00  0.00    +0.000 A 
ATOM      7  F   UNL     1       1.923   9.048  18.615  0.00  0.00    +0.000 F 
ATOM      8  C   UNL     1       3.257   7.616  17.300  0.00  0.00    +0.000 A 
ATOM      9  C   UNL     1       3.927   6.402  17.139  0.00  0.00    +0.000 A 
ATOM     10  C   UNL     1       3.852   5.463  18.158  0.00  0.00    +0.000 A 
ATOM     11  C   UNL     1       4.447   4.130  18.339  0.00  0.00    +0.000 C 
ATOM     12  C   UNL     1       5.336   3.489  17.561  0.00  0.00    +0.000 C 
ENDROOT
BRANCH  12  13
ATOM     13  C   UNL     1       5.973   3.984  16.339  0.00  0.00    +0.000 A 
ATOM     14  C   UNL     1       6.998   4.935  16.400  0.00  0.00    +0.000 A 
ATOM     15  C   UNL     1       7.564   5.435  15.225  0.00  0.00    +0.000 A 
ATOM     16  C   UNL     1       7.107   4.988  13.985  0.00  0.00    +0.000 A 
ATOM     17  C   UNL     1       6.093   4.032  13.920  0.00  0.00    +0.000 A 
ATOM     18  C   UNL     1       5.526   3.528  15.093  0.00  0.00    +0.000 A 
BRANCH  17  19
ATOM     19  C   UNL     1       5.624   3.570  12.648  0.00  0.00    +0.000 C 
ATOM     20  N   UNL     1       5.242   3.198  11.617  0.00  0.00    +0.000 NA
ENDBRANCH  17  19
ENDBRANCH  12  13
BRANCH   3  21
ATOM     21  C   UNL     1       2.237   4.345  21.399  0.00  0.00    +0.000 C 
BRANCH  21  22
ATOM     22  C   UNL     1       1.285   3.158  21.439  0.00  0.00    +0.000 C 
ATOM     23  O   UNL     1       1.333   2.299  22.312  0.00  0.00    +0.000 OA
BRANCH  22  24
ATOM     24  O   UNL     1       0.418   3.067  20.407  0.00  0.00    +0.000 OA
ATOM     25  H   UNL     1      -0.158   2.281  20.439  0.00  0.00    +0.000 HD
ENDBRANCH  22  24
ENDBRANCH  21  22
ENDBRANCH   3  21
TORSDOF 5
ENDMDL
MODEL 4
REMARK VINA RESULT:      -8.3      1.789      1.922
REMARK  Name = 
REMARK  6 active torsions:
REMARK  status: ('A' for Active; 'I' for Inactive)
REMARK    1  A    between atoms: C_1  and  C_2
REMARK    2  A    between atoms: C_3  and  C_4
REMARK    3  A    between atoms: C_4  and  C_5
REMARK    4  A    between atoms: C_5  and  O_7
REMARK    5  A    between atoms: C_16  and  C_17
REMARK    6  A    between atoms: C_21  and  C_22
REMARK                            x       y       z     vdW  Elec       q    Type
REMARK                         _______ _______ _______ _____ _____    ______ ____
ROOT
ATOM      1  C   UNL     1       6.365   7.519  17.097  0.00  0.00    +0.000 C 
ATOM      2  C   UNL     1       5.280   6.514  17.309  0.00  0.00    +0.000 C 
ATOM      3  C   UNL     1       5.361   5.171  17.159  0.00  0.00    +0.000 C 
ATOM      4  C   UNL     1       4.030   4.610  17.470  0.00  0.00    +0.000 A 
ATOM      5  C   UNL     1       3.604   3.288  17.505  0.00  0.00    +0.000 A 
ATOM      6  C   UNL     1       2.261   3.034  17.780  0.00  0.00    +0.000 A 
ATOM      7  F   UNL     1       1.833   1.766  17.833  0.00  0.00    +0.000 F 
ATOM      8  C   UNL     1       1.348   4.068  17.997  0.00  0.00    +0.000 A 
ATOM      9  C   UNL     1       1.779   5.394  17.980  0.00  0.00    +0.000 A 
ATOM     10  C   UNL     1       3.122   5.653  17.746  0.00  0.00    +0.000 A 
ATOM     11  C   UNL     1       3.912   6.893  17.697  0.00  0.00    +0.000 C 
ATOM     12  C   UNL     1       3.526   8.151  17.973  0.00  0.00    +0.000 C 
ENDROOT
BRANCH  12  13
ATOM     13  C   UNL     1       2.211   8.601  18.436  0.00  0.00    +0.000 A 
ATOM     14  C   UNL     1       1.257   9.074  17.528  0.00  0.00    +0.000 A 
ATOM     15  C   UNL     1       0.024   9.544  17.986  0.00  0.00    +0.000 A 
ATOM     16  C   UNL     1      -0.259   9.545  19.352  0.00  0.00    +0.000 A 
ATOM     17  C   UNL     1       0.685   9.063  20.260  0.00  0.00    +0.000 A 
ATOM     18  C   UNL     1       1.919   8.590  19.805  0.00  0.00    +0.000 A 
BRANCH  17  19
ATOM     19  C   UNL     1       0.397   9.061  21.662  0.00  0.00    +0.000 C 
ATOM     20  N   UNL     1       0.163   9.061  22.800  0.00  0.00    +0.000 NA
ENDBRANCH  17  19
ENDBRANCH  12  13
BRANCH   3  21
ATOM     21  C   UNL     1       6.515   4.351  16.671  0.00  0.00    +0.000 C 
BRANCH  21  22
ATOM     22  C   UNL     1       6.833   4.420  15.184  0.00  0.00    +0.000 C 
ATOM     23  O   UNL     1       7.536   5.298  14.696  0.00  0.00    +0.000 OA
BRANCH  22  24
ATOM     24  O   UNL     1       6.235   3.486  14.413  0.00  0.00    +0.000 OA
ATOM     25  H   UNL     1       5.946   2.693  14.901  0.00  0.00    +0.000 HD
ENDBRANCH  22  24
ENDBRANCH  21  22
ENDBRANCH   3  21
TORSDOF 5
ENDMDL
MODEL 5
REMARK VINA RESULT:      -8.2      3.875      6.675
REMARK  Name = 
REMARK  6 active torsions:
REMARK  status: ('A' for Active; 'I' for Inactive)
REMARK    1  A    between atoms: C_1  and  C_2
REMARK    2  A    between atoms: C_3  and  C_4
REMARK    3  A    between atoms: C_4  and  C_5
REMARK    4  A    between atoms: C_5  and  O_7
REMARK    5  A    between atoms: C_16  and  C_17
REMARK    6  A    between atoms: C_21  and  C_22
REMARK                            x       y       z     vdW  Elec       q    Type
REMARK                         _______ _______ _______ _____ _____    ______ ____
ROOT
ATOM      1  C   UNL     1       2.272   8.782  18.443  0.00  0.00    +0.000 C 
ATOM      2  C   UNL     1       2.437   7.405  18.997  0.00  0.00    +0.000 C 
ATOM      3  C   UNL     1       1.734   6.831  20.002  0.00  0.00    +0.000 C 
ATOM      4  C   UNL     1       2.269   5.467  20.195  0.00  0.00    +0.000 A 
ATOM      5  C   UNL     1       1.864   4.465  21.067  0.00  0.00    +0.000 A 
ATOM      6  C   UNL     1       2.586   3.272  21.081  0.00  0.00    +0.000 A 
ATOM      7  F   UNL     1       2.203   2.287  21.905  0.00  0.00    +0.000 F 
ATOM      8  C   UNL     1       3.702   3.079  20.265  0.00  0.00    +0.000 A 
ATOM      9  C   UNL     1       4.097   4.078  19.376  0.00  0.00    +0.000 A 
ATOM     10  C   UNL     1       3.360   5.253  19.327  0.00  0.00    +0.000 A 
ATOM     11  C   UNL     1       3.462   6.469  18.506  0.00  0.00    +0.000 C 
ATOM     12  C   UNL     1       4.287   6.725  17.476  0.00  0.00    +0.000 C 
ENDROOT
BRANCH  12  13
ATOM     13  C   UNL     1       5.279   5.826  16.881  0.00  0.00    +0.000 A 
ATOM     14  C   UNL     1       6.462   5.516  17.561  0.00  0.00    +0.000 A 
ATOM     15  C   UNL     1       7.421   4.695  16.963  0.00  0.00    +0.000 A 
ATOM     16  C   UNL     1       7.203   4.183  15.684  0.00  0.00    +0.000 A 
ATOM     17  C   UNL     1       6.019   4.481  15.007  0.00  0.00    +0.000 A 
ATOM     18  C   UNL     1       5.056   5.300  15.603  0.00  0.00    +0.000 A 
BRANCH  17  19
ATOM     19  C   UNL     1       5.791   3.955  13.695  0.00  0.00    +0.000 C 
ATOM     20  N   UNL     1       5.608   3.529  12.631  0.00  0.00    +0.000 NA
ENDBRANCH  17  19
ENDBRANCH  12  13
BRANCH   3  21
ATOM     21  C   UNL     1       0.675   7.439  20.868  0.00  0.00    +0.000 C 
BRANCH  21  22
ATOM     22  C   UNL     1       1.003   8.769  21.533  0.00  0.00    +0.000 C 
ATOM     23  O   UNL     1       0.420   9.811  21.256  0.00  0.00    +0.000 OA
BRANCH  22  24
ATOM     24  O   UNL     1       2.033   8.748  22.408  0.00  0.00    +0.000 OA
ATOM     25  H   UNL     1       2.181   9.596  22.868  0.00  0.00    +0.000 HD
ENDBRANCH  22  24
ENDBRANCH  21  22
ENDBRANCH   3  21
TORSDOF 5
ENDMDL
MODEL 6
REMARK VINA RESULT:      -8.1      1.668      2.189
REMARK  Name = 
REMARK  6 active torsions:
REMARK  status: ('A' for Active; 'I' for Inactive)
REMARK    1  A    between atoms: C_1  and  C_2
REMARK    2  A    between atoms: C_3  and  C_4
REMARK    3  A    between atoms: C_4  and  C_5
REMARK    4  A    between atoms: C_5  and  O_7
REMARK    5  A    between atoms: C_16  and  C_17
REMARK    6  A    between atoms: C_21  and  C_22
REMARK                            x       y       z     vdW  Elec       q    Type
REMARK                         _______ _______ _______ _____ _____    ______ ____
ROOT
ATOM      1  C   UNL     1       5.386   7.174  16.281  0.00  0.00    +0.000 C 
ATOM      2  C   UNL     1       4.513   6.203  17.007  0.00  0.00    +0.000 C 
ATOM      3  C   UNL     1       4.596   4.852  16.998  0.00  0.00    +0.000 C 
ATOM      4  C   UNL     1       3.511   4.335  17.857  0.00  0.00    +0.000 A 
ATOM      5  C   UNL     1       3.196   3.028  18.207  0.00  0.00    +0.000 A 
ATOM      6  C   UNL     1       2.070   2.812  19.001  0.00  0.00    +0.000 A 
ATOM      7  F   UNL     1       1.757   1.560  19.363  0.00  0.00    +0.000 F 
ATOM      8  C   UNL     1       1.256   3.864  19.425  0.00  0.00    +0.000 A 
ATOM      9  C   UNL     1       1.584   5.178  19.089  0.00  0.00    +0.000 A 
ATOM     10  C   UNL     1       2.725   5.405  18.332  0.00  0.00    +0.000 A 
ATOM     11  C   UNL     1       3.375   6.628  17.840  0.00  0.00    +0.000 C 
ATOM     12  C   UNL     1       3.061   7.912  18.091  0.00  0.00    +0.000 C 
ENDROOT
BRANCH  12  13
ATOM     13  C   UNL     1       1.997   8.416  18.962  0.00  0.00    +0.000 A 
ATOM     14  C   UNL     1       1.888   7.975  20.285  0.00  0.00    +0.000 A 
ATOM     15  C   UNL     1       0.841   8.427  21.092  0.00  0.00    +0.000 A 
ATOM     16  C   UNL     1      -0.101   9.320  20.580  0.00  0.00    +0.000 A 
ATOM     17  C   UNL     1       0.012   9.771  19.264  0.00  0.00    +0.000 A 
ATOM     18  C   UNL     1       1.059   9.323  18.454  0.00  0.00    +0.000 A 
BRANCH  17  19
ATOM     19  C   UNL     1      -0.952  10.689  18.735  0.00  0.00    +0.000 C 
ATOM     20  N   UNL     1      -1.734  11.433  18.308  0.00  0.00    +0.000 NA
ENDBRANCH  17  19
ENDBRANCH  12  13
BRANCH   3  21
ATOM     21  C   UNL     1       5.520   3.977  16.208  0.00  0.00    +0.000 C 
BRANCH  21  22
ATOM     22  C   UNL     1       6.989   4.375  16.173  0.00  0.00    +0.000 C 
ATOM     23  O   UNL     1       7.686   4.427  17.180  0.00  0.00    +0.000 OA
BRANCH  22  24
ATOM     24  O   UNL     1       7.471   4.735  14.963  0.00  0.00    +0.000 OA
ATOM     25  H   UNL     1       7.397   4.040  14.282  0.00  0.00    +0.000 HD
ENDBRANCH  22  24
ENDBRANCH  21  22
ENDBRANCH   3  21
TORSDOF 5
ENDMDL
MODEL 7
REMARK VINA RESULT:      -7.9      1.290      1.295
REMARK  Name = 
REMARK  6 active torsions:
REMARK  status: ('A' for Active; 'I' for Inactive)
REMARK    1  A    between atoms: C_1  and  C_2
REMARK    2  A    between atoms: C_3  and  C_4
REMARK    3  A    between atoms: C_4  and  C_5
REMARK    4  A    between atoms: C_5  and  O_7
REMARK    5  A    between atoms: C_16  and  C_17
REMARK    6  A    between atoms: C_21  and  C_22
REMARK                            x       y       z     vdW  Elec       q    Type
REMARK                         _______ _______ _______ _____ _____    ______ ____
ROOT
ATOM      1  C   UNL     1       4.965   7.047  16.073  0.00  0.00    +0.000 C 
ATOM      2  C   UNL     1       4.258   6.560  17.295  0.00  0.00    +0.000 C 
ATOM      3  C   UNL     1       4.511   5.433  18.000  0.00  0.00    +0.000 C 
ATOM      4  C   UNL     1       3.544   5.380  19.116  0.00  0.00    +0.000 A 
ATOM      5  C   UNL     1       3.414   4.453  20.142  0.00  0.00    +0.000 A 
ATOM      6  C   UNL     1       2.365   4.614  21.047  0.00  0.00    +0.000 A 
ATOM      7  F   UNL     1       2.230   3.739  22.053  0.00  0.00    +0.000 F 
ATOM      8  C   UNL     1       1.447   5.660  20.930  0.00  0.00    +0.000 A 
ATOM      9  C   UNL     1       1.589   6.601  19.911  0.00  0.00    +0.000 A 
ATOM     10  C   UNL     1       2.653   6.471  19.029  0.00  0.00    +0.000 A 
ATOM     11  C   UNL     1       3.119   7.278  17.892  0.00  0.00    +0.000 C 
ATOM     12  C   UNL     1       2.658   8.462  17.452  0.00  0.00    +0.000 C 
ENDROOT
BRANCH  12  13
ATOM     13  C   UNL     1       1.585   9.273  18.030  0.00  0.00    +0.000 A 
ATOM     14  C   UNL     1       0.265   9.135  17.586  0.00  0.00    +0.000 A 
ATOM     15  C   UNL     1      -0.742   9.947  18.111  0.00  0.00    +0.000 A 
ATOM     16  C   UNL     1      -0.435  10.902  19.081  0.00  0.00    +0.000 A 
ATOM     17  C   UNL     1       0.878  11.034  19.536  0.00  0.00    +0.000 A 
ATOM     18  C   UNL     1       1.888  10.222  19.014  0.00  0.00    +0.000 A 
BRANCH  17  19
ATOM     19  C   UNL     1       1.196  12.012  20.533  0.00  0.00    +0.000 C 
ATOM     20  N   UNL     1       1.453  12.805  21.341  0.00  0.00    +0.000 NA
ENDBRANCH  17  19
ENDBRANCH  12  13
BRANCH   3  21
ATOM     21  C   UNL     1       5.497   4.345  17.703  0.00  0.00    +0.000 C 
BRANCH  21  22
ATOM     22  C   UNL     1       6.970   4.669  17.913  0.00  0.00    +0.000 C 
ATOM     23  O   UNL     1       7.805   4.568  17.022  0.00  0.00    +0.000 OA
BRANCH  22  24
ATOM     24  O   UNL     1       7.319   5.016  19.172  0.00  0.00    +0.000 OA
ATOM     25  H   UNL     1       8.274   4.936  19.356  0.00  0.00    +0.000 HD
ENDBRANCH  22  24
ENDBRANCH  21  22
ENDBRANCH   3  21
TORSDOF 5
ENDMDL
MODEL 8
REMARK VINA RESULT:      -7.5      1.110      1.111
REMARK  Name = 
REMARK  6 active torsions:
REMARK  status: ('A' for Active; 'I' for Inactive)
REMARK    1  A    between atoms: C_1  and  C_2
REMARK    2  A    between atoms: C_3  and  C_4
REMARK    3  A    between atoms: C_4  and  C_5
REMARK    4  A    between atoms: C_5  and  O_7
REMARK    5  A    between atoms: C_16  and  C_17
REMARK    6  A    between atoms: C_21  and  C_22
REMARK                            x       y       z     vdW  Elec       q    Type
REMARK                         _______ _______ _______ _____ _____    ______ ____
ROOT
ATOM      1  C   UNL     1       5.923   7.636  16.925  0.00  0.00    +0.000 C 
ATOM      2  C   UNL     1       4.916   6.639  17.397  0.00  0.00    +0.000 C 
ATOM      3  C   UNL     1       5.051   5.293  17.449  0.00  0.00    +0.000 C 
ATOM      4  C   UNL     1       3.786   4.741  17.976  0.00  0.00    +0.000 A 
ATOM      5  C   UNL     1       3.434   3.427  18.258  0.00  0.00    +0.000 A 
ATOM      6  C   UNL     1       2.138   3.173  18.703  0.00  0.00    +0.000 A 
ATOM      7  F   UNL     1       1.782   1.914  18.995  0.00  0.00    +0.000 F 
ATOM      8  C   UNL     1       1.197   4.194  18.849  0.00  0.00    +0.000 A 
ATOM      9  C   UNL     1       1.556   5.515  18.585  0.00  0.00    +0.000 A 
ATOM     10  C   UNL     1       2.856   5.782  18.178  0.00  0.00    +0.000 A 
ATOM     11  C   UNL     1       3.572   7.026  17.859  0.00  0.00    +0.000 C 
ATOM     12  C   UNL     1       3.151   8.297  17.975  0.00  0.00    +0.000 C 
ENDROOT
BRANCH  12  13
ATOM     13  C   UNL     1       1.864   8.767  18.493  0.00  0.00    +0.000 A 
ATOM     14  C   UNL     1       0.878   9.253  17.627  0.00  0.00    +0.000 A 
ATOM     15  C   UNL     1      -0.326   9.742  18.138  0.00  0.00    +0.000 A 
ATOM     16  C   UNL     1      -0.550   9.750  19.515  0.00  0.00    +0.000 A 
ATOM     17  C   UNL     1       0.426   9.255  20.381  0.00  0.00    +0.000 A 
ATOM     18  C   UNL     1       1.632   8.763  19.875  0.00  0.00    +0.000 A 
BRANCH  17  19
ATOM     19  C   UNL     1       0.199   9.259  21.795  0.00  0.00    +0.000 C 
ATOM     20  N   UNL     1       0.016   9.264  22.941  0.00  0.00    +0.000 NA
ENDBRANCH  17  19
ENDBRANCH  12  13
BRANCH   3  21
ATOM     21  C   UNL     1       6.195   4.448  16.979  0.00  0.00    +0.000 C 
BRANCH  21  22
ATOM     22  C   UNL     1       7.479   4.507  17.794  0.00  0.00    +0.000 C 
ATOM     23  O   UNL     1       8.543   4.055  17.387  0.00  0.00    +0.000 OA
BRANCH  22  24
ATOM     24  O   UNL     1       7.363   5.032  19.033  0.00  0.00    +0.000 OA
ATOM     25  H   UNL     1       6.453   5.029  19.384  0.00  0.00    +0.000 HD
ENDBRANCH  22  24
ENDBRANCH  21  22
ENDBRANCH   3  21
TORSDOF 5
ENDMDL
MODEL 9
REMARK VINA RESULT:      -7.4      2.600      3.787
REMARK  Name = 
REMARK  6 active torsions:
REMARK  status: ('A' for Active; 'I' for Inactive)
REMARK    1  A    between atoms: C_1  and  C_2
REMARK    2  A    between atoms: C_3  and  C_4
REMARK    3  A    between atoms: C_4  and  C_5
REMARK    4  A    between atoms: C_5  and  O_7
REMARK    5  A    between atoms: C_16  and  C_17
REMARK    6  A    between atoms: C_21  and  C_22
REMARK                            x       y       z     vdW  Elec       q    Type
REMARK                         _______ _______ _______ _____ _____    ______ ____
ROOT
ATOM      1  C   UNL     1       2.122   4.175  21.336  0.00  0.00    +0.000 C 
ATOM      2  C   UNL     1       2.819   4.675  20.113  0.00  0.00    +0.000 C 
ATOM      3  C   UNL     1       3.685   3.999  19.323  0.00  0.00    +0.000 C 
ATOM      4  C   UNL     1       4.114   4.916  18.248  0.00  0.00    +0.000 A 
ATOM      5  C   UNL     1       4.957   4.692  17.167  0.00  0.00    +0.000 A 
ATOM      6  C   UNL     1       5.241   5.761  16.319  0.00  0.00    +0.000 A 
ATOM      7  F   UNL     1       6.040   5.563  15.261  0.00  0.00    +0.000 F 
ATOM      8  C   UNL     1       4.718   7.036  16.544  0.00  0.00    +0.000 A 
ATOM      9  C   UNL     1       3.856   7.257  17.618  0.00  0.00    +0.000 A 
ATOM     10  C   UNL     1       3.538   6.188  18.445  0.00  0.00    +0.000 A 
ATOM     11  C   UNL     1       2.657   6.051  19.614  0.00  0.00    +0.000 C 
ATOM     12  C   UNL     1       1.821   6.957  20.153  0.00  0.00    +0.000 C 
ENDROOT
BRANCH  12  13
ATOM     13  C   UNL     1       1.549   8.314  19.675  0.00  0.00    +0.000 A 
ATOM     14  C   UNL     1       1.714   8.645  18.326  0.00  0.00    +0.000 A 
ATOM     15  C   UNL     1       1.496   9.954  17.891  0.00  0.00    +0.000 A 
ATOM     16  C   UNL     1       1.115  10.938  18.804  0.00  0.00    +0.000 A 
ATOM     17  C   UNL     1       0.937  10.610  20.148  0.00  0.00    +0.000 A 
ATOM     18  C   UNL     1       1.152   9.301  20.587  0.00  0.00    +0.000 A 
BRANCH  17  19
ATOM     19  C   UNL     1       0.543  11.617  21.086  0.00  0.00    +0.000 C 
ATOM     20  N   UNL     1       0.225  12.435  21.847  0.00  0.00    +0.000 NA
ENDBRANCH  17  19
ENDBRANCH  12  13
BRANCH   3  21
ATOM     21  C   UNL     1       4.233   2.616  19.505  0.00  0.00    +0.000 C 
BRANCH  21  22
ATOM     22  C   UNL     1       3.746   1.546  18.538  0.00  0.00    +0.000 C 
ATOM     23  O   UNL     1       2.749   1.687  17.839  0.00  0.00    +0.000 OA
BRANCH  22  24
ATOM     24  O   UNL     1       4.445   0.390  18.544  0.00  0.00    +0.000 OA
ATOM     25  H   UNL     1       4.123  -0.267  19.190  0.00  0.00    +0.000 HD
ENDBRANCH  22  24
ENDBRANCH  21  22
ENDBRANCH   3  21
TORSDOF 5
ENDMDL
