MODEL 1
REMARK VINA RESULT:      -8.4      0.000      0.000
REMARK  Name = 
REMARK  9 active torsions:
REMARK  status: ('A' for Active; 'I' for Inactive)
REMARK    1  A    between atoms: C_1  and  C_2
REMARK    2  A    between atoms: C_2  and  C_3
REMARK    3  A    between atoms: N_8  and  C_9
REMARK    4  A    between atoms: C_9  and  C_10
REMARK    5  A    between atoms: C_10  and  C_11
REMARK    6  A    between atoms: C_11  and  N_12
REMARK    7  A    between atoms: C_13  and  C_15
REMARK    8  A    between atoms: C_15  and  C_16
REMARK    9  A    between atoms: C_21  and  C_22
REMARK                            x       y       z     vdW  Elec       q    Type
REMARK                         _______ _______ _______ _____ _____    ______ ____
ROOT
ATOM      1  N   UNL     1       7.021   7.624  17.215  0.00  0.00    +0.000 N 
ATOM      2  C   UNL     1       6.871   6.298  16.866  0.00  0.00    +0.000 C 
ATOM      3  O   UNL     1       7.642   5.418  17.220  0.00  0.00    +0.000 OA
ATOM      4  H   UNL     1       6.273   8.271  17.002  0.00  0.00    +0.000 HD
ENDROOT
BRANCH   1   5
ATOM      5  C   UNL     1       8.089   8.050  18.099  0.00  0.00    +0.000 C 
BRANCH   5   6
ATOM      6  C   UNL     1       8.365   9.546  17.959  0.00  0.00    +0.000 C 
BRANCH   6   7
ATOM      7  C   UNL     1       9.117  10.093  19.185  0.00  0.00    +0.000 C 
BRANCH   7  13
ATOM      8  C   UNL     1      10.601  11.813  20.148  0.00  0.00    +0.000 C 
ATOM      9  C   UNL     1      11.328  13.155  19.885  0.00  0.00    +0.000 C 
ATOM     10  C   UNL     1      12.157  13.135  18.612  0.00  0.00    +0.000 C 
ATOM     11  C   UNL     1      11.295  12.684  17.449  0.00  0.00    +0.000 C 
ATOM     12  C   UNL     1      10.630  11.349  17.753  0.00  0.00    +0.000 C 
ATOM     13  N   UNL     1       9.782  11.401  18.966  0.00  0.00    +0.000 NA
BRANCH   8  15
ATOM     14  C   UNL     1       9.129  13.290  21.692  0.00  0.00    +0.000 C 
ATOM     15  C   UNL     1       9.804  11.941  21.474  0.00  0.00    +0.000 C 
ENDBRANCH   8  15
ENDBRANCH   7  13
ENDBRANCH   6   7
ENDBRANCH   5   6
ENDBRANCH   1   5
BRANCH   2  16
ATOM     16  C   UNL     1       5.648   6.017  16.027  0.00  0.00    +0.000 C 
BRANCH  16  17
ATOM     17  C   UNL     1       4.550   5.448  16.921  0.00  0.00    +0.000 C 
ATOM     18  O   UNL     1       5.128   4.515  17.845  0.00  0.00    +0.000 OA
ATOM     19  C   UNL     1       4.215   4.086  18.776  0.00  0.00    +0.000 A 
ATOM     20  C   UNL     1       4.495   2.897  19.442  0.00  0.00    +0.000 A 
ATOM     21  C   UNL     1       3.630   2.441  20.441  0.00  0.00    +0.000 A 
ATOM     22  C   UNL     1       2.478   3.170  20.774  0.00  0.00    +0.000 A 
ATOM     23  C   UNL     1       1.552   2.691  21.854  0.00  0.00    +0.000 C 
ATOM     24  C   UNL     1       2.210   4.375  20.110  0.00  0.00    +0.000 A 
ATOM     25  C   UNL     1       3.087   4.836  19.130  0.00  0.00    +0.000 A 
ATOM     26  N   UNL     1       2.905   6.107  18.571  0.00  0.00    +0.000 N 
ATOM     27  C   UNL     1       3.776   6.571  17.612  0.00  0.00    +0.000 C 
ATOM     28  O   UNL     1       3.840   7.763  17.324  0.00  0.00    +0.000 OA
ATOM     29  H   UNL     1       2.261   6.767  18.986  0.00  0.00    +0.000 HD
ENDBRANCH  16  17
ENDBRANCH   2  16
TORSDOF 7
ENDMDL
MODEL 2
REMARK VINA RESULT:      -8.3      1.094      1.707
REMARK  Name = 
REMARK  9 active torsions:
REMARK  status: ('A' for Active; 'I' for Inactive)
REMARK    1  A    between atoms: C_1  and  C_2
REMARK    2  A    between atoms: C_2  and  C_3
REMARK    3  A    between atoms: N_8  and  C_9
REMARK    4  A    between atoms: C_9  and  C_10
REMARK    5  A    between atoms: C_10  and  C_11
REMARK    6  A    between atoms: C_11  and  N_12
REMARK    7  A    between atoms: C_13  and  C_15
REMARK    8  A    between atoms: C_15  and  C_16
REMARK    9  A    between atoms: C_21  and  C_22
REMARK                            x       y       z     vdW  Elec       q    Type
REMARK                         _______ _______ _______ _____ _____    ______ ____
ROOT
ATOM      1  N   UNL     1       7.010   7.490  17.892  0.00  0.00    +0.000 N 
ATOM      2  C   UNL     1       6.905   6.727  16.749  0.00  0.00    +0.000 C 
ATOM      3  O   UNL     1       7.860   6.441  16.040  0.00  0.00    +0.000 OA
ATOM      4  H   UNL     1       6.205   7.570  18.499  0.00  0.00    +0.000 HD
ENDROOT
BRANCH   1   5
ATOM      5  C   UNL     1       8.300   7.950  18.370  0.00  0.00    +0.000 C 
BRANCH   5   6
ATOM      6  C   UNL     1       8.494   9.441  18.099  0.00  0.00    +0.000 C 
BRANCH   6   7
ATOM      7  C   UNL     1       9.203  10.136  19.275  0.00  0.00    +0.000 C 
BRANCH   7  13
ATOM      8  C   UNL     1      10.504  12.059  20.107  0.00  0.00    +0.000 C 
ATOM      9  C   UNL     1      11.072  13.458  19.755  0.00  0.00    +0.000 C 
ATOM     10  C   UNL     1      11.872  13.459  18.463  0.00  0.00    +0.000 C 
ATOM     11  C   UNL     1      11.042  12.851  17.349  0.00  0.00    +0.000 C 
ATOM     12  C   UNL     1      10.537  11.470  17.740  0.00  0.00    +0.000 C 
ATOM     13  N   UNL     1       9.713  11.495  18.971  0.00  0.00    +0.000 NA
BRANCH   8  15
ATOM     14  C   UNL     1       9.493  13.595  21.937  0.00  0.00    +0.000 C 
ATOM     15  C   UNL     1       9.726  12.172  21.445  0.00  0.00    +0.000 C 
ENDBRANCH   8  15
ENDBRANCH   7  13
ENDBRANCH   6   7
ENDBRANCH   5   6
ENDBRANCH   1   5
BRANCH   2  16
ATOM     16  C   UNL     1       5.505   6.246  16.455  0.00  0.00    +0.000 C 
BRANCH  16  17
ATOM     17  C   UNL     1       5.042   5.336  17.591  0.00  0.00    +0.000 C 
ATOM     18  O   UNL     1       3.841   5.871  18.164  0.00  0.00    +0.000 OA
ATOM     19  C   UNL     1       3.292   5.016  19.088  0.00  0.00    +0.000 A 
ATOM     20  C   UNL     1       2.404   5.560  20.011  0.00  0.00    +0.000 A 
ATOM     21  C   UNL     1       1.771   4.728  20.938  0.00  0.00    +0.000 A 
ATOM     22  C   UNL     1       2.026   3.348  20.949  0.00  0.00    +0.000 A 
ATOM     23  C   UNL     1       1.341   2.448  21.935  0.00  0.00    +0.000 C 
ATOM     24  C   UNL     1       2.910   2.804  20.006  0.00  0.00    +0.000 A 
ATOM     25  C   UNL     1       3.522   3.636  19.070  0.00  0.00    +0.000 A 
ATOM     26  N   UNL     1       4.286   3.081  18.036  0.00  0.00    +0.000 N 
ATOM     27  C   UNL     1       4.882   3.897  17.103  0.00  0.00    +0.000 C 
ATOM     28  O   UNL     1       5.291   3.457  16.032  0.00  0.00    +0.000 OA
ATOM     29  H   UNL     1       4.258   2.087  17.849  0.00  0.00    +0.000 HD
ENDBRANCH  16  17
ENDBRANCH   2  16
TORSDOF 7
ENDMDL
MODEL 3
REMARK VINA RESULT:      -8.2      4.476      7.397
REMARK  Name = 
REMARK  9 active torsions:
REMARK  status: ('A' for Active; 'I' for Inactive)
REMARK    1  A    between atoms: C_1  and  C_2
REMARK    2  A    between atoms: C_2  and  C_3
REMARK    3  A    between atoms: N_8  and  C_9
REMARK    4  A    between atoms: C_9  and  C_10
REMARK    5  A    between atoms: C_10  and  C_11
REMARK    6  A    between atoms: C_11  and  N_12
REMARK    7  A    between atoms: C_13  and  C_15
REMARK    8  A    between atoms: C_15  and  C_16
REMARK    9  A    between atoms: C_21  and  C_22
REMARK                            x       y       z     vdW  Elec       q    Type
REMARK                         _______ _______ _______ _____ _____    ______ ____
ROOT
ATOM      1  N   UNL     1       3.141   5.803  19.782  0.00  0.00    +0.000 N 
ATOM      2  C   UNL     1       2.579   6.222  18.594  0.00  0.00    +0.000 C 
ATOM      3  O   UNL     1       1.967   5.478  17.841  0.00  0.00    +0.000 OA
ATOM      4  H   UNL     1       3.511   6.499  20.416  0.00  0.00    +0.000 HD
ENDROOT
BRANCH   1   5
ATOM      5  C   UNL     1       2.975   4.441  20.250  0.00  0.00    +0.000 C 
BRANCH   5   6
ATOM      6  C   UNL     1       4.287   3.662  20.172  0.00  0.00    +0.000 C 
BRANCH   6   7
ATOM      7  C   UNL     1       4.740   3.474  18.713  0.00  0.00    +0.000 C 
BRANCH   7  13
ATOM      8  C   UNL     1       5.850   4.903  17.036  0.00  0.00    +0.000 C 
ATOM      9  C   UNL     1       7.132   5.705  16.698  0.00  0.00    +0.000 C 
ATOM     10  C   UNL     1       7.529   6.671  17.802  0.00  0.00    +0.000 C 
ATOM     11  C   UNL     1       7.616   5.929  19.121  0.00  0.00    +0.000 C 
ATOM     12  C   UNL     1       6.321   5.185  19.413  0.00  0.00    +0.000 C 
ATOM     13  N   UNL     1       5.978   4.208  18.354  0.00  0.00    +0.000 NA
BRANCH   8  15
ATOM     14  C   UNL     1       5.626   4.622  14.466  0.00  0.00    +0.000 C 
ATOM     15  C   UNL     1       5.531   3.967  15.839  0.00  0.00    +0.000 C 
ENDBRANCH   8  15
ENDBRANCH   7  13
ENDBRANCH   6   7
ENDBRANCH   5   6
ENDBRANCH   1   5
BRANCH   2  16
ATOM     16  C   UNL     1       2.760   7.693  18.312  0.00  0.00    +0.000 C 
BRANCH  16  17
ATOM     17  C   UNL     1       1.615   8.469  18.958  0.00  0.00    +0.000 C 
ATOM     18  O   UNL     1       1.752   8.411  20.385  0.00  0.00    +0.000 OA
ATOM     19  C   UNL     1       0.839   9.219  21.018  0.00  0.00    +0.000 A 
ATOM     20  C   UNL     1       0.568   8.947  22.355  0.00  0.00    +0.000 A 
ATOM     21  C   UNL     1      -0.309   9.771  23.066  0.00  0.00    +0.000 A 
ATOM     22  C   UNL     1      -0.922  10.868  22.442  0.00  0.00    +0.000 A 
ATOM     23  C   UNL     1      -1.856  11.763  23.203  0.00  0.00    +0.000 C 
ATOM     24  C   UNL     1      -0.631  11.146  21.098  0.00  0.00    +0.000 A 
ATOM     25  C   UNL     1       0.260  10.334  20.400  0.00  0.00    +0.000 A 
ATOM     26  N   UNL     1       0.667  10.691  19.109  0.00  0.00    +0.000 N 
ATOM     27  C   UNL     1       1.556   9.899  18.421  0.00  0.00    +0.000 C 
ATOM     28  O   UNL     1       2.165  10.317  17.440  0.00  0.00    +0.000 OA
ATOM     29  H   UNL     1       0.469  11.612  18.741  0.00  0.00    +0.000 HD
ENDBRANCH  16  17
ENDBRANCH   2  16
TORSDOF 7
ENDMDL
MODEL 4
REMARK VINA RESULT:      -8.2      2.494      3.254
REMARK  Name = 
REMARK  9 active torsions:
REMARK  status: ('A' for Active; 'I' for Inactive)
REMARK    1  A    between atoms: C_1  and  C_2
REMARK    2  A    between atoms: C_2  and  C_3
REMARK    3  A    between atoms: N_8  and  C_9
REMARK    4  A    between atoms: C_9  and  C_10
REMARK    5  A    between atoms: C_10  and  C_11
REMARK    6  A    between atoms: C_11  and  N_12
REMARK    7  A    between atoms: C_13  and  C_15
REMARK    8  A    between atoms: C_15  and  C_16
REMARK    9  A    between atoms: C_21  and  C_22
REMARK                            x       y       z     vdW  Elec       q    Type
REMARK                         _______ _______ _______ _____ _____    ______ ____
ROOT
ATOM      1  N   UNL     1       8.211   9.180  17.922  0.00  0.00    +0.000 N 
ATOM      2  C   UNL     1       8.050   7.822  18.096  0.00  0.00    +0.000 C 
ATOM      3  O   UNL     1       8.551   7.197  19.021  0.00  0.00    +0.000 OA
ATOM      4  H   UNL     1       7.658   9.649  17.218  0.00  0.00    +0.000 HD
ENDROOT
BRANCH   1   5
ATOM      5  C   UNL     1       8.944   9.977  18.887  0.00  0.00    +0.000 C 
BRANCH   5   6
ATOM      6  C   UNL     1       9.543  11.224  18.239  0.00  0.00    +0.000 C 
BRANCH   6   7
ATOM      7  C   UNL     1       9.214  12.489  19.050  0.00  0.00    +0.000 C 
BRANCH   7  13
ATOM      8  C   UNL     1       8.395  14.708  18.348  0.00  0.00    +0.000 C 
ATOM      9  C   UNL     1       8.780  16.052  17.679  0.00  0.00    +0.000 C 
ATOM     10  C   UNL     1      10.008  16.690  18.306  0.00  0.00    +0.000 C 
ATOM     11  C   UNL     1      11.145  15.687  18.334  0.00  0.00    +0.000 C 
ATOM     12  C   UNL     1      10.718  14.401  19.027  0.00  0.00    +0.000 C 
ATOM     13  N   UNL     1       9.553  13.763  18.370  0.00  0.00    +0.000 NA
BRANCH   8  15
ATOM     14  C   UNL     1       5.826  14.859  18.021  0.00  0.00    +0.000 C 
ATOM     15  C   UNL     1       7.125  14.159  17.644  0.00  0.00    +0.000 C 
ENDBRANCH   8  15
ENDBRANCH   7  13
ENDBRANCH   6   7
ENDBRANCH   5   6
ENDBRANCH   1   5
BRANCH   2  16
ATOM     16  C   UNL     1       7.172   7.167  17.057  0.00  0.00    +0.000 C 
BRANCH  16  17
ATOM     17  C   UNL     1       6.289   6.124  17.735  0.00  0.00    +0.000 C 
ATOM     18  O   UNL     1       4.932   6.305  17.308  0.00  0.00    +0.000 OA
ATOM     19  C   UNL     1       4.114   5.300  17.765  0.00  0.00    +0.000 A 
ATOM     20  C   UNL     1       2.747   5.557  17.800  0.00  0.00    +0.000 A 
ATOM     21  C   UNL     1       1.863   4.552  18.202  0.00  0.00    +0.000 A 
ATOM     22  C   UNL     1       2.342   3.287  18.574  0.00  0.00    +0.000 A 
ATOM     23  C   UNL     1       1.397   2.200  18.995  0.00  0.00    +0.000 C 
ATOM     24  C   UNL     1       3.720   3.029  18.520  0.00  0.00    +0.000 A 
ATOM     25  C   UNL     1       4.595   4.028  18.099  0.00  0.00    +0.000 A 
ATOM     26  N   UNL     1       5.949   3.733  17.902  0.00  0.00    +0.000 N 
ATOM     27  C   UNL     1       6.815   4.713  17.473  0.00  0.00    +0.000 C 
ATOM     28  O   UNL     1       7.915   4.439  17.002  0.00  0.00    +0.000 OA
ATOM     29  H   UNL     1       6.272   2.775  17.886  0.00  0.00    +0.000 HD
ENDBRANCH  16  17
ENDBRANCH   2  16
TORSDOF 7
ENDMDL
MODEL 5
REMARK VINA RESULT:      -8.0      4.115      7.601
REMARK  Name = 
REMARK  9 active torsions:
REMARK  status: ('A' for Active; 'I' for Inactive)
REMARK    1  A    between atoms: C_1  and  C_2
REMARK    2  A    between atoms: C_2  and  C_3
REMARK    3  A    between atoms: N_8  and  C_9
REMARK    4  A    between atoms: C_9  and  C_10
REMARK    5  A    between atoms: C_10  and  C_11
REMARK    6  A    between atoms: C_11  and  N_12
REMARK    7  A    between atoms: C_13  and  C_15
REMARK    8  A    between atoms: C_15  and  C_16
REMARK    9  A    between atoms: C_21  and  C_22
REMARK                            x       y       z     vdW  Elec       q    Type
REMARK                         _______ _______ _______ _____ _____    ______ ____
ROOT
ATOM      1  N   UNL     1       2.000   3.932  19.854  0.00  0.00    +0.000 N 
ATOM      2  C   UNL     1       1.443   2.953  19.059  0.00  0.00    +0.000 C 
ATOM      3  O   UNL     1       0.238   2.825  18.893  0.00  0.00    +0.000 OA
ATOM      4  H   UNL     1       3.002   4.061  19.835  0.00  0.00    +0.000 HD
ENDROOT
BRANCH   1   5
ATOM      5  C   UNL     1       1.173   4.932  20.500  0.00  0.00    +0.000 C 
BRANCH   5   6
ATOM      6  C   UNL     1       1.748   6.335  20.315  0.00  0.00    +0.000 C 
BRANCH   6   7
ATOM      7  C   UNL     1       1.119   7.333  21.303  0.00  0.00    +0.000 C 
BRANCH   7  13
ATOM      8  C   UNL     1       0.819   9.760  21.628  0.00  0.00    +0.000 C 
ATOM      9  C   UNL     1       0.392  11.090  20.957  0.00  0.00    +0.000 C 
ATOM     10  C   UNL     1       1.113  11.342  19.643  0.00  0.00    +0.000 C 
ATOM     11  C   UNL     1       0.958  10.136  18.737  0.00  0.00    +0.000 C 
ATOM     12  C   UNL     1       1.419   8.868  19.439  0.00  0.00    +0.000 C 
ATOM     13  N   UNL     1       0.669   8.607  20.689  0.00  0.00    +0.000 NA
BRANCH   8  15
ATOM     14  C   UNL     1      -1.093  10.616  23.158  0.00  0.00    +0.000 C 
ATOM     15  C   UNL     1       0.039   9.615  22.963  0.00  0.00    +0.000 C 
ENDBRANCH   8  15
ENDBRANCH   7  13
ENDBRANCH   6   7
ENDBRANCH   5   6
ENDBRANCH   1   5
BRANCH   2  16
ATOM     16  C   UNL     1       2.453   2.060  18.381  0.00  0.00    +0.000 C 
BRANCH  16  17
ATOM     17  C   UNL     1       3.741   2.848  18.153  0.00  0.00    +0.000 C 
ATOM     18  O   UNL     1       3.411   4.175  17.718  0.00  0.00    +0.000 OA
ATOM     19  C   UNL     1       4.523   4.978  17.645  0.00  0.00    +0.000 A 
ATOM     20  C   UNL     1       4.434   6.118  16.852  0.00  0.00    +0.000 A 
ATOM     21  C   UNL     1       5.514   7.002  16.786  0.00  0.00    +0.000 A 
ATOM     22  C   UNL     1       6.690   6.748  17.507  0.00  0.00    +0.000 A 
ATOM     23  C   UNL     1       7.849   7.700  17.448  0.00  0.00    +0.000 C 
ATOM     24  C   UNL     1       6.768   5.606  18.317  0.00  0.00    +0.000 A 
ATOM     25  C   UNL     1       5.680   4.738  18.396  0.00  0.00    +0.000 A 
ATOM     26  N   UNL     1       5.695   3.680  19.313  0.00  0.00    +0.000 N 
ATOM     27  C   UNL     1       4.618   2.829  19.404  0.00  0.00    +0.000 C 
ATOM     28  O   UNL     1       4.457   2.097  20.377  0.00  0.00    +0.000 OA
ATOM     29  H   UNL     1       6.397   3.636  20.040  0.00  0.00    +0.000 HD
ENDBRANCH  16  17
ENDBRANCH   2  16
TORSDOF 7
ENDMDL
MODEL 6
REMARK VINA RESULT:      -7.9      2.248      3.294
REMARK  Name = 
REMARK  9 active torsions:
REMARK  status: ('A' for Active; 'I' for Inactive)
REMARK    1  A    between atoms: C_1  and  C_2
REMARK    2  A    between atoms: C_2  and  C_3
REMARK    3  A    between atoms: N_8  and  C_9
REMARK    4  A    between atoms: C_9  and  C_10
REMARK    5  A    between atoms: C_10  and  C_11
REMARK    6  A    between atoms: C_11  and  N_12
REMARK    7  A    between atoms: C_13  and  C_15
REMARK    8  A    between atoms: C_15  and  C_16
REMARK    9  A    between atoms: C_21  and  C_22
REMARK                            x       y       z     vdW  Elec       q    Type
REMARK                         _______ _______ _______ _____ _____    ______ ____
ROOT
ATOM      1  N   UNL     1       6.650   7.481  17.545  0.00  0.00    +0.000 N 
ATOM      2  C   UNL     1       6.335   6.341  16.835  0.00  0.00    +0.000 C 
ATOM      3  O   UNL     1       7.174   5.618  16.316  0.00  0.00    +0.000 OA
ATOM      4  H   UNL     1       5.918   7.951  18.059  0.00  0.00    +0.000 HD
ENDROOT
BRANCH   1   5
ATOM      5  C   UNL     1       8.030   7.859  17.780  0.00  0.00    +0.000 C 
BRANCH   5   6
ATOM      6  C   UNL     1       8.196   9.378  17.803  0.00  0.00    +0.000 C 
BRANCH   6   7
ATOM      7  C   UNL     1       9.004   9.834  19.031  0.00  0.00    +0.000 C 
BRANCH   7  13
ATOM      8  C   UNL     1       9.941  11.711  20.328  0.00  0.00    +0.000 C 
ATOM      9  C   UNL     1      10.409  13.188  20.271  0.00  0.00    +0.000 C 
ATOM     10  C   UNL     1      11.407  13.444  19.154  0.00  0.00    +0.000 C 
ATOM     11  C   UNL     1      10.841  12.944  17.839  0.00  0.00    +0.000 C 
ATOM     12  C   UNL     1      10.426  11.484  17.948  0.00  0.00    +0.000 C 
ATOM     13  N   UNL     1       9.412  11.259  19.004  0.00  0.00    +0.000 NA
BRANCH   8  15
ATOM     14  C   UNL     1       9.052  12.637  22.583  0.00  0.00    +0.000 C 
ATOM     15  C   UNL     1       8.944  11.561  21.509  0.00  0.00    +0.000 C 
ENDBRANCH   8  15
ENDBRANCH   7  13
ENDBRANCH   6   7
ENDBRANCH   5   6
ENDBRANCH   1   5
BRANCH   2  16
ATOM     16  C   UNL     1       4.857   6.042  16.775  0.00  0.00    +0.000 C 
BRANCH  16  17
ATOM     17  C   UNL     1       4.160   6.733  17.944  0.00  0.00    +0.000 C 
ATOM     18  O   UNL     1       3.120   7.581  17.439  0.00  0.00    +0.000 OA
ATOM     19  C   UNL     1       2.357   8.111  18.451  0.00  0.00    +0.000 A 
ATOM     20  C   UNL     1       1.615   9.252  18.159  0.00  0.00    +0.000 A 
ATOM     21  C   UNL     1       0.777   9.801  19.133  0.00  0.00    +0.000 A 
ATOM     22  C   UNL     1       0.680   9.216  20.405  0.00  0.00    +0.000 A 
ATOM     23  C   UNL     1      -0.227   9.795  21.450  0.00  0.00    +0.000 C 
ATOM     24  C   UNL     1       1.418   8.057  20.687  0.00  0.00    +0.000 A 
ATOM     25  C   UNL     1       2.236   7.501  19.705  0.00  0.00    +0.000 A 
ATOM     26  N   UNL     1       2.857   6.267  19.930  0.00  0.00    +0.000 N 
ATOM     27  C   UNL     1       3.656   5.708  18.959  0.00  0.00    +0.000 C 
ATOM     28  O   UNL     1       3.963   4.519  18.985  0.00  0.00    +0.000 OA
ATOM     29  H   UNL     1       2.586   5.687  20.713  0.00  0.00    +0.000 HD
ENDBRANCH  16  17
ENDBRANCH   2  16
TORSDOF 7
ENDMDL
MODEL 7
REMARK VINA RESULT:      -7.9      1.979      2.791
REMARK  Name = 
REMARK  9 active torsions:
REMARK  status: ('A' for Active; 'I' for Inactive)
REMARK    1  A    between atoms: C_1  and  C_2
REMARK    2  A    between atoms: C_2  and  C_3
REMARK    3  A    between atoms: N_8  and  C_9
REMARK    4  A    between atoms: C_9  and  C_10
REMARK    5  A    between atoms: C_10  and  C_11
REMARK    6  A    between atoms: C_11  and  N_12
REMARK    7  A    between atoms: C_13  and  C_15
REMARK    8  A    between atoms: C_15  and  C_16
REMARK    9  A    between atoms: C_21  and  C_22
REMARK                            x       y       z     vdW  Elec       q    Type
REMARK                         _______ _______ _______ _____ _____    ______ ____
ROOT
ATOM      1  N   UNL     1       8.131   9.047  17.832  0.00  0.00    +0.000 N 
ATOM      2  C   UNL     1       7.889   7.694  17.956  0.00  0.00    +0.000 C 
ATOM      3  O   UNL     1       8.345   7.010  18.861  0.00  0.00    +0.000 OA
ATOM      4  H   UNL     1       7.612   9.572  17.141  0.00  0.00    +0.000 HD
ENDROOT
BRANCH   1   5
ATOM      5  C   UNL     1       8.900   9.765  18.830  0.00  0.00    +0.000 C 
BRANCH   5   6
ATOM      6  C   UNL     1       9.535  11.024  18.243  0.00  0.00    +0.000 C 
BRANCH   6   7
ATOM      7  C   UNL     1       9.858  12.052  19.342  0.00  0.00    +0.000 C 
BRANCH   7  13
ATOM      8  C   UNL     1       9.533  14.360  20.150  0.00  0.00    +0.000 C 
ATOM      9  C   UNL     1       9.326  15.837  19.730  0.00  0.00    +0.000 C 
ATOM     10  C   UNL     1      10.374  16.318  18.740  0.00  0.00    +0.000 C 
ATOM     11  C   UNL     1      10.440  15.363  17.563  0.00  0.00    +0.000 C 
ATOM     12  C   UNL     1      10.672  13.936  18.036  0.00  0.00    +0.000 C 
ATOM     13  N   UNL     1       9.613  13.463  18.957  0.00  0.00    +0.000 NA
BRANCH   8  15
ATOM     14  C   UNL     1       7.187  14.872  21.132  0.00  0.00    +0.000 C 
ATOM     15  C   UNL     1       8.424  13.983  21.170  0.00  0.00    +0.000 C 
ENDBRANCH   8  15
ENDBRANCH   7  13
ENDBRANCH   6   7
ENDBRANCH   5   6
ENDBRANCH   1   5
BRANCH   2  16
ATOM     16  C   UNL     1       6.985   7.130  16.888  0.00  0.00    +0.000 C 
BRANCH  16  17
ATOM     17  C   UNL     1       6.116   6.033  17.498  0.00  0.00    +0.000 C 
ATOM     18  O   UNL     1       4.735   6.349  17.278  0.00  0.00    +0.000 OA
ATOM     19  C   UNL     1       3.909   5.323  17.669  0.00  0.00    +0.000 A 
ATOM     20  C   UNL     1       2.576   5.638  17.916  0.00  0.00    +0.000 A 
ATOM     21  C   UNL     1       1.677   4.625  18.262  0.00  0.00    +0.000 A 
ATOM     22  C   UNL     1       2.108   3.294  18.366  0.00  0.00    +0.000 A 
ATOM     23  C   UNL     1       1.145   2.200  18.726  0.00  0.00    +0.000 C 
ATOM     24  C   UNL     1       3.449   2.981  18.100  0.00  0.00    +0.000 A 
ATOM     25  C   UNL     1       4.336   3.992  17.736  0.00  0.00    +0.000 A 
ATOM     26  N   UNL     1       5.635   3.667  17.326  0.00  0.00    +0.000 N 
ATOM     27  C   UNL     1       6.510   4.661  16.953  0.00  0.00    +0.000 C 
ATOM     28  O   UNL     1       7.527   4.414  16.310  0.00  0.00    +0.000 OA
ATOM     29  H   UNL     1       5.887   2.710  17.119  0.00  0.00    +0.000 HD
ENDBRANCH  16  17
ENDBRANCH   2  16
TORSDOF 7
ENDMDL
MODEL 8
REMARK VINA RESULT:      -7.9      1.619      2.276
REMARK  Name = 
REMARK  9 active torsions:
REMARK  status: ('A' for Active; 'I' for Inactive)
REMARK    1  A    between atoms: C_1  and  C_2
REMARK    2  A    between atoms: C_2  and  C_3
REMARK    3  A    between atoms: N_8  and  C_9
REMARK    4  A    between atoms: C_9  and  C_10
REMARK    5  A    between atoms: C_10  and  C_11
REMARK    6  A    between atoms: C_11  and  N_12
REMARK    7  A    between atoms: C_13  and  C_15
REMARK    8  A    between atoms: C_15  and  C_16
REMARK    9  A    between atoms: C_21  and  C_22
REMARK                            x       y       z     vdW  Elec       q    Type
REMARK                         _______ _______ _______ _____ _____    ______ ____
ROOT
ATOM      1  N   UNL     1       6.860   7.290  17.705  0.00  0.00    +0.000 N 
ATOM      2  C   UNL     1       6.803   6.477  16.593  0.00  0.00    +0.000 C 
ATOM      3  O   UNL     1       7.768   6.245  15.878  0.00  0.00    +0.000 OA
ATOM      4  H   UNL     1       6.060   7.325  18.322  0.00  0.00    +0.000 HD
ENDROOT
BRANCH   1   5
ATOM      5  C   UNL     1       8.112   7.876  18.141  0.00  0.00    +0.000 C 
BRANCH   5   6
ATOM      6  C   UNL     1       8.246   9.322  17.666  0.00  0.00    +0.000 C 
BRANCH   6   7
ATOM      7  C   UNL     1       8.881  10.211  18.750  0.00  0.00    +0.000 C 
BRANCH   7  13
ATOM      8  C   UNL     1       9.171  12.597  18.193  0.00  0.00    +0.000 C 
ATOM      9  C   UNL     1      10.169  13.674  17.698  0.00  0.00    +0.000 C 
ATOM     10  C   UNL     1      11.462  13.690  18.496  0.00  0.00    +0.000 C 
ATOM     11  C   UNL     1      12.055  12.295  18.533  0.00  0.00    +0.000 C 
ATOM     12  C   UNL     1      11.041  11.287  19.054  0.00  0.00    +0.000 C 
ATOM     13  N   UNL     1       9.809  11.245  18.232  0.00  0.00    +0.000 NA
BRANCH   8  15
ATOM     14  C   UNL     1       7.034  13.923  17.556  0.00  0.00    +0.000 C 
ATOM     15  C   UNL     1       7.889  12.683  17.323  0.00  0.00    +0.000 C 
ENDBRANCH   8  15
ENDBRANCH   7  13
ENDBRANCH   6   7
ENDBRANCH   5   6
ENDBRANCH   1   5
BRANCH   2  16
ATOM     16  C   UNL     1       5.445   5.868  16.343  0.00  0.00    +0.000 C 
BRANCH  16  17
ATOM     17  C   UNL     1       4.868   5.376  17.668  0.00  0.00    +0.000 C 
ATOM     18  O   UNL     1       3.518   4.938  17.461  0.00  0.00    +0.000 OA
ATOM     19  C   UNL     1       2.997   4.342  18.583  0.00  0.00    +0.000 A 
ATOM     20  C   UNL     1       1.611   4.261  18.678  0.00  0.00    +0.000 A 
ATOM     21  C   UNL     1       1.027   3.615  19.770  0.00  0.00    +0.000 A 
ATOM     22  C   UNL     1       1.826   3.050  20.776  0.00  0.00    +0.000 A 
ATOM     23  C   UNL     1       1.204   2.344  21.945  0.00  0.00    +0.000 C 
ATOM     24  C   UNL     1       3.222   3.120  20.667  0.00  0.00    +0.000 A 
ATOM     25  C   UNL     1       3.800   3.747  19.565  0.00  0.00    +0.000 A 
ATOM     26  N   UNL     1       5.186   3.690  19.376  0.00  0.00    +0.000 N 
ATOM     27  C   UNL     1       5.759   4.297  18.282  0.00  0.00    +0.000 C 
ATOM     28  O   UNL     1       6.898   4.021  17.917  0.00  0.00    +0.000 OA
ATOM     29  H   UNL     1       5.756   3.057  19.920  0.00  0.00    +0.000 HD
ENDBRANCH  16  17
ENDBRANCH   2  16
TORSDOF 7
ENDMDL
MODEL 9
REMARK VINA RESULT:      -7.9      2.854      7.315
REMARK  Name = 
REMARK  9 active torsions:
REMARK  status: ('A' for Active; 'I' for Inactive)
REMARK    1  A    between atoms: C_1  and  C_2
REMARK    2  A    between atoms: C_2  and  C_3
REMARK    3  A    between atoms: N_8  and  C_9
REMARK    4  A    between atoms: C_9  and  C_10
REMARK    5  A    between atoms: C_10  and  C_11
REMARK    6  A    between atoms: C_11  and  N_12
REMARK    7  A    between atoms: C_13  and  C_15
REMARK    8  A    between atoms: C_15  and  C_16
REMARK    9  A    between atoms: C_21  and  C_22
REMARK                            x       y       z     vdW  Elec       q    Type
REMARK                         _______ _______ _______ _____ _____    ______ ____
ROOT
ATOM      1  N   UNL     1       3.915   3.381  19.168  0.00  0.00    +0.000 N 
ATOM      2  C   UNL     1       3.740   2.660  18.006  0.00  0.00    +0.000 C 
ATOM      3  O   UNL     1       2.879   1.802  17.871  0.00  0.00    +0.000 OA
ATOM      4  H   UNL     1       4.554   4.165  19.162  0.00  0.00    +0.000 HD
ENDROOT
BRANCH   1   5
ATOM      5  C   UNL     1       3.024   3.209  20.299  0.00  0.00    +0.000 C 
BRANCH   5   6
ATOM      6  C   UNL     1       1.902   4.245  20.288  0.00  0.00    +0.000 C 
BRANCH   6   7
ATOM      7  C   UNL     1       2.441   5.658  20.568  0.00  0.00    +0.000 C 
BRANCH   7  13
ATOM      8  C   UNL     1       1.771   8.011  20.251  0.00  0.00    +0.000 C 
ATOM      9  C   UNL     1       1.363   9.089  19.215  0.00  0.00    +0.000 C 
ATOM     10  C   UNL     1       2.351   9.202  18.066  0.00  0.00    +0.000 C 
ATOM     11  C   UNL     1       2.577   7.835  17.451  0.00  0.00    +0.000 C 
ATOM     12  C   UNL     1       3.003   6.828  18.510  0.00  0.00    +0.000 C 
ATOM     13  N   UNL     1       2.004   6.689  19.594  0.00  0.00    +0.000 NA
BRANCH   8  15
ATOM     14  C   UNL     1       0.025   9.332  21.644  0.00  0.00    +0.000 C 
ATOM     15  C   UNL     1       0.707   7.994  21.382  0.00  0.00    +0.000 C 
ENDBRANCH   8  15
ENDBRANCH   7  13
ENDBRANCH   6   7
ENDBRANCH   5   6
ENDBRANCH   1   5
BRANCH   2  16
ATOM     16  C   UNL     1       4.689   3.039  16.896  0.00  0.00    +0.000 C 
BRANCH  16  17
ATOM     17  C   UNL     1       5.149   4.479  17.104  0.00  0.00    +0.000 C 
ATOM     18  O   UNL     1       6.342   4.483  17.901  0.00  0.00    +0.000 OA
ATOM     19  C   UNL     1       6.890   5.738  17.993  0.00  0.00    +0.000 A 
ATOM     20  C   UNL     1       7.767   5.975  19.048  0.00  0.00    +0.000 A 
ATOM     21  C   UNL     1       8.399   7.217  19.158  0.00  0.00    +0.000 A 
ATOM     22  C   UNL     1       8.154   8.229  18.218  0.00  0.00    +0.000 A 
ATOM     23  C   UNL     1       8.838   9.560  18.326  0.00  0.00    +0.000 C 
ATOM     24  C   UNL     1       7.282   7.978  17.149  0.00  0.00    +0.000 A 
ATOM     25  C   UNL     1       6.670   6.732  17.031  0.00  0.00    +0.000 A 
ATOM     26  N   UNL     1       5.919   6.427  15.890  0.00  0.00    +0.000 N 
ATOM     27  C   UNL     1       5.324   5.193  15.764  0.00  0.00    +0.000 C 
ATOM     28  O   UNL     1       4.926   4.779  14.678  0.00  0.00    +0.000 OA
ATOM     29  H   UNL     1       5.956   7.022  15.073  0.00  0.00    +0.000 HD
ENDBRANCH  16  17
ENDBRANCH   2  16
TORSDOF 7
ENDMDL
