MODEL 1
REMARK VINA RESULT:      -7.8      0.000      0.000
REMARK  Name = 
REMARK  11 active torsions:
REMARK  status: ('A' for Active; 'I' for Inactive)
REMARK    1  A    between atoms: C_1  and  N_2
REMARK    2  A    between atoms: N_2  and  C_3
REMARK    3  A    between atoms: N_2  and  S_4
REMARK    4  A    between atoms: S_4  and  C_7
REMARK    5  A    between atoms: C_10  and  C_11
REMARK    6  A    between atoms: C_11  and  O_13
REMARK    7  A    between atoms: O_13  and  C_14
REMARK    8  A    between atoms: C_14  and  C_15
REMARK    9  A    between atoms: N_17  and  C_18
REMARK   10  A    between atoms: C_23  and  O_24
REMARK   11  A    between atoms: O_24  and  C_25
REMARK                            x       y       z     vdW  Elec       q    Type
REMARK                         _______ _______ _______ _____ _____    ______ ____
ROOT
ATOM      1  O   UNL     1       3.034   2.789  21.080  0.00  0.00    +0.000 OA
ENDROOT
BRANCH   1   2
ATOM      2  C   UNL     1       2.817   2.441  19.786  0.00  0.00    +0.000 C 
ATOM      3  O   UNL     1       1.893   1.744  19.388  0.00  0.00    +0.000 OA
BRANCH   2   7
ATOM      4  C   UNL     1       5.512   4.406  17.100  0.00  0.00    +0.000 A 
ATOM      5  C   UNL     1       4.332   3.832  16.624  0.00  0.00    +0.000 A 
ATOM      6  C   UNL     1       3.478   3.177  17.514  0.00  0.00    +0.000 A 
ATOM      7  C   UNL     1       3.806   3.077  18.875  0.00  0.00    +0.000 A 
ATOM      8  C   UNL     1       5.010   3.631  19.337  0.00  0.00    +0.000 A 
ATOM      9  C   UNL     1       5.868   4.287  18.449  0.00  0.00    +0.000 A 
BRANCH   4  10
ATOM     10  S   UNL     1       6.597   5.260  15.971  0.00  0.00    +0.000 S 
ATOM     11  O   UNL     1       5.893   5.396  14.714  0.00  0.00    +0.000 OA
ATOM     12  O   UNL     1       7.888   4.605  16.037  0.00  0.00    +0.000 OA
BRANCH  10  14
ATOM     13  C   UNL     1       5.504   7.545  16.930  0.00  0.00    +0.000 C 
ATOM     14  N   UNL     1       6.750   6.805  16.672  0.00  0.00    +0.000 NA
ATOM     15  C   UNL     1       7.745   6.945  17.750  0.00  0.00    +0.000 C 
ENDBRANCH  10  14
ENDBRANCH   4  10
ENDBRANCH   2   7
ENDBRANCH   1   2
BRANCH   1  16
ATOM     16  C   UNL     1       1.917   3.449  21.691  0.00  0.00    +0.000 C 
BRANCH  16  17
ATOM     17  C   UNL     1       1.465   4.614  20.806  0.00  0.00    +0.000 C 
ATOM     18  O   UNL     1       0.433   4.561  20.137  0.00  0.00    +0.000 OA
ATOM     19  N   UNL     1       2.340   5.694  20.808  0.00  0.00    +0.000 N 
ATOM     20  H   UNL     1       3.311   5.484  20.994  0.00  0.00    +0.000 HD
BRANCH  19  21
ATOM     21  C   UNL     1       2.036   6.889  20.118  0.00  0.00    +0.000 A 
ATOM     22  C   UNL     1       2.474   6.989  18.783  0.00  0.00    +0.000 A 
ATOM     23  C   UNL     1       2.237   8.133  18.021  0.00  0.00    +0.000 A 
ATOM     24  C   UNL     1       1.572   9.207  18.592  0.00  0.00    +0.000 A 
ATOM     25  C   UNL     1       1.128   9.119  19.911  0.00  0.00    +0.000 A 
ATOM     26  C   UNL     1       1.324   7.959  20.685  0.00  0.00    +0.000 A 
BRANCH  26  27
ATOM     27  O   UNL     1       0.853   8.125  21.955  0.00  0.00    +0.000 OA
BRANCH  27  28
ATOM     28  C   UNL     1       0.486   9.395  22.447  0.00  0.00    +0.000 C 
ATOM     29  F   UNL     1      -0.835   9.621  22.245  0.00  0.00    +0.000 F 
ATOM     30  F   UNL     1       0.698   9.447  23.785  0.00  0.00    +0.000 F 
ENDBRANCH  27  28
ENDBRANCH  26  27
ENDBRANCH  19  21
ENDBRANCH  16  17
ENDBRANCH   1  16
TORSDOF 9
ENDMDL
MODEL 2
REMARK VINA RESULT:      -7.6      1.416      2.028
REMARK  Name = 
REMARK  11 active torsions:
REMARK  status: ('A' for Active; 'I' for Inactive)
REMARK    1  A    between atoms: C_1  and  N_2
REMARK    2  A    between atoms: N_2  and  C_3
REMARK    3  A    between atoms: N_2  and  S_4
REMARK    4  A    between atoms: S_4  and  C_7
REMARK    5  A    between atoms: C_10  and  C_11
REMARK    6  A    between atoms: C_11  and  O_13
REMARK    7  A    between atoms: O_13  and  C_14
REMARK    8  A    between atoms: C_14  and  C_15
REMARK    9  A    between atoms: N_17  and  C_18
REMARK   10  A    between atoms: C_23  and  O_24
REMARK   11  A    between atoms: O_24  and  C_25
REMARK                            x       y       z     vdW  Elec       q    Type
REMARK                         _______ _______ _______ _____ _____    ______ ____
ROOT
ATOM      1  O   UNL     1       2.888   2.486  20.388  0.00  0.00    +0.000 OA
ENDROOT
BRANCH   1   2
ATOM      2  C   UNL     1       4.231   2.479  20.194  0.00  0.00    +0.000 C 
ATOM      3  O   UNL     1       5.027   1.763  20.789  0.00  0.00    +0.000 OA
BRANCH   2   7
ATOM      4  C   UNL     1       5.584   5.068  17.063  0.00  0.00    +0.000 A 
ATOM      5  C   UNL     1       6.181   5.112  18.325  0.00  0.00    +0.000 A 
ATOM      6  C   UNL     1       5.710   4.274  19.338  0.00  0.00    +0.000 A 
ATOM      7  C   UNL     1       4.632   3.405  19.102  0.00  0.00    +0.000 A 
ATOM      8  C   UNL     1       4.021   3.392  17.839  0.00  0.00    +0.000 A 
ATOM      9  C   UNL     1       4.489   4.230  16.822  0.00  0.00    +0.000 A 
BRANCH   4  10
ATOM     10  S   UNL     1       6.195   6.123  15.761  0.00  0.00    +0.000 S 
ATOM     11  O   UNL     1       7.473   6.647  16.191  0.00  0.00    +0.000 OA
ATOM     12  O   UNL     1       5.113   7.011  15.385  0.00  0.00    +0.000 OA
BRANCH  10  14
ATOM     13  C   UNL     1       7.628   5.300  13.615  0.00  0.00    +0.000 C 
ATOM     14  N   UNL     1       6.462   5.038  14.475  0.00  0.00    +0.000 NA
ATOM     15  C   UNL     1       6.262   3.608  14.766  0.00  0.00    +0.000 C 
ENDBRANCH  10  14
ENDBRANCH   4  10
ENDBRANCH   2   7
ENDBRANCH   1   2
BRANCH   1  16
ATOM     16  C   UNL     1       2.435   3.559  21.223  0.00  0.00    +0.000 C 
BRANCH  16  17
ATOM     17  C   UNL     1       1.920   4.705  20.347  0.00  0.00    +0.000 C 
ATOM     18  O   UNL     1       0.935   4.576  19.620  0.00  0.00    +0.000 OA
ATOM     19  N   UNL     1       2.683   5.863  20.429  0.00  0.00    +0.000 N 
ATOM     20  H   UNL     1       3.659   5.741  20.663  0.00  0.00    +0.000 HD
BRANCH  19  21
ATOM     21  C   UNL     1       2.302   7.046  19.757  0.00  0.00    +0.000 A 
ATOM     22  C   UNL     1       2.738   7.198  18.426  0.00  0.00    +0.000 A 
ATOM     23  C   UNL     1       2.427   8.335  17.682  0.00  0.00    +0.000 A 
ATOM     24  C   UNL     1       1.689   9.352  18.267  0.00  0.00    +0.000 A 
ATOM     25  C   UNL     1       1.246   9.212  19.582  0.00  0.00    +0.000 A 
ATOM     26  C   UNL     1       1.517   8.056  20.337  0.00  0.00    +0.000 A 
BRANCH  26  27
ATOM     27  O   UNL     1       1.031   8.168  21.608  0.00  0.00    +0.000 OA
BRANCH  27  28
ATOM     28  C   UNL     1       0.035   9.112  21.936  0.00  0.00    +0.000 C 
ATOM     29  F   UNL     1      -1.012   8.506  22.548  0.00  0.00    +0.000 F 
ATOM     30  F   UNL     1       0.536  10.019  22.811  0.00  0.00    +0.000 F 
ENDBRANCH  27  28
ENDBRANCH  26  27
ENDBRANCH  19  21
ENDBRANCH  16  17
ENDBRANCH   1  16
TORSDOF 9
ENDMDL
MODEL 3
REMARK VINA RESULT:      -7.6      0.630      1.191
REMARK  Name = 
REMARK  11 active torsions:
REMARK  status: ('A' for Active; 'I' for Inactive)
REMARK    1  A    between atoms: C_1  and  N_2
REMARK    2  A    between atoms: N_2  and  C_3
REMARK    3  A    between atoms: N_2  and  S_4
REMARK    4  A    between atoms: S_4  and  C_7
REMARK    5  A    between atoms: C_10  and  C_11
REMARK    6  A    between atoms: C_11  and  O_13
REMARK    7  A    between atoms: O_13  and  C_14
REMARK    8  A    between atoms: C_14  and  C_15
REMARK    9  A    between atoms: N_17  and  C_18
REMARK   10  A    between atoms: C_23  and  O_24
REMARK   11  A    between atoms: O_24  and  C_25
REMARK                            x       y       z     vdW  Elec       q    Type
REMARK                         _______ _______ _______ _____ _____    ______ ____
ROOT
ATOM      1  O   UNL     1       2.906   2.837  21.127  0.00  0.00    +0.000 OA
ENDROOT
BRANCH   1   2
ATOM      2  C   UNL     1       2.656   2.430  19.857  0.00  0.00    +0.000 C 
ATOM      3  O   UNL     1       1.739   1.692  19.519  0.00  0.00    +0.000 OA
BRANCH   2   7
ATOM      4  C   UNL     1       5.517   4.107  17.147  0.00  0.00    +0.000 A 
ATOM      5  C   UNL     1       5.707   4.206  18.528  0.00  0.00    +0.000 A 
ATOM      6  C   UNL     1       4.750   3.671  19.393  0.00  0.00    +0.000 A 
ATOM      7  C   UNL     1       3.595   3.054  18.887  0.00  0.00    +0.000 A 
ATOM      8  C   UNL     1       3.401   2.987  17.499  0.00  0.00    +0.000 A 
ATOM      9  C   UNL     1       4.356   3.522  16.629  0.00  0.00    +0.000 A 
BRANCH   4  10
ATOM     10  S   UNL     1       6.746   4.771  16.038  0.00  0.00    +0.000 S 
ATOM     11  O   UNL     1       6.389   4.356  14.698  0.00  0.00    +0.000 OA
ATOM     12  O   UNL     1       8.045   4.453  16.596  0.00  0.00    +0.000 OA
BRANCH  10  14
ATOM     13  C   UNL     1       5.130   6.945  16.029  0.00  0.00    +0.000 C 
ATOM     14  N   UNL     1       6.512   6.454  16.162  0.00  0.00    +0.000 NA
ATOM     15  C   UNL     1       7.281   7.151  17.207  0.00  0.00    +0.000 C 
ENDBRANCH  10  14
ENDBRANCH   4  10
ENDBRANCH   2   7
ENDBRANCH   1   2
BRANCH   1  16
ATOM     16  C   UNL     1       1.852   3.627  21.694  0.00  0.00    +0.000 C 
BRANCH  16  17
ATOM     17  C   UNL     1       1.476   4.750  20.722  0.00  0.00    +0.000 C 
ATOM     18  O   UNL     1       0.580   4.616  19.889  0.00  0.00    +0.000 OA
ATOM     19  N   UNL     1       2.258   5.891  20.851  0.00  0.00    +0.000 N 
ATOM     20  H   UNL     1       3.196   5.754  21.203  0.00  0.00    +0.000 HD
BRANCH  19  21
ATOM     21  C   UNL     1       1.992   7.055  20.096  0.00  0.00    +0.000 A 
ATOM     22  C   UNL     1       2.627   7.168  18.844  0.00  0.00    +0.000 A 
ATOM     23  C   UNL     1       2.441   8.284  18.029  0.00  0.00    +0.000 A 
ATOM     24  C   UNL     1       1.629   9.319  18.466  0.00  0.00    +0.000 A 
ATOM     25  C   UNL     1       0.990   9.218  19.702  0.00  0.00    +0.000 A 
ATOM     26  C   UNL     1       1.135   8.083  20.522  0.00  0.00    +0.000 A 
BRANCH  26  27
ATOM     27  O   UNL     1       0.461   8.233  21.699  0.00  0.00    +0.000 OA
BRANCH  27  28
ATOM     28  C   UNL     1       0.912   9.117  22.701  0.00  0.00    +0.000 C 
ATOM     29  F   UNL     1       2.234   9.375  22.548  0.00  0.00    +0.000 F 
ATOM     30  F   UNL     1       0.261  10.302  22.593  0.00  0.00    +0.000 F 
ENDBRANCH  27  28
ENDBRANCH  26  27
ENDBRANCH  19  21
ENDBRANCH  16  17
ENDBRANCH   1  16
TORSDOF 9
ENDMDL
MODEL 4
REMARK VINA RESULT:      -7.4      4.402      7.527
REMARK  Name = 
REMARK  11 active torsions:
REMARK  status: ('A' for Active; 'I' for Inactive)
REMARK    1  A    between atoms: C_1  and  N_2
REMARK    2  A    between atoms: N_2  and  C_3
REMARK    3  A    between atoms: N_2  and  S_4
REMARK    4  A    between atoms: S_4  and  C_7
REMARK    5  A    between atoms: C_10  and  C_11
REMARK    6  A    between atoms: C_11  and  O_13
REMARK    7  A    between atoms: O_13  and  C_14
REMARK    8  A    between atoms: C_14  and  C_15
REMARK    9  A    between atoms: N_17  and  C_18
REMARK   10  A    between atoms: C_23  and  O_24
REMARK   11  A    between atoms: O_24  and  C_25
REMARK                            x       y       z     vdW  Elec       q    Type
REMARK                         _______ _______ _______ _____ _____    ______ ____
ROOT
ATOM      1  O   UNL     1       7.037   7.308  16.908  0.00  0.00    +0.000 OA
ENDROOT
BRANCH   1   2
ATOM      2  C   UNL     1       5.901   6.791  16.373  0.00  0.00    +0.000 C 
ATOM      3  O   UNL     1       5.342   7.207  15.367  0.00  0.00    +0.000 OA
BRANCH   2   7
ATOM      4  C   UNL     1       4.458   3.460  18.644  0.00  0.00    +0.000 A 
ATOM      5  C   UNL     1       5.114   4.517  19.278  0.00  0.00    +0.000 A 
ATOM      6  C   UNL     1       5.595   5.584  18.515  0.00  0.00    +0.000 A 
ATOM      7  C   UNL     1       5.442   5.590  17.120  0.00  0.00    +0.000 A 
ATOM      8  C   UNL     1       4.809   4.508  16.491  0.00  0.00    +0.000 A 
ATOM      9  C   UNL     1       4.325   3.437  17.251  0.00  0.00    +0.000 A 
BRANCH   4  10
ATOM     10  S   UNL     1       3.823   2.105  19.616  0.00  0.00    +0.000 S 
ATOM     11  O   UNL     1       4.715   1.925  20.741  0.00  0.00    +0.000 OA
ATOM     12  O   UNL     1       3.545   1.015  18.702  0.00  0.00    +0.000 OA
BRANCH  10  14
ATOM     13  C   UNL     1       1.143   2.415  19.385  0.00  0.00    +0.000 C 
ATOM     14  N   UNL     1       2.338   2.705  20.195  0.00  0.00    +0.000 NA
ATOM     15  C   UNL     1       2.101   2.592  21.645  0.00  0.00    +0.000 C 
ENDBRANCH  10  14
ENDBRANCH   4  10
ENDBRANCH   2   7
ENDBRANCH   1   2
BRANCH   1  16
ATOM     16  C   UNL     1       6.924   8.691  17.265  0.00  0.00    +0.000 C 
BRANCH  16  17
ATOM     17  C   UNL     1       8.145   9.107  18.093  0.00  0.00    +0.000 C 
ATOM     18  O   UNL     1       8.775   8.297  18.773  0.00  0.00    +0.000 OA
ATOM     19  N   UNL     1       8.434  10.464  18.027  0.00  0.00    +0.000 N 
ATOM     20  H   UNL     1       7.654  11.080  17.844  0.00  0.00    +0.000 HD
BRANCH  19  21
ATOM     21  C   UNL     1       9.577  11.004  18.658  0.00  0.00    +0.000 A 
ATOM     22  C   UNL     1      10.694  11.274  17.842  0.00  0.00    +0.000 A 
ATOM     23  C   UNL     1      11.874  11.794  18.371  0.00  0.00    +0.000 A 
ATOM     24  C   UNL     1      11.963  12.036  19.733  0.00  0.00    +0.000 A 
ATOM     25  C   UNL     1      10.863  11.779  20.551  0.00  0.00    +0.000 A 
ATOM     26  C   UNL     1       9.650  11.290  20.031  0.00  0.00    +0.000 A 
BRANCH  26  27
ATOM     27  O   UNL     1       8.740  11.067  21.023  0.00  0.00    +0.000 OA
BRANCH  27  28
ATOM     28  C   UNL     1       8.658  11.908  22.153  0.00  0.00    +0.000 C 
ATOM     29  F   UNL     1       7.650  12.802  22.009  0.00  0.00    +0.000 F 
ATOM     30  F   UNL     1       8.380  11.169  23.255  0.00  0.00    +0.000 F 
ENDBRANCH  27  28
ENDBRANCH  26  27
ENDBRANCH  19  21
ENDBRANCH  16  17
ENDBRANCH   1  16
TORSDOF 9
ENDMDL
MODEL 5
REMARK VINA RESULT:      -7.4      5.084      7.132
REMARK  Name = 
REMARK  11 active torsions:
REMARK  status: ('A' for Active; 'I' for Inactive)
REMARK    1  A    between atoms: C_1  and  N_2
REMARK    2  A    between atoms: N_2  and  C_3
REMARK    3  A    between atoms: N_2  and  S_4
REMARK    4  A    between atoms: S_4  and  C_7
REMARK    5  A    between atoms: C_10  and  C_11
REMARK    6  A    between atoms: C_11  and  O_13
REMARK    7  A    between atoms: O_13  and  C_14
REMARK    8  A    between atoms: C_14  and  C_15
REMARK    9  A    between atoms: N_17  and  C_18
REMARK   10  A    between atoms: C_23  and  O_24
REMARK   11  A    between atoms: O_24  and  C_25
REMARK                            x       y       z     vdW  Elec       q    Type
REMARK                         _______ _______ _______ _____ _____    ______ ____
ROOT
ATOM      1  O   UNL     1       8.011   7.268  18.926  0.00  0.00    +0.000 OA
ENDROOT
BRANCH   1   2
ATOM      2  C   UNL     1       7.934   8.152  17.900  0.00  0.00    +0.000 C 
ATOM      3  O   UNL     1       7.404   7.934  16.818  0.00  0.00    +0.000 OA
BRANCH   2   7
ATOM      4  C   UNL     1       9.402  12.030  18.971  0.00  0.00    +0.000 A 
ATOM      5  C   UNL     1       8.622  11.860  17.824  0.00  0.00    +0.000 A 
ATOM      6  C   UNL     1       8.172  10.583  17.482  0.00  0.00    +0.000 A 
ATOM      7  C   UNL     1       8.513   9.471  18.269  0.00  0.00    +0.000 A 
ATOM      8  C   UNL     1       9.322   9.650  19.401  0.00  0.00    +0.000 A 
ATOM      9  C   UNL     1       9.776  10.927  19.747  0.00  0.00    +0.000 A 
BRANCH   4  10
ATOM     10  S   UNL     1       9.963  13.662  19.423  0.00  0.00    +0.000 S 
ATOM     11  O   UNL     1      10.171  14.403  18.198  0.00  0.00    +0.000 OA
ATOM     12  O   UNL     1      11.034  13.496  20.385  0.00  0.00    +0.000 OA
BRANCH  10  14
ATOM     13  C   UNL     1       7.514  14.818  19.394  0.00  0.00    +0.000 C 
ATOM     14  N   UNL     1       8.619  14.324  20.233  0.00  0.00    +0.000 NA
ATOM     15  C   UNL     1       8.163  13.617  21.442  0.00  0.00    +0.000 C 
ENDBRANCH  10  14
ENDBRANCH   4  10
ENDBRANCH   2   7
ENDBRANCH   1   2
BRANCH   1  16
ATOM     16  C   UNL     1       7.961   5.898  18.507  0.00  0.00    +0.000 C 
BRANCH  16  17
ATOM     17  C   UNL     1       6.553   5.342  18.743  0.00  0.00    +0.000 C 
ATOM     18  O   UNL     1       6.203   4.901  19.837  0.00  0.00    +0.000 OA
ATOM     19  N   UNL     1       5.747   5.354  17.611  0.00  0.00    +0.000 N 
ATOM     20  H   UNL     1       6.223   5.296  16.721  0.00  0.00    +0.000 HD
BRANCH  19  21
ATOM     21  C   UNL     1       4.391   4.961  17.669  0.00  0.00    +0.000 A 
ATOM     22  C   UNL     1       4.099   3.614  17.375  0.00  0.00    +0.000 A 
ATOM     23  C   UNL     1       2.791   3.131  17.390  0.00  0.00    +0.000 A 
ATOM     24  C   UNL     1       1.748   3.996  17.682  0.00  0.00    +0.000 A 
ATOM     25  C   UNL     1       2.024   5.330  17.981  0.00  0.00    +0.000 A 
ATOM     26  C   UNL     1       3.340   5.828  18.008  0.00  0.00    +0.000 A 
BRANCH  26  27
ATOM     27  O   UNL     1       3.358   7.167  18.272  0.00  0.00    +0.000 OA
BRANCH  27  28
ATOM     28  C   UNL     1       2.184   7.948  18.212  0.00  0.00    +0.000 C 
ATOM     29  F   UNL     1       1.912   8.493  19.422  0.00  0.00    +0.000 F 
ATOM     30  F   UNL     1       2.362   8.975  17.344  0.00  0.00    +0.000 F 
ENDBRANCH  27  28
ENDBRANCH  26  27
ENDBRANCH  19  21
ENDBRANCH  16  17
ENDBRANCH   1  16
TORSDOF 9
ENDMDL
MODEL 6
REMARK VINA RESULT:      -7.4      5.467      8.215
REMARK  Name = 
REMARK  11 active torsions:
REMARK  status: ('A' for Active; 'I' for Inactive)
REMARK    1  A    between atoms: C_1  and  N_2
REMARK    2  A    between atoms: N_2  and  C_3
REMARK    3  A    between atoms: N_2  and  S_4
REMARK    4  A    between atoms: S_4  and  C_7
REMARK    5  A    between atoms: C_10  and  C_11
REMARK    6  A    between atoms: C_11  and  O_13
REMARK    7  A    between atoms: O_13  and  C_14
REMARK    8  A    between atoms: C_14  and  C_15
REMARK    9  A    between atoms: N_17  and  C_18
REMARK   10  A    between atoms: C_23  and  O_24
REMARK   11  A    between atoms: O_24  and  C_25
REMARK                            x       y       z     vdW  Elec       q    Type
REMARK                         _______ _______ _______ _____ _____    ______ ____
ROOT
ATOM      1  O   UNL     1       7.160   7.996  17.219  0.00  0.00    +0.000 OA
ENDROOT
BRANCH   1   2
ATOM      2  C   UNL     1       6.888   6.723  16.833  0.00  0.00    +0.000 C 
ATOM      3  O   UNL     1       7.454   6.123  15.929  0.00  0.00    +0.000 OA
BRANCH   2   7
ATOM      4  C   UNL     1       3.825   4.829  19.151  0.00  0.00    +0.000 A 
ATOM      5  C   UNL     1       3.490   5.665  18.083  0.00  0.00    +0.000 A 
ATOM      6  C   UNL     1       4.504   6.289  17.354  0.00  0.00    +0.000 A 
ATOM      7  C   UNL     1       5.852   6.099  17.698  0.00  0.00    +0.000 A 
ATOM      8  C   UNL     1       6.176   5.282  18.792  0.00  0.00    +0.000 A 
ATOM      9  C   UNL     1       5.163   4.654  19.526  0.00  0.00    +0.000 A 
BRANCH   4  10
ATOM     10  S   UNL     1       2.535   4.013  20.073  0.00  0.00    +0.000 S 
ATOM     11  O   UNL     1       1.378   4.884  20.062  0.00  0.00    +0.000 OA
ATOM     12  O   UNL     1       3.117   3.563  21.321  0.00  0.00    +0.000 OA
BRANCH  10  14
ATOM     13  C   UNL     1       0.857   2.590  18.494  0.00  0.00    +0.000 C 
ATOM     14  N   UNL     1       2.186   2.642  19.125  0.00  0.00    +0.000 NA
ATOM     15  C   UNL     1       3.266   2.153  18.250  0.00  0.00    +0.000 C 
ENDBRANCH  10  14
ENDBRANCH   4  10
ENDBRANCH   2   7
ENDBRANCH   1   2
BRANCH   1  16
ATOM     16  C   UNL     1       8.320   8.105  18.055  0.00  0.00    +0.000 C 
BRANCH  16  17
ATOM     17  C   UNL     1       8.534   9.571  18.442  0.00  0.00    +0.000 C 
ATOM     18  O   UNL     1       8.016  10.493  17.812  0.00  0.00    +0.000 OA
ATOM     19  N   UNL     1       9.383   9.748  19.528  0.00  0.00    +0.000 N 
ATOM     20  H   UNL     1      10.079   9.029  19.674  0.00  0.00    +0.000 HD
BRANCH  19  21
ATOM     21  C   UNL     1       9.622  11.028  20.075  0.00  0.00    +0.000 A 
ATOM     22  C   UNL     1       9.042  11.311  21.328  0.00  0.00    +0.000 A 
ATOM     23  C   UNL     1       9.206  12.550  21.945  0.00  0.00    +0.000 A 
ATOM     24  C   UNL     1       9.940  13.538  21.307  0.00  0.00    +0.000 A 
ATOM     25  C   UNL     1      10.524  13.270  20.069  0.00  0.00    +0.000 A 
ATOM     26  C   UNL     1      10.401  12.013  19.447  0.00  0.00    +0.000 A 
BRANCH  26  27
ATOM     27  O   UNL     1      11.010  12.005  18.225  0.00  0.00    +0.000 OA
BRANCH  27  28
ATOM     28  C   UNL     1      10.875  13.082  17.324  0.00  0.00    +0.000 C 
ATOM     29  F   UNL     1      11.711  12.928  16.269  0.00  0.00    +0.000 F 
ATOM     30  F   UNL     1       9.612  13.109  16.830  0.00  0.00    +0.000 F 
ENDBRANCH  27  28
ENDBRANCH  26  27
ENDBRANCH  19  21
ENDBRANCH  16  17
ENDBRANCH   1  16
TORSDOF 9
ENDMDL
MODEL 7
REMARK VINA RESULT:      -7.4      4.789      7.550
REMARK  Name = 
REMARK  11 active torsions:
REMARK  status: ('A' for Active; 'I' for Inactive)
REMARK    1  A    between atoms: C_1  and  N_2
REMARK    2  A    between atoms: N_2  and  C_3
REMARK    3  A    between atoms: N_2  and  S_4
REMARK    4  A    between atoms: S_4  and  C_7
REMARK    5  A    between atoms: C_10  and  C_11
REMARK    6  A    between atoms: C_11  and  O_13
REMARK    7  A    between atoms: O_13  and  C_14
REMARK    8  A    between atoms: C_14  and  C_15
REMARK    9  A    between atoms: N_17  and  C_18
REMARK   10  A    between atoms: C_23  and  O_24
REMARK   11  A    between atoms: O_24  and  C_25
REMARK                            x       y       z     vdW  Elec       q    Type
REMARK                         _______ _______ _______ _____ _____    ______ ____
ROOT
ATOM      1  O   UNL     1       7.372   8.272  17.274  0.00  0.00    +0.000 OA
ENDROOT
BRANCH   1   2
ATOM      2  C   UNL     1       7.096   6.996  16.902  0.00  0.00    +0.000 C 
ATOM      3  O   UNL     1       7.769   6.325  16.130  0.00  0.00    +0.000 OA
BRANCH   2   7
ATOM      4  C   UNL     1       3.575   5.401  18.746  0.00  0.00    +0.000 A 
ATOM      5  C   UNL     1       3.472   6.360  17.735  0.00  0.00    +0.000 A 
ATOM      6  C   UNL     1       4.634   6.882  17.162  0.00  0.00    +0.000 A 
ATOM      7  C   UNL     1       5.899   6.466  17.607  0.00  0.00    +0.000 A 
ATOM      8  C   UNL     1       5.990   5.525  18.644  0.00  0.00    +0.000 A 
ATOM      9  C   UNL     1       4.829   5.000  19.221  0.00  0.00    +0.000 A 
BRANCH   4  10
ATOM     10  S   UNL     1       2.094   4.717  19.467  0.00  0.00    +0.000 S 
ATOM     11  O   UNL     1       1.242   4.286  18.379  0.00  0.00    +0.000 OA
ATOM     12  O   UNL     1       1.621   5.665  20.456  0.00  0.00    +0.000 OA
BRANCH  10  14
ATOM     13  C   UNL     1       2.311   3.214  21.709  0.00  0.00    +0.000 C 
ATOM     14  N   UNL     1       2.663   3.335  20.285  0.00  0.00    +0.000 NA
ATOM     15  C   UNL     1       2.587   2.058  19.555  0.00  0.00    +0.000 C 
ENDBRANCH  10  14
ENDBRANCH   4  10
ENDBRANCH   2   7
ENDBRANCH   1   2
BRANCH   1  16
ATOM     16  C   UNL     1       8.393   8.368  18.275  0.00  0.00    +0.000 C 
BRANCH  16  17
ATOM     17  C   UNL     1       8.660   9.843  18.593  0.00  0.00    +0.000 C 
ATOM     18  O   UNL     1       8.131  10.752  17.953  0.00  0.00    +0.000 OA
ATOM     19  N   UNL     1       9.567  10.040  19.627  0.00  0.00    +0.000 N 
ATOM     20  H   UNL     1      10.253   9.311  19.767  0.00  0.00    +0.000 HD
BRANCH  19  21
ATOM     21  C   UNL     1       9.862  11.334  20.110  0.00  0.00    +0.000 A 
ATOM     22  C   UNL     1      10.855  12.065  19.427  0.00  0.00    +0.000 A 
ATOM     23  C   UNL     1      11.228  13.345  19.834  0.00  0.00    +0.000 A 
ATOM     24  C   UNL     1      10.626  13.909  20.948  0.00  0.00    +0.000 A 
ATOM     25  C   UNL     1       9.639  13.199  21.631  0.00  0.00    +0.000 A 
ATOM     26  C   UNL     1       9.221  11.921  21.213  0.00  0.00    +0.000 A 
BRANCH  26  27
ATOM     27  O   UNL     1       8.285  11.404  22.062  0.00  0.00    +0.000 OA
BRANCH  27  28
ATOM     28  C   UNL     1       7.668  12.196  23.052  0.00  0.00    +0.000 C 
ATOM     29  F   UNL     1       6.386  12.474  22.708  0.00  0.00    +0.000 F 
ATOM     30  F   UNL     1       7.626  11.515  24.224  0.00  0.00    +0.000 F 
ENDBRANCH  27  28
ENDBRANCH  26  27
ENDBRANCH  19  21
ENDBRANCH  16  17
ENDBRANCH   1  16
TORSDOF 9
ENDMDL
MODEL 8
REMARK VINA RESULT:      -7.4      3.033      4.346
REMARK  Name = 
REMARK  11 active torsions:
REMARK  status: ('A' for Active; 'I' for Inactive)
REMARK    1  A    between atoms: C_1  and  N_2
REMARK    2  A    between atoms: N_2  and  C_3
REMARK    3  A    between atoms: N_2  and  S_4
REMARK    4  A    between atoms: S_4  and  C_7
REMARK    5  A    between atoms: C_10  and  C_11
REMARK    6  A    between atoms: C_11  and  O_13
REMARK    7  A    between atoms: O_13  and  C_14
REMARK    8  A    between atoms: C_14  and  C_15
REMARK    9  A    between atoms: N_17  and  C_18
REMARK   10  A    between atoms: C_23  and  O_24
REMARK   11  A    between atoms: O_24  and  C_25
REMARK                            x       y       z     vdW  Elec       q    Type
REMARK                         _______ _______ _______ _____ _____    ______ ____
ROOT
ATOM      1  O   UNL     1       1.619   7.528  19.962  0.00  0.00    +0.000 OA
ENDROOT
BRANCH   1   2
ATOM      2  C   UNL     1       2.045   6.246  20.099  0.00  0.00    +0.000 C 
ATOM      3  O   UNL     1       1.489   5.386  20.770  0.00  0.00    +0.000 OA
BRANCH   2   7
ATOM      4  C   UNL     1       5.558   5.676  17.719  0.00  0.00    +0.000 A 
ATOM      5  C   UNL     1       4.573   6.582  17.320  0.00  0.00    +0.000 A 
ATOM      6  C   UNL     1       3.425   6.737  18.101  0.00  0.00    +0.000 A 
ATOM      7  C   UNL     1       3.247   5.976  19.267  0.00  0.00    +0.000 A 
ATOM      8  C   UNL     1       4.230   5.046  19.641  0.00  0.00    +0.000 A 
ATOM      9  C   UNL     1       5.381   4.888  18.862  0.00  0.00    +0.000 A 
BRANCH   4  10
ATOM     10  S   UNL     1       7.035   5.489  16.736  0.00  0.00    +0.000 S 
ATOM     11  O   UNL     1       7.848   4.470  17.365  0.00  0.00    +0.000 OA
ATOM     12  O   UNL     1       7.560   6.818  16.493  0.00  0.00    +0.000 OA
BRANCH  10  14
ATOM     13  C   UNL     1       7.314   5.026  14.082  0.00  0.00    +0.000 C 
ATOM     14  N   UNL     1       6.445   4.873  15.261  0.00  0.00    +0.000 NA
ATOM     15  C   UNL     1       5.761   3.570  15.317  0.00  0.00    +0.000 C 
ENDBRANCH  10  14
ENDBRANCH   4  10
ENDBRANCH   2   7
ENDBRANCH   1   2
BRANCH   1  16
ATOM     16  C   UNL     1       1.498   8.228  21.207  0.00  0.00    +0.000 C 
BRANCH  16  17
ATOM     17  C   UNL     1       0.977   9.645  20.947  0.00  0.00    +0.000 C 
ATOM     18  O   UNL     1       0.617  10.383  21.864  0.00  0.00    +0.000 OA
ATOM     19  N   UNL     1       0.920   9.986  19.601  0.00  0.00    +0.000 N 
ATOM     20  H   UNL     1       0.795   9.222  18.951  0.00  0.00    +0.000 HD
BRANCH  19  21
ATOM     21  C   UNL     1       0.548  11.283  19.186  0.00  0.00    +0.000 A 
ATOM     22  C   UNL     1       1.566  12.256  19.127  0.00  0.00    +0.000 A 
ATOM     23  C   UNL     1       1.299  13.569  18.742  0.00  0.00    +0.000 A 
ATOM     24  C   UNL     1      -0.000  13.937  18.429  0.00  0.00    +0.000 A 
ATOM     25  C   UNL     1      -1.017  12.983  18.478  0.00  0.00    +0.000 A 
ATOM     26  C   UNL     1      -0.761  11.644  18.827  0.00  0.00    +0.000 A 
BRANCH  26  27
ATOM     27  O   UNL     1      -1.913  10.912  18.857  0.00  0.00    +0.000 OA
BRANCH  27  28
ATOM     28  C   UNL     1      -2.155   9.878  17.929  0.00  0.00    +0.000 C 
ATOM     29  F   UNL     1      -3.484   9.635  17.823  0.00  0.00    +0.000 F 
ATOM     30  F   UNL     1      -1.720  10.254  16.701  0.00  0.00    +0.000 F 
ENDBRANCH  27  28
ENDBRANCH  26  27
ENDBRANCH  19  21
ENDBRANCH  16  17
ENDBRANCH   1  16
TORSDOF 9
ENDMDL
MODEL 9
REMARK VINA RESULT:      -7.2      3.822      6.835
REMARK  Name = 
REMARK  11 active torsions:
REMARK  status: ('A' for Active; 'I' for Inactive)
REMARK    1  A    between atoms: C_1  and  N_2
REMARK    2  A    between atoms: N_2  and  C_3
REMARK    3  A    between atoms: N_2  and  S_4
REMARK    4  A    between atoms: S_4  and  C_7
REMARK    5  A    between atoms: C_10  and  C_11
REMARK    6  A    between atoms: C_11  and  O_13
REMARK    7  A    between atoms: O_13  and  C_14
REMARK    8  A    between atoms: C_14  and  C_15
REMARK    9  A    between atoms: N_17  and  C_18
REMARK   10  A    between atoms: C_23  and  O_24
REMARK   11  A    between atoms: O_24  and  C_25
REMARK                            x       y       z     vdW  Elec       q    Type
REMARK                         _______ _______ _______ _____ _____    ______ ____
ROOT
ATOM      1  O   UNL     1       3.692   4.503  20.075  0.00  0.00    +0.000 OA
ENDROOT
BRANCH   1   2
ATOM      2  C   UNL     1       2.490   4.899  20.565  0.00  0.00    +0.000 C 
ATOM      3  O   UNL     1       1.764   4.225  21.286  0.00  0.00    +0.000 OA
BRANCH   2   7
ATOM      4  C   UNL     1       1.490   8.862  19.288  0.00  0.00    +0.000 A 
ATOM      5  C   UNL     1       2.242   8.022  18.464  0.00  0.00    +0.000 A 
ATOM      6  C   UNL     1       2.574   6.740  18.909  0.00  0.00    +0.000 A 
ATOM      7  C   UNL     1       2.177   6.301  20.182  0.00  0.00    +0.000 A 
ATOM      8  C   UNL     1       1.449   7.166  21.013  0.00  0.00    +0.000 A 
ATOM      9  C   UNL     1       1.114   8.450  20.572  0.00  0.00    +0.000 A 
BRANCH   4  10
ATOM     10  S   UNL     1       1.046  10.492  18.716  0.00  0.00    +0.000 S 
ATOM     11  O   UNL     1      -0.175  10.365  17.949  0.00  0.00    +0.000 OA
ATOM     12  O   UNL     1       2.235  11.082  18.133  0.00  0.00    +0.000 OA
BRANCH  10  14
ATOM     13  C   UNL     1       1.527  12.500  20.469  0.00  0.00    +0.000 C 
ATOM     14  N   UNL     1       0.692  11.327  20.158  0.00  0.00    +0.000 NA
ATOM     15  C   UNL     1      -0.733  11.526  20.473  0.00  0.00    +0.000 C 
ENDBRANCH  10  14
ENDBRANCH   4  10
ENDBRANCH   2   7
ENDBRANCH   1   2
BRANCH   1  16
ATOM     16  C   UNL     1       3.619   3.326  19.260  0.00  0.00    +0.000 C 
BRANCH  16  17
ATOM     17  C   UNL     1       4.029   3.671  17.825  0.00  0.00    +0.000 C 
ATOM     18  O   UNL     1       3.197   3.825  16.931  0.00  0.00    +0.000 OA
ATOM     19  N   UNL     1       5.403   3.754  17.636  0.00  0.00    +0.000 N 
ATOM     20  H   UNL     1       5.975   3.196  18.256  0.00  0.00    +0.000 HD
BRANCH  19  21
ATOM     21  C   UNL     1       5.953   4.150  16.397  0.00  0.00    +0.000 A 
ATOM     22  C   UNL     1       5.429   3.545  15.238  0.00  0.00    +0.000 A 
ATOM     23  C   UNL     1       5.914   3.857  13.969  0.00  0.00    +0.000 A 
ATOM     24  C   UNL     1       6.950   4.768  13.840  0.00  0.00    +0.000 A 
ATOM     25  C   UNL     1       7.475   5.378  14.979  0.00  0.00    +0.000 A 
ATOM     26  C   UNL     1       6.974   5.105  16.265  0.00  0.00    +0.000 A 
BRANCH  26  27
ATOM     27  O   UNL     1       7.676   5.778  17.224  0.00  0.00    +0.000 OA
BRANCH  27  28
ATOM     28  C   UNL     1       7.273   7.051  17.678  0.00  0.00    +0.000 C 
ATOM     29  F   UNL     1       8.092   8.013  17.187  0.00  0.00    +0.000 F 
ATOM     30  F   UNL     1       6.024   7.323  17.226  0.00  0.00    +0.000 F 
ENDBRANCH  27  28
ENDBRANCH  26  27
ENDBRANCH  19  21
ENDBRANCH  16  17
ENDBRANCH   1  16
TORSDOF 9
ENDMDL
