MODEL 1
REMARK VINA RESULT:      -7.3      0.000      0.000
REMARK  Name = 
REMARK  7 active torsions:
REMARK  status: ('A' for Active; 'I' for Inactive)
REMARK    1  A    between atoms: N_2  and  C_4
REMARK    2  A    between atoms: C_7  and  N_8
REMARK    3  A    between atoms: N_11  and  C_12
REMARK    4  A    between atoms: C_12  and  C_13
REMARK    5  A    between atoms: C_13  and  C_14
REMARK    6  A    between atoms: C_14  and  O_15
REMARK    7  A    between atoms: C_14  and  C_16
REMARK                            x       y       z     vdW  Elec       q    Type
REMARK                         _______ _______ _______ _____ _____    ______ ____
ROOT
ATOM      1  N   UNL     1       1.965   7.346  19.265  0.00  0.00    +0.000 N 
ATOM      2  C   UNL     1       2.292   7.546  17.851  0.00  0.00    +0.000 C 
ATOM      3  C   UNL     1       3.791   7.310  17.583  0.00  0.00    +0.000 C 
ATOM      4  N   UNL     1       4.322   6.021  18.094  0.00  0.00    +0.000 NA
ATOM      5  C   UNL     1       4.038   5.998  19.558  0.00  0.00    +0.000 C 
ATOM      6  C   UNL     1       2.542   6.162  19.930  0.00  0.00    +0.000 C 
ENDROOT
BRANCH   1  10
ATOM      7  C   UNL     1       0.387  10.501  21.516  0.00  0.00    +0.000 A 
ATOM      8  C   UNL     1       0.513  10.625  20.130  0.00  0.00    +0.000 A 
ATOM      9  C   UNL     1       1.036   9.565  19.397  0.00  0.00    +0.000 A 
ATOM     10  C   UNL     1       1.445   8.377  20.016  0.00  0.00    +0.000 A 
ATOM     11  C   UNL     1       1.329   8.291  21.413  0.00  0.00    +0.000 A 
ATOM     12  C   UNL     1       0.804   9.337  22.173  0.00  0.00    +0.000 A 
BRANCH   7  14
ATOM     13  O   UNL     1       0.148  12.753  21.995  0.00  0.00    +0.000 OA
ATOM     14  N   UNL     1      -0.192  11.594  22.293  0.00  0.00    +0.000 N 
ATOM     15  O   UNL     1      -0.990  11.318  23.182  0.00  0.00    +0.000 OA
ENDBRANCH   7  14
ENDBRANCH   1  10
BRANCH   4  16
ATOM     16  C   UNL     1       3.692   4.883  17.390  0.00  0.00    +0.000 C 
BRANCH  16  17
ATOM     17  C   UNL     1       4.447   3.563  17.620  0.00  0.00    +0.000 C 
BRANCH  17  18
ATOM     18  C   UNL     1       3.497   2.370  17.767  0.00  0.00    +0.000 C 
BRANCH  18  19
ATOM     19  C   UNL     1       2.732   2.498  19.069  0.00  0.00    +0.000 A 
ATOM     20  C   UNL     1       1.355   2.771  19.022  0.00  0.00    +0.000 A 
ATOM     21  C   UNL     1       0.643   3.052  20.189  0.00  0.00    +0.000 A 
ATOM     22  C   UNL     1       1.292   3.046  21.419  0.00  0.00    +0.000 A 
ATOM     23  C   UNL     1       2.650   2.749  21.484  0.00  0.00    +0.000 A 
ATOM     24  C   UNL     1       3.368   2.475  20.319  0.00  0.00    +0.000 A 
ENDBRANCH  18  19
BRANCH  18  25
ATOM     25  O   UNL     1       4.220   1.143  17.704  0.00  0.00    +0.000 OA
ATOM     26  H   UNL     1       3.604   0.420  17.904  0.00  0.00    +0.000 HD
ENDBRANCH  18  25
ENDBRANCH  17  18
ENDBRANCH  16  17
ENDBRANCH   4  16
TORSDOF 7
ENDMDL
MODEL 2
REMARK VINA RESULT:      -7.3      0.289      1.514
REMARK  Name = 
REMARK  7 active torsions:
REMARK  status: ('A' for Active; 'I' for Inactive)
REMARK    1  A    between atoms: N_2  and  C_4
REMARK    2  A    between atoms: C_7  and  N_8
REMARK    3  A    between atoms: N_11  and  C_12
REMARK    4  A    between atoms: C_12  and  C_13
REMARK    5  A    between atoms: C_13  and  C_14
REMARK    6  A    between atoms: C_14  and  O_15
REMARK    7  A    between atoms: C_14  and  C_16
REMARK                            x       y       z     vdW  Elec       q    Type
REMARK                         _______ _______ _______ _____ _____    ______ ____
ROOT
ATOM      1  N   UNL     1       2.161   7.305  19.022  0.00  0.00    +0.000 N 
ATOM      2  C   UNL     1       2.561   7.502  17.626  0.00  0.00    +0.000 C 
ATOM      3  C   UNL     1       4.072   7.263  17.436  0.00  0.00    +0.000 C 
ATOM      4  N   UNL     1       4.575   5.976  17.978  0.00  0.00    +0.000 NA
ATOM      5  C   UNL     1       4.216   5.957  19.425  0.00  0.00    +0.000 C 
ATOM      6  C   UNL     1       2.702   6.124  19.719  0.00  0.00    +0.000 C 
ENDROOT
BRANCH   1  10
ATOM      7  C   UNL     1       0.464  10.423  21.238  0.00  0.00    +0.000 A 
ATOM      8  C   UNL     1       0.773   9.210  21.859  0.00  0.00    +0.000 A 
ATOM      9  C   UNL     1       1.340   8.186  21.108  0.00  0.00    +0.000 A 
ATOM     10  C   UNL     1       1.604   8.339  19.742  0.00  0.00    +0.000 A 
ATOM     11  C   UNL     1       1.261   9.561  19.139  0.00  0.00    +0.000 A 
ATOM     12  C   UNL     1       0.695  10.607  19.868  0.00  0.00    +0.000 A 
BRANCH   7  14
ATOM     13  O   UNL     1      -0.505  11.254  23.168  0.00  0.00    +0.000 OA
ATOM     14  N   UNL     1      -0.100  11.518  22.023  0.00  0.00    +0.000 N 
ATOM     15  O   UNL     1      -0.131  12.638  21.523  0.00  0.00    +0.000 OA
ENDBRANCH   7  14
ENDBRANCH   1  10
BRANCH   4  16
ATOM     16  C   UNL     1       3.982   4.837  17.246  0.00  0.00    +0.000 C 
BRANCH  16  17
ATOM     17  C   UNL     1       4.626   3.494  17.632  0.00  0.00    +0.000 C 
BRANCH  17  18
ATOM     18  C   UNL     1       3.587   2.382  17.807  0.00  0.00    +0.000 C 
BRANCH  18  19
ATOM     19  C   UNL     1       2.763   2.659  19.049  0.00  0.00    +0.000 A 
ATOM     20  C   UNL     1       3.379   2.556  20.307  0.00  0.00    +0.000 A 
ATOM     21  C   UNL     1       2.625   2.646  21.479  0.00  0.00    +0.000 A 
ATOM     22  C   UNL     1       1.253   2.860  21.410  0.00  0.00    +0.000 A 
ATOM     23  C   UNL     1       0.634   2.993  20.171  0.00  0.00    +0.000 A 
ATOM     24  C   UNL     1       1.381   2.895  18.996  0.00  0.00    +0.000 A 
ENDBRANCH  18  19
BRANCH  18  25
ATOM     25  O   UNL     1       4.223   1.108  17.876  0.00  0.00    +0.000 OA
ATOM     26  H   UNL     1       4.193   0.806  18.797  0.00  0.00    +0.000 HD
ENDBRANCH  18  25
ENDBRANCH  17  18
ENDBRANCH  16  17
ENDBRANCH   4  16
TORSDOF 7
ENDMDL
MODEL 3
REMARK VINA RESULT:      -7.1      0.891      1.362
REMARK  Name = 
REMARK  7 active torsions:
REMARK  status: ('A' for Active; 'I' for Inactive)
REMARK    1  A    between atoms: N_2  and  C_4
REMARK    2  A    between atoms: C_7  and  N_8
REMARK    3  A    between atoms: N_11  and  C_12
REMARK    4  A    between atoms: C_12  and  C_13
REMARK    5  A    between atoms: C_13  and  C_14
REMARK    6  A    between atoms: C_14  and  O_15
REMARK    7  A    between atoms: C_14  and  C_16
REMARK                            x       y       z     vdW  Elec       q    Type
REMARK                         _______ _______ _______ _____ _____    ______ ____
ROOT
ATOM      1  N   UNL     1       2.423   7.214  18.595  0.00  0.00    +0.000 N 
ATOM      2  C   UNL     1       3.083   7.260  17.287  0.00  0.00    +0.000 C 
ATOM      3  C   UNL     1       4.569   6.869  17.394  0.00  0.00    +0.000 C 
ATOM      4  N   UNL     1       4.831   5.589  18.099  0.00  0.00    +0.000 NA
ATOM      5  C   UNL     1       4.222   5.720  19.454  0.00  0.00    +0.000 C 
ATOM      6  C   UNL     1       2.706   6.048  19.453  0.00  0.00    +0.000 C 
ENDROOT
BRANCH   1  10
ATOM      7  C   UNL     1       0.701  10.644  20.262  0.00  0.00    +0.000 A 
ATOM      8  C   UNL     1       0.907   9.510  21.051  0.00  0.00    +0.000 A 
ATOM      9  C   UNL     1       1.484   8.380  20.482  0.00  0.00    +0.000 A 
ATOM     10  C   UNL     1       1.859   8.350  19.133  0.00  0.00    +0.000 A 
ATOM     11  C   UNL     1       1.618   9.496  18.358  0.00  0.00    +0.000 A 
ATOM     12  C   UNL     1       1.044  10.645  18.904  0.00  0.00    +0.000 A 
BRANCH   7  14
ATOM     13  O   UNL     1       0.838  12.491  21.650  0.00  0.00    +0.000 OA
ATOM     14  N   UNL     1       0.127  11.849  20.857  0.00  0.00    +0.000 N 
ATOM     15  O   UNL     1      -1.011  12.172  20.535  0.00  0.00    +0.000 OA
ENDBRANCH   7  14
ENDBRANCH   1  10
BRANCH   4  16
ATOM     16  C   UNL     1       4.261   4.454  17.343  0.00  0.00    +0.000 C 
BRANCH  16  17
ATOM     17  C   UNL     1       4.742   3.094  17.879  0.00  0.00    +0.000 C 
BRANCH  17  18
ATOM     18  C   UNL     1       3.610   2.064  17.944  0.00  0.00    +0.000 C 
BRANCH  18  19
ATOM     19  C   UNL     1       2.760   2.332  19.170  0.00  0.00    +0.000 A 
ATOM     20  C   UNL     1       1.400   2.638  18.998  0.00  0.00    +0.000 A 
ATOM     21  C   UNL     1       0.619   3.046  20.081  0.00  0.00    +0.000 A 
ATOM     22  C   UNL     1       1.179   3.133  21.350  0.00  0.00    +0.000 A 
ATOM     23  C   UNL     1       2.518   2.805  21.541  0.00  0.00    +0.000 A 
ATOM     24  C   UNL     1       3.306   2.405  20.460  0.00  0.00    +0.000 A 
ENDBRANCH  18  19
BRANCH  18  25
ATOM     25  O   UNL     1       4.138   0.739  17.954  0.00  0.00    +0.000 OA
ATOM     26  H   UNL     1       3.907   0.330  18.802  0.00  0.00    +0.000 HD
ENDBRANCH  18  25
ENDBRANCH  17  18
ENDBRANCH  16  17
ENDBRANCH   4  16
TORSDOF 7
ENDMDL
MODEL 4
REMARK VINA RESULT:      -7.1      0.818      1.367
REMARK  Name = 
REMARK  7 active torsions:
REMARK  status: ('A' for Active; 'I' for Inactive)
REMARK    1  A    between atoms: N_2  and  C_4
REMARK    2  A    between atoms: C_7  and  N_8
REMARK    3  A    between atoms: N_11  and  C_12
REMARK    4  A    between atoms: C_12  and  C_13
REMARK    5  A    between atoms: C_13  and  C_14
REMARK    6  A    between atoms: C_14  and  O_15
REMARK    7  A    between atoms: C_14  and  C_16
REMARK                            x       y       z     vdW  Elec       q    Type
REMARK                         _______ _______ _______ _____ _____    ______ ____
ROOT
ATOM      1  N   UNL     1       2.361   7.321  18.560  0.00  0.00    +0.000 N 
ATOM      2  C   UNL     1       3.027   7.368  17.256  0.00  0.00    +0.000 C 
ATOM      3  C   UNL     1       4.502   6.936  17.364  0.00  0.00    +0.000 C 
ATOM      4  N   UNL     1       4.725   5.638  18.050  0.00  0.00    +0.000 NA
ATOM      5  C   UNL     1       4.113   5.765  19.404  0.00  0.00    +0.000 C 
ATOM      6  C   UNL     1       2.607   6.135  19.402  0.00  0.00    +0.000 C 
ENDROOT
BRANCH   1  10
ATOM      7  C   UNL     1       0.745  10.810  20.211  0.00  0.00    +0.000 A 
ATOM      8  C   UNL     1       1.173  10.798  18.881  0.00  0.00    +0.000 A 
ATOM      9  C   UNL     1       1.705   9.629  18.348  0.00  0.00    +0.000 A 
ATOM     10  C   UNL     1       1.825   8.464  19.114  0.00  0.00    +0.000 A 
ATOM     11  C   UNL     1       1.409   8.512  20.454  0.00  0.00    +0.000 A 
ATOM     12  C   UNL     1       0.869   9.670  21.014  0.00  0.00    +0.000 A 
BRANCH   7  14
ATOM     13  O   UNL     1      -0.431  12.791  19.991  0.00  0.00    +0.000 OA
ATOM     14  N   UNL     1       0.154  12.022  20.773  0.00  0.00    +0.000 N 
ATOM     15  O   UNL     1       0.249  12.211  21.982  0.00  0.00    +0.000 OA
ENDBRANCH   7  14
ENDBRANCH   1  10
BRANCH   4  16
ATOM     16  C   UNL     1       4.127   4.530  17.275  0.00  0.00    +0.000 C 
BRANCH  16  17
ATOM     17  C   UNL     1       4.663   3.156  17.710  0.00  0.00    +0.000 C 
BRANCH  17  18
ATOM     18  C   UNL     1       3.540   2.132  17.909  0.00  0.00    +0.000 C 
BRANCH  18  19
ATOM     19  C   UNL     1       2.718   2.522  19.121  0.00  0.00    +0.000 A 
ATOM     20  C   UNL     1       3.328   2.508  20.386  0.00  0.00    +0.000 A 
ATOM     21  C   UNL     1       2.573   2.705  21.544  0.00  0.00    +0.000 A 
ATOM     22  C   UNL     1       1.205   2.937  21.452  0.00  0.00    +0.000 A 
ATOM     23  C   UNL     1       0.592   2.982  20.204  0.00  0.00    +0.000 A 
ATOM     24  C   UNL     1       1.341   2.778  19.044  0.00  0.00    +0.000 A 
ENDBRANCH  18  19
BRANCH  18  25
ATOM     25  O   UNL     1       4.077   0.818  18.042  0.00  0.00    +0.000 OA
ATOM     26  H   UNL     1       4.918   0.884  18.522  0.00  0.00    +0.000 HD
ENDBRANCH  18  25
ENDBRANCH  17  18
ENDBRANCH  16  17
ENDBRANCH   4  16
TORSDOF 7
ENDMDL
MODEL 5
REMARK VINA RESULT:      -7.0      3.257      5.039
REMARK  Name = 
REMARK  7 active torsions:
REMARK  status: ('A' for Active; 'I' for Inactive)
REMARK    1  A    between atoms: N_2  and  C_4
REMARK    2  A    between atoms: C_7  and  N_8
REMARK    3  A    between atoms: N_11  and  C_12
REMARK    4  A    between atoms: C_12  and  C_13
REMARK    5  A    between atoms: C_13  and  C_14
REMARK    6  A    between atoms: C_14  and  O_15
REMARK    7  A    between atoms: C_14  and  C_16
REMARK                            x       y       z     vdW  Elec       q    Type
REMARK                         _______ _______ _______ _____ _____    ______ ____
ROOT
ATOM      1  N   UNL     1       2.814   6.536  18.373  0.00  0.00    +0.000 N 
ATOM      2  C   UNL     1       4.274   6.590  18.254  0.00  0.00    +0.000 C 
ATOM      3  C   UNL     1       4.934   5.343  18.873  0.00  0.00    +0.000 C 
ATOM      4  N   UNL     1       4.391   4.046  18.396  0.00  0.00    +0.000 NA
ATOM      5  C   UNL     1       2.929   4.067  18.688  0.00  0.00    +0.000 C 
ATOM      6  C   UNL     1       2.159   5.254  18.051  0.00  0.00    +0.000 C 
ENDROOT
BRANCH   1  10
ATOM      7  C   UNL     1       0.748   9.503  20.478  0.00  0.00    +0.000 A 
ATOM      8  C   UNL     1       1.062   9.691  19.130  0.00  0.00    +0.000 A 
ATOM      9  C   UNL     1       1.746   8.693  18.444  0.00  0.00    +0.000 A 
ATOM     10  C   UNL     1       2.133   7.505  19.075  0.00  0.00    +0.000 A 
ATOM     11  C   UNL     1       1.824   7.353  20.437  0.00  0.00    +0.000 A 
ATOM     12  C   UNL     1       1.136   8.336  21.148  0.00  0.00    +0.000 A 
BRANCH   7  14
ATOM     13  O   UNL     1       0.269  10.696  22.402  0.00  0.00    +0.000 OA
ATOM     14  N   UNL     1      -0.001  10.529  21.200  0.00  0.00    +0.000 N 
ATOM     15  O   UNL     1      -0.839  11.180  20.585  0.00  0.00    +0.000 OA
ENDBRANCH   7  14
ENDBRANCH   1  10
BRANCH   4  16
ATOM     16  C   UNL     1       4.666   3.866  16.954  0.00  0.00    +0.000 C 
BRANCH  16  17
ATOM     17  C   UNL     1       6.152   4.068  16.613  0.00  0.00    +0.000 C 
BRANCH  17  18
ATOM     18  C   UNL     1       6.371   5.234  15.644  0.00  0.00    +0.000 C 
BRANCH  18  19
ATOM     19  C   UNL     1       6.623   4.686  14.252  0.00  0.00    +0.000 A 
ATOM     20  C   UNL     1       7.613   5.287  13.457  0.00  0.00    +0.000 A 
ATOM     21  C   UNL     1       7.772   4.922  12.119  0.00  0.00    +0.000 A 
ATOM     22  C   UNL     1       6.959   3.939  11.565  0.00  0.00    +0.000 A 
ATOM     23  C   UNL     1       5.994   3.314  12.349  0.00  0.00    +0.000 A 
ATOM     24  C   UNL     1       5.826   3.682  13.685  0.00  0.00    +0.000 A 
ENDBRANCH  18  19
BRANCH  18  25
ATOM     25  O   UNL     1       7.448   6.057  16.084  0.00  0.00    +0.000 OA
ATOM     26  H   UNL     1       7.832   5.652  16.878  0.00  0.00    +0.000 HD
ENDBRANCH  18  25
ENDBRANCH  17  18
ENDBRANCH  16  17
ENDBRANCH   4  16
TORSDOF 7
ENDMDL
MODEL 6
REMARK VINA RESULT:      -7.0      0.882      1.037
REMARK  Name = 
REMARK  7 active torsions:
REMARK  status: ('A' for Active; 'I' for Inactive)
REMARK    1  A    between atoms: N_2  and  C_4
REMARK    2  A    between atoms: C_7  and  N_8
REMARK    3  A    between atoms: N_11  and  C_12
REMARK    4  A    between atoms: C_12  and  C_13
REMARK    5  A    between atoms: C_13  and  C_14
REMARK    6  A    between atoms: C_14  and  O_15
REMARK    7  A    between atoms: C_14  and  C_16
REMARK                            x       y       z     vdW  Elec       q    Type
REMARK                         _______ _______ _______ _____ _____    ______ ____
ROOT
ATOM      1  N   UNL     1       2.477   7.164  18.548  0.00  0.00    +0.000 N 
ATOM      2  C   UNL     1       3.075   7.250  17.213  0.00  0.00    +0.000 C 
ATOM      3  C   UNL     1       4.586   6.952  17.254  0.00  0.00    +0.000 C 
ATOM      4  N   UNL     1       4.957   5.690  17.943  0.00  0.00    +0.000 NA
ATOM      5  C   UNL     1       4.400   5.783  19.323  0.00  0.00    +0.000 C 
ATOM      6  C   UNL     1       2.868   6.017  19.389  0.00  0.00    +0.000 C 
ENDROOT
BRANCH   1  10
ATOM      7  C   UNL     1       0.636  10.520  20.238  0.00  0.00    +0.000 A 
ATOM      8  C   UNL     1       1.061  10.551  18.907  0.00  0.00    +0.000 A 
ATOM      9  C   UNL     1       1.668   9.425  18.360  0.00  0.00    +0.000 A 
ATOM     10  C   UNL     1       1.868   8.262  19.114  0.00  0.00    +0.000 A 
ATOM     11  C   UNL     1       1.452   8.269  20.456  0.00  0.00    +0.000 A 
ATOM     12  C   UNL     1       0.838   9.382  21.029  0.00  0.00    +0.000 A 
BRANCH   7  14
ATOM     13  O   UNL     1      -1.223  11.873  20.505  0.00  0.00    +0.000 OA
ATOM     14  N   UNL     1      -0.033  11.684  20.813  0.00  0.00    +0.000 N 
ATOM     15  O   UNL     1       0.602  12.403  21.578  0.00  0.00    +0.000 OA
ENDBRANCH   7  14
ENDBRANCH   1  10
BRANCH   4  16
ATOM     16  C   UNL     1       4.425   4.522  17.209  0.00  0.00    +0.000 C 
BRANCH  16  17
ATOM     17  C   UNL     1       4.794   3.190  17.884  0.00  0.00    +0.000 C 
BRANCH  17  18
ATOM     18  C   UNL     1       3.623   2.202  17.896  0.00  0.00    +0.000 C 
BRANCH  18  19
ATOM     19  C   UNL     1       2.786   2.436  19.138  0.00  0.00    +0.000 A 
ATOM     20  C   UNL     1       1.416   2.713  18.989  0.00  0.00    +0.000 A 
ATOM     21  C   UNL     1       0.642   3.089  20.088  0.00  0.00    +0.000 A 
ATOM     22  C   UNL     1       1.219   3.174  21.350  0.00  0.00    +0.000 A 
ATOM     23  C   UNL     1       2.567   2.875  21.518  0.00  0.00    +0.000 A 
ATOM     24  C   UNL     1       3.348   2.506  20.421  0.00  0.00    +0.000 A 
ENDBRANCH  18  19
BRANCH  18  25
ATOM     25  O   UNL     1       4.099   0.860  17.832  0.00  0.00    +0.000 OA
ATOM     26  H   UNL     1       4.452   0.624  18.704  0.00  0.00    +0.000 HD
ENDBRANCH  18  25
ENDBRANCH  17  18
ENDBRANCH  16  17
ENDBRANCH   4  16
TORSDOF 7
ENDMDL
MODEL 7
REMARK VINA RESULT:      -7.0      3.472      5.155
REMARK  Name = 
REMARK  7 active torsions:
REMARK  status: ('A' for Active; 'I' for Inactive)
REMARK    1  A    between atoms: N_2  and  C_4
REMARK    2  A    between atoms: C_7  and  N_8
REMARK    3  A    between atoms: N_11  and  C_12
REMARK    4  A    between atoms: C_12  and  C_13
REMARK    5  A    between atoms: C_13  and  C_14
REMARK    6  A    between atoms: C_14  and  O_15
REMARK    7  A    between atoms: C_14  and  C_16
REMARK                            x       y       z     vdW  Elec       q    Type
REMARK                         _______ _______ _______ _____ _____    ______ ____
ROOT
ATOM      1  N   UNL     1       2.974   6.683  17.877  0.00  0.00    +0.000 N 
ATOM      2  C   UNL     1       4.261   6.955  17.231  0.00  0.00    +0.000 C 
ATOM      3  C   UNL     1       5.374   6.050  17.794  0.00  0.00    +0.000 C 
ATOM      4  N   UNL     1       5.057   4.600  17.802  0.00  0.00    +0.000 NA
ATOM      5  C   UNL     1       3.802   4.445  18.592  0.00  0.00    +0.000 C 
ATOM      6  C   UNL     1       2.598   5.269  18.063  0.00  0.00    +0.000 C 
ENDROOT
BRANCH   1  10
ATOM      7  C   UNL     1       0.987   9.661  20.042  0.00  0.00    +0.000 A 
ATOM      8  C   UNL     1       1.345   8.463  20.666  0.00  0.00    +0.000 A 
ATOM      9  C   UNL     1       2.008   7.485  19.932  0.00  0.00    +0.000 A 
ATOM     10  C   UNL     1       2.321   7.671  18.580  0.00  0.00    +0.000 A 
ATOM     11  C   UNL     1       1.928   8.876  17.974  0.00  0.00    +0.000 A 
ATOM     12  C   UNL     1       1.265   9.875  18.687  0.00  0.00    +0.000 A 
BRANCH   7  14
ATOM     13  O   UNL     1       1.037  11.479  21.473  0.00  0.00    +0.000 OA
ATOM     14  N   UNL     1       0.320  10.710  20.811  0.00  0.00    +0.000 N 
ATOM     15  O   UNL     1      -0.903  10.787  20.752  0.00  0.00    +0.000 OA
ENDBRANCH   7  14
ENDBRANCH   1  10
BRANCH   4  16
ATOM     16  C   UNL     1       4.908   4.094  16.421  0.00  0.00    +0.000 C 
BRANCH  16  17
ATOM     17  C   UNL     1       6.262   3.915  15.714  0.00  0.00    +0.000 C 
BRANCH  17  18
ATOM     18  C   UNL     1       6.408   4.839  14.500  0.00  0.00    +0.000 C 
BRANCH  18  19
ATOM     19  C   UNL     1       6.188   4.037  13.233  0.00  0.00    +0.000 A 
ATOM     20  C   UNL     1       4.872   3.747  12.835  0.00  0.00    +0.000 A 
ATOM     21  C   UNL     1       4.624   2.882  11.768  0.00  0.00    +0.000 A 
ATOM     22  C   UNL     1       5.684   2.312  11.073  0.00  0.00    +0.000 A 
ATOM     23  C   UNL     1       6.993   2.613  11.437  0.00  0.00    +0.000 A 
ATOM     24  C   UNL     1       7.247   3.471  12.508  0.00  0.00    +0.000 A 
ENDBRANCH  18  19
BRANCH  18  25
ATOM     25  O   UNL     1       7.686   5.471  14.502  0.00  0.00    +0.000 OA
ATOM     26  H   UNL     1       8.364   4.779  14.548  0.00  0.00    +0.000 HD
ENDBRANCH  18  25
ENDBRANCH  17  18
ENDBRANCH  16  17
ENDBRANCH   4  16
TORSDOF 7
ENDMDL
MODEL 8
REMARK VINA RESULT:      -7.0      3.500      5.158
REMARK  Name = 
REMARK  7 active torsions:
REMARK  status: ('A' for Active; 'I' for Inactive)
REMARK    1  A    between atoms: N_2  and  C_4
REMARK    2  A    between atoms: C_7  and  N_8
REMARK    3  A    between atoms: N_11  and  C_12
REMARK    4  A    between atoms: C_12  and  C_13
REMARK    5  A    between atoms: C_13  and  C_14
REMARK    6  A    between atoms: C_14  and  O_15
REMARK    7  A    between atoms: C_14  and  C_16
REMARK                            x       y       z     vdW  Elec       q    Type
REMARK                         _______ _______ _______ _____ _____    ______ ____
ROOT
ATOM      1  N   UNL     1       3.176   6.446  17.821  0.00  0.00    +0.000 N 
ATOM      2  C   UNL     1       4.498   6.771  17.278  0.00  0.00    +0.000 C 
ATOM      3  C   UNL     1       5.586   5.850  17.861  0.00  0.00    +0.000 C 
ATOM      4  N   UNL     1       5.294   4.397  17.766  0.00  0.00    +0.000 NA
ATOM      5  C   UNL     1       3.993   4.181  18.462  0.00  0.00    +0.000 C 
ATOM      6  C   UNL     1       2.813   5.018  17.902  0.00  0.00    +0.000 C 
ENDROOT
BRANCH   1  10
ATOM      7  C   UNL     1       1.011   9.317  19.960  0.00  0.00    +0.000 A 
ATOM      8  C   UNL     1       1.264   9.502  18.599  0.00  0.00    +0.000 A 
ATOM      9  C   UNL     1       1.983   8.536  17.902  0.00  0.00    +0.000 A 
ATOM     10  C   UNL     1       2.463   7.383  18.535  0.00  0.00    +0.000 A 
ATOM     11  C   UNL     1       2.214   7.235  19.909  0.00  0.00    +0.000 A 
ATOM     12  C   UNL     1       1.493   8.187  20.632  0.00  0.00    +0.000 A 
BRANCH   7  14
ATOM     13  O   UNL     1      -0.164   9.999  21.833  0.00  0.00    +0.000 OA
ATOM     14  N   UNL     1       0.229  10.308  20.695  0.00  0.00    +0.000 N 
ATOM     15  O   UNL     1       0.014  11.392  20.163  0.00  0.00    +0.000 OA
ENDBRANCH   7  14
ENDBRANCH   1  10
BRANCH   4  16
ATOM     16  C   UNL     1       5.243   3.969  16.351  0.00  0.00    +0.000 C 
BRANCH  16  17
ATOM     17  C   UNL     1       6.623   4.024  15.674  0.00  0.00    +0.000 C 
BRANCH  17  18
ATOM     18  C   UNL     1       6.622   4.914  14.427  0.00  0.00    +0.000 C 
BRANCH  18  19
ATOM     19  C   UNL     1       6.269   4.074  13.215  0.00  0.00    +0.000 A 
ATOM     20  C   UNL     1       4.916   3.921  12.867  0.00  0.00    +0.000 A 
ATOM     21  C   UNL     1       4.535   3.033  11.859  0.00  0.00    +0.000 A 
ATOM     22  C   UNL     1       5.499   2.303  11.174  0.00  0.00    +0.000 A 
ATOM     23  C   UNL     1       6.845   2.465  11.488  0.00  0.00    +0.000 A 
ATOM     24  C   UNL     1       7.231   3.345  12.500  0.00  0.00    +0.000 A 
ENDBRANCH  18  19
BRANCH  18  25
ATOM     25  O   UNL     1       7.884   5.556  14.267  0.00  0.00    +0.000 OA
ATOM     26  H   UNL     1       8.459   5.274  14.996  0.00  0.00    +0.000 HD
ENDBRANCH  18  25
ENDBRANCH  17  18
ENDBRANCH  16  17
ENDBRANCH   4  16
TORSDOF 7
ENDMDL
MODEL 9
REMARK VINA RESULT:      -6.9      3.109      4.870
REMARK  Name = 
REMARK  7 active torsions:
REMARK  status: ('A' for Active; 'I' for Inactive)
REMARK    1  A    between atoms: N_2  and  C_4
REMARK    2  A    between atoms: C_7  and  N_8
REMARK    3  A    between atoms: N_11  and  C_12
REMARK    4  A    between atoms: C_12  and  C_13
REMARK    5  A    between atoms: C_13  and  C_14
REMARK    6  A    between atoms: C_14  and  O_15
REMARK    7  A    between atoms: C_14  and  C_16
REMARK                            x       y       z     vdW  Elec       q    Type
REMARK                         _______ _______ _______ _____ _____    ______ ____
ROOT
ATOM      1  N   UNL     1       2.576   6.722  18.485  0.00  0.00    +0.000 N 
ATOM      2  C   UNL     1       3.822   6.945  17.747  0.00  0.00    +0.000 C 
ATOM      3  C   UNL     1       4.945   6.017  18.248  0.00  0.00    +0.000 C 
ATOM      4  N   UNL     1       4.589   4.576  18.303  0.00  0.00    +0.000 NA
ATOM      5  C   UNL     1       3.388   4.472  19.182  0.00  0.00    +0.000 C 
ATOM      6  C   UNL     1       2.174   5.323  18.723  0.00  0.00    +0.000 C 
ENDROOT
BRANCH   1  10
ATOM      7  C   UNL     1       0.840   9.839  20.670  0.00  0.00    +0.000 A 
ATOM      8  C   UNL     1       1.103  10.001  19.308  0.00  0.00    +0.000 A 
ATOM      9  C   UNL     1       1.677   8.954  18.596  0.00  0.00    +0.000 A 
ATOM     10  C   UNL     1       2.003   7.740  19.214  0.00  0.00    +0.000 A 
ATOM     11  C   UNL     1       1.749   7.614  20.590  0.00  0.00    +0.000 A 
ATOM     12  C   UNL     1       1.170   8.647  21.328  0.00  0.00    +0.000 A 
BRANCH   7  14
ATOM     13  O   UNL     1      -0.835  10.650  22.047  0.00  0.00    +0.000 OA
ATOM     14  N   UNL     1       0.205  10.920  21.422  0.00  0.00    +0.000 N 
ATOM     15  O   UNL     1       0.736  12.026  21.412  0.00  0.00    +0.000 OA
ENDBRANCH   7  14
ENDBRANCH   1  10
BRANCH   4  16
ATOM     16  C   UNL     1       4.328   4.053  16.946  0.00  0.00    +0.000 C 
BRANCH  16  17
ATOM     17  C   UNL     1       5.596   3.484  16.286  0.00  0.00    +0.000 C 
BRANCH  17  18
ATOM     18  C   UNL     1       6.578   4.584  15.872  0.00  0.00    +0.000 C 
BRANCH  18  19
ATOM     19  C   UNL     1       6.728   4.578  14.363  0.00  0.00    +0.000 A 
ATOM     20  C   UNL     1       6.003   3.636  13.614  0.00  0.00    +0.000 A 
ATOM     21  C   UNL     1       6.228   3.489  12.244  0.00  0.00    +0.000 A 
ATOM     22  C   UNL     1       7.164   4.292  11.602  0.00  0.00    +0.000 A 
ATOM     23  C   UNL     1       7.869   5.249  12.326  0.00  0.00    +0.000 A 
ATOM     24  C   UNL     1       7.654   5.395  13.697  0.00  0.00    +0.000 A 
ENDBRANCH  18  19
BRANCH  18  25
ATOM     25  O   UNL     1       7.834   4.407  16.522  0.00  0.00    +0.000 OA
ATOM     26  H   UNL     1       8.534   4.653  15.897  0.00  0.00    +0.000 HD
ENDBRANCH  18  25
ENDBRANCH  17  18
ENDBRANCH  16  17
ENDBRANCH   4  16
TORSDOF 7
ENDMDL
