MODEL 1
REMARK VINA RESULT:      -8.4      0.000      0.000
REMARK  Name = 
REMARK  5 active torsions:
REMARK  status: ('A' for Active; 'I' for Inactive)
REMARK    1  A    between atoms: C_1  and  C_2
REMARK    2  A    between atoms: C_9  and  C_11
REMARK    3  A    between atoms: C_11  and  C_12
REMARK    4  A    between atoms: C_12  and  C_13
REMARK    5  A    between atoms: N_15  and  C_16
REMARK                            x       y       z     vdW  Elec       q    Type
REMARK                         _______ _______ _______ _____ _____    ______ ____
ROOT
ATOM      1  C   UNL     1       3.922   0.982  18.609  0.00  0.00    +0.000 C 
ATOM      2  C   UNL     1       3.518   2.422  18.481  0.00  0.00    +0.000 A 
ATOM      3  C   UNL     1       2.202   2.827  18.708  0.00  0.00    +0.000 A 
ATOM      4  C   UNL     1       1.855   4.168  18.563  0.00  0.00    +0.000 A 
ATOM      5  C   UNL     1       2.821   5.118  18.214  0.00  0.00    +0.000 A 
ATOM      6  C   UNL     1       4.166   4.736  17.990  0.00  0.00    +0.000 A 
ATOM      7  C   UNL     1       4.483   3.377  18.118  0.00  0.00    +0.000 A 
ATOM      8  N   UNL     1       5.139   5.735  17.616  0.00  0.00    +0.000 N 
ATOM      9  C   UNL     1       6.526   5.532  17.695  0.00  0.00    +0.000 C 
ATOM     10  O   UNL     1       7.062   4.513  18.130  0.00  0.00    +0.000 OA
ATOM     11  C   UNL     1       4.516   6.991  17.165  0.00  0.00    +0.000 C 
ATOM     12  C   UNL     1       3.390   7.379  18.111  0.00  0.00    +0.000 C 
ATOM     13  O   UNL     1       2.350   6.402  18.106  0.00  0.00    +0.000 OA
ENDROOT
BRANCH   9  14
ATOM     14  C   UNL     1       7.418   6.680  17.244  0.00  0.00    +0.000 C 
BRANCH  14  15
ATOM     15  C   UNL     1       8.179   7.343  18.407  0.00  0.00    +0.000 C 
BRANCH  15  16
ATOM     16  C   UNL     1       8.231   8.846  18.214  0.00  0.00    +0.000 C 
ATOM     17  O   UNL     1       7.528   9.422  17.386  0.00  0.00    +0.000 OA
ATOM     18  N   UNL     1       9.104   9.524  19.054  0.00  0.00    +0.000 N 
ATOM     19  H   UNL     1       9.771   8.997  19.605  0.00  0.00    +0.000 HD
BRANCH  18  20
ATOM     20  C   UNL     1       9.235  10.985  18.961  0.00  0.00    +0.000 C 
ATOM     21  C   UNL     1       9.410  11.644  20.342  0.00  0.00    +0.000 C 
ATOM     22  C   UNL     1      10.829  12.059  20.741  0.00  0.00    +0.000 C 
ATOM     23  C   UNL     1      11.257  13.412  20.166  0.00  0.00    +0.000 C 
ATOM     24  C   UNL     1      11.572  13.429  18.674  0.00  0.00    +0.000 C 
ATOM     25  C   UNL     1      10.472  12.880  17.772  0.00  0.00    +0.000 C 
ATOM     26  C   UNL     1      10.285  11.370  17.912  0.00  0.00    +0.000 C 
ENDBRANCH  18  20
ENDBRANCH  15  16
ENDBRANCH  14  15
ENDBRANCH   9  14
TORSDOF 4
ENDMDL
MODEL 2
REMARK VINA RESULT:      -8.1      5.038      7.068
REMARK  Name = 
REMARK  5 active torsions:
REMARK  status: ('A' for Active; 'I' for Inactive)
REMARK    1  A    between atoms: C_1  and  C_2
REMARK    2  A    between atoms: C_9  and  C_11
REMARK    3  A    between atoms: C_11  and  C_12
REMARK    4  A    between atoms: C_12  and  C_13
REMARK    5  A    between atoms: N_15  and  C_16
REMARK                            x       y       z     vdW  Elec       q    Type
REMARK                         _______ _______ _______ _____ _____    ______ ____
ROOT
ATOM      1  C   UNL     1       5.472   3.646  13.059  0.00  0.00    +0.000 C 
ATOM      2  C   UNL     1       5.789   4.119  14.448  0.00  0.00    +0.000 A 
ATOM      3  C   UNL     1       6.834   5.013  14.686  0.00  0.00    +0.000 A 
ATOM      4  C   UNL     1       7.115   5.419  15.989  0.00  0.00    +0.000 A 
ATOM      5  C   UNL     1       6.342   4.955  17.059  0.00  0.00    +0.000 A 
ATOM      6  C   UNL     1       5.270   4.057  16.843  0.00  0.00    +0.000 A 
ATOM      7  C   UNL     1       5.024   3.645  15.526  0.00  0.00    +0.000 A 
ATOM      8  N   UNL     1       4.499   3.582  17.969  0.00  0.00    +0.000 N 
ATOM      9  C   UNL     1       3.240   2.972  17.843  0.00  0.00    +0.000 C 
ATOM     10  O   UNL     1       2.639   2.818  16.779  0.00  0.00    +0.000 OA
ATOM     11  C   UNL     1       5.168   3.827  19.257  0.00  0.00    +0.000 C 
ATOM     12  C   UNL     1       5.723   5.243  19.291  0.00  0.00    +0.000 C 
ATOM     13  O   UNL     1       6.721   5.431  18.288  0.00  0.00    +0.000 OA
ENDROOT
BRANCH   9  14
ATOM     14  C   UNL     1       2.566   2.510  19.127  0.00  0.00    +0.000 C 
BRANCH  14  15
ATOM     15  C   UNL     1       1.332   3.354  19.495  0.00  0.00    +0.000 C 
BRANCH  15  16
ATOM     16  C   UNL     1       1.762   4.690  20.071  0.00  0.00    +0.000 C 
ATOM     17  O   UNL     1       2.145   4.807  21.233  0.00  0.00    +0.000 OA
ATOM     18  N   UNL     1       1.717   5.761  19.188  0.00  0.00    +0.000 N 
ATOM     19  H   UNL     1       1.249   5.648  18.297  0.00  0.00    +0.000 HD
BRANCH  18  20
ATOM     20  C   UNL     1       2.114   7.104  19.633  0.00  0.00    +0.000 C 
ATOM     21  C   UNL     1       2.496   8.019  18.455  0.00  0.00    +0.000 C 
ATOM     22  C   UNL     1       1.450   9.042  18.001  0.00  0.00    +0.000 C 
ATOM     23  C   UNL     1       1.436  10.320  18.844  0.00  0.00    +0.000 C 
ATOM     24  C   UNL     1       0.835  10.187  20.239  0.00  0.00    +0.000 C 
ATOM     25  C   UNL     1       1.435   9.082  21.102  0.00  0.00    +0.000 C 
ATOM     26  C   UNL     1       1.080   7.682  20.607  0.00  0.00    +0.000 C 
ENDBRANCH  18  20
ENDBRANCH  15  16
ENDBRANCH  14  15
ENDBRANCH   9  14
TORSDOF 4
ENDMDL
MODEL 3
REMARK VINA RESULT:      -7.4      5.249      9.434
REMARK  Name = 
REMARK  5 active torsions:
REMARK  status: ('A' for Active; 'I' for Inactive)
REMARK    1  A    between atoms: C_1  and  C_2
REMARK    2  A    between atoms: C_9  and  C_11
REMARK    3  A    between atoms: C_11  and  C_12
REMARK    4  A    between atoms: C_12  and  C_13
REMARK    5  A    between atoms: N_15  and  C_16
REMARK                            x       y       z     vdW  Elec       q    Type
REMARK                         _______ _______ _______ _____ _____    ______ ____
ROOT
ATOM      1  C   UNL     1      -3.764  10.136  15.511  0.00  0.00    +0.000 C 
ATOM      2  C   UNL     1      -3.198  10.625  16.812  0.00  0.00    +0.000 A 
ATOM      3  C   UNL     1      -3.966  11.385  17.695  0.00  0.00    +0.000 A 
ATOM      4  C   UNL     1      -3.405  11.839  18.887  0.00  0.00    +0.000 A 
ATOM      5  C   UNL     1      -2.083  11.519  19.217  0.00  0.00    +0.000 A 
ATOM      6  C   UNL     1      -1.287  10.740  18.344  0.00  0.00    +0.000 A 
ATOM      7  C   UNL     1      -1.867  10.316  17.141  0.00  0.00    +0.000 A 
ATOM      8  N   UNL     1       0.079  10.438  18.704  0.00  0.00    +0.000 N 
ATOM      9  C   UNL     1       0.834   9.424  18.093  0.00  0.00    +0.000 C 
ATOM     10  O   UNL     1       0.409   8.656  17.229  0.00  0.00    +0.000 OA
ATOM     11  C   UNL     1       0.581  11.296  19.791  0.00  0.00    +0.000 C 
ATOM     12  C   UNL     1      -0.462  11.399  20.892  0.00  0.00    +0.000 C 
ATOM     13  O   UNL     1      -1.654  12.026  20.417  0.00  0.00    +0.000 OA
ENDROOT
BRANCH   9  14
ATOM     14  C   UNL     1       2.268   9.246  18.574  0.00  0.00    +0.000 C 
BRANCH  14  15
ATOM     15  C   UNL     1       3.200   8.680  17.487  0.00  0.00    +0.000 C 
BRANCH  15  16
ATOM     16  C   UNL     1       3.498   7.217  17.758  0.00  0.00    +0.000 C 
ATOM     17  O   UNL     1       4.575   6.705  17.461  0.00  0.00    +0.000 OA
ATOM     18  N   UNL     1       2.481   6.510  18.386  0.00  0.00    +0.000 N 
ATOM     19  H   UNL     1       1.563   6.929  18.468  0.00  0.00    +0.000 HD
BRANCH  18  20
ATOM     20  C   UNL     1       2.658   5.086  18.704  0.00  0.00    +0.000 C 
ATOM     21  C   UNL     1       2.447   4.791  20.201  0.00  0.00    +0.000 C 
ATOM     22  C   UNL     1       1.101   4.184  20.607  0.00  0.00    +0.000 C 
ATOM     23  C   UNL     1       1.029   2.667  20.414  0.00  0.00    +0.000 C 
ATOM     24  C   UNL     1       0.913   2.188  18.971  0.00  0.00    +0.000 C 
ATOM     25  C   UNL     1       1.985   2.716  18.023  0.00  0.00    +0.000 C 
ATOM     26  C   UNL     1       1.847   4.210  17.741  0.00  0.00    +0.000 C 
ENDBRANCH  18  20
ENDBRANCH  15  16
ENDBRANCH  14  15
ENDBRANCH   9  14
TORSDOF 4
ENDMDL
MODEL 4
REMARK VINA RESULT:      -7.2      6.338     10.298
REMARK  Name = 
REMARK  5 active torsions:
REMARK  status: ('A' for Active; 'I' for Inactive)
REMARK    1  A    between atoms: C_1  and  C_2
REMARK    2  A    between atoms: C_9  and  C_11
REMARK    3  A    between atoms: C_11  and  C_12
REMARK    4  A    between atoms: C_12  and  C_13
REMARK    5  A    between atoms: N_15  and  C_16
REMARK                            x       y       z     vdW  Elec       q    Type
REMARK                         _______ _______ _______ _____ _____    ______ ____
ROOT
ATOM      1  C   UNL     1      -1.508  14.933  24.681  0.00  0.00    +0.000 C 
ATOM      2  C   UNL     1      -1.300  14.509  23.256  0.00  0.00    +0.000 A 
ATOM      3  C   UNL     1      -1.304  15.441  22.217  0.00  0.00    +0.000 A 
ATOM      4  C   UNL     1      -1.127  15.013  20.903  0.00  0.00    +0.000 A 
ATOM      5  C   UNL     1      -0.921  13.658  20.619  0.00  0.00    +0.000 A 
ATOM      6  C   UNL     1      -0.901  12.695  21.656  0.00  0.00    +0.000 A 
ATOM      7  C   UNL     1      -1.106  13.148  22.966  0.00  0.00    +0.000 A 
ATOM      8  N   UNL     1      -0.702  11.302  21.331  0.00  0.00    +0.000 N 
ATOM      9  C   UNL     1      -0.338  10.331  22.279  0.00  0.00    +0.000 C 
ATOM     10  O   UNL     1      -0.105  10.562  23.466  0.00  0.00    +0.000 OA
ATOM     11  C   UNL     1      -0.901  11.020  19.900  0.00  0.00    +0.000 C 
ATOM     12  C   UNL     1      -0.199  12.077  19.061  0.00  0.00    +0.000 C 
ATOM     13  O   UNL     1      -0.758  13.371  19.287  0.00  0.00    +0.000 OA
ENDROOT
BRANCH   9  14
ATOM     14  C   UNL     1      -0.186   8.901  21.778  0.00  0.00    +0.000 C 
BRANCH  14  15
ATOM     15  C   UNL     1       1.279   8.427  21.749  0.00  0.00    +0.000 C 
BRANCH  15  16
ATOM     16  C   UNL     1       1.641   7.922  20.366  0.00  0.00    +0.000 C 
ATOM     17  O   UNL     1       1.562   8.638  19.369  0.00  0.00    +0.000 OA
ATOM     18  N   UNL     1       2.091   6.610  20.311  0.00  0.00    +0.000 N 
ATOM     19  H   UNL     1       1.991   6.017  21.125  0.00  0.00    +0.000 HD
BRANCH  18  20
ATOM     20  C   UNL     1       2.476   6.014  19.023  0.00  0.00    +0.000 C 
ATOM     21  C   UNL     1       4.000   6.034  18.804  0.00  0.00    +0.000 C 
ATOM     22  C   UNL     1       4.755   4.725  19.049  0.00  0.00    +0.000 C 
ATOM     23  C   UNL     1       4.710   3.759  17.862  0.00  0.00    +0.000 C 
ATOM     24  C   UNL     1       3.378   3.054  17.632  0.00  0.00    +0.000 C 
ATOM     25  C   UNL     1       2.168   3.975  17.513  0.00  0.00    +0.000 C 
ATOM     26  C   UNL     1       1.802   4.649  18.834  0.00  0.00    +0.000 C 
ENDBRANCH  18  20
ENDBRANCH  15  16
ENDBRANCH  14  15
ENDBRANCH   9  14
TORSDOF 4
ENDMDL
MODEL 5
REMARK VINA RESULT:      -7.2      5.857      8.280
REMARK  Name = 
REMARK  5 active torsions:
REMARK  status: ('A' for Active; 'I' for Inactive)
REMARK    1  A    between atoms: C_1  and  C_2
REMARK    2  A    between atoms: C_9  and  C_11
REMARK    3  A    between atoms: C_11  and  C_12
REMARK    4  A    between atoms: C_12  and  C_13
REMARK    5  A    between atoms: N_15  and  C_16
REMARK                            x       y       z     vdW  Elec       q    Type
REMARK                         _______ _______ _______ _____ _____    ______ ____
ROOT
ATOM      1  C   UNL     1       4.949   5.270  15.834  0.00  0.00    +0.000 C 
ATOM      2  C   UNL     1       4.261   4.543  16.952  0.00  0.00    +0.000 A 
ATOM      3  C   UNL     1       4.395   3.162  17.108  0.00  0.00    +0.000 A 
ATOM      4  C   UNL     1       3.727   2.514  18.145  0.00  0.00    +0.000 A 
ATOM      5  C   UNL     1       2.942   3.241  19.047  0.00  0.00    +0.000 A 
ATOM      6  C   UNL     1       2.799   4.643  18.919  0.00  0.00    +0.000 A 
ATOM      7  C   UNL     1       3.461   5.267  17.853  0.00  0.00    +0.000 A 
ATOM      8  N   UNL     1       1.970   5.364  19.855  0.00  0.00    +0.000 N 
ATOM      9  C   UNL     1       2.023   6.758  20.023  0.00  0.00    +0.000 C 
ATOM     10  O   UNL     1       2.804   7.505  19.433  0.00  0.00    +0.000 OA
ATOM     11  C   UNL     1       1.082   4.477  20.626  0.00  0.00    +0.000 C 
ATOM     12  C   UNL     1       1.860   3.265  21.115  0.00  0.00    +0.000 C 
ATOM     13  O   UNL     1       2.341   2.484  20.021  0.00  0.00    +0.000 OA
ENDROOT
BRANCH   9  14
ATOM     14  C   UNL     1       1.068   7.367  21.039  0.00  0.00    +0.000 C 
BRANCH  14  15
ATOM     15  C   UNL     1       1.601   8.674  21.657  0.00  0.00    +0.000 C 
BRANCH  15  16
ATOM     16  C   UNL     1       0.883   9.869  21.060  0.00  0.00    +0.000 C 
ATOM     17  O   UNL     1       0.954  10.989  21.561  0.00  0.00    +0.000 OA
ATOM     18  N   UNL     1       0.168   9.614  19.898  0.00  0.00    +0.000 N 
ATOM     19  H   UNL     1       0.010   8.655  19.613  0.00  0.00    +0.000 HD
BRANCH  18  20
ATOM     20  C   UNL     1      -0.565  10.698  19.227  0.00  0.00    +0.000 C 
ATOM     21  C   UNL     1      -1.049  10.293  17.822  0.00  0.00    +0.000 C 
ATOM     22  C   UNL     1      -2.523   9.905  17.680  0.00  0.00    +0.000 C 
ATOM     23  C   UNL     1      -3.462  11.106  17.534  0.00  0.00    +0.000 C 
ATOM     24  C   UNL     1      -3.702  11.917  18.803  0.00  0.00    +0.000 C 
ATOM     25  C   UNL     1      -2.443  12.409  19.508  0.00  0.00    +0.000 C 
ATOM     26  C   UNL     1      -1.642  11.279  20.152  0.00  0.00    +0.000 C 
ENDBRANCH  18  20
ENDBRANCH  15  16
ENDBRANCH  14  15
ENDBRANCH   9  14
TORSDOF 4
ENDMDL
MODEL 6
REMARK VINA RESULT:      -7.2      4.741      6.255
REMARK  Name = 
REMARK  5 active torsions:
REMARK  status: ('A' for Active; 'I' for Inactive)
REMARK    1  A    between atoms: C_1  and  C_2
REMARK    2  A    between atoms: C_9  and  C_11
REMARK    3  A    between atoms: C_11  and  C_12
REMARK    4  A    between atoms: C_12  and  C_13
REMARK    5  A    between atoms: N_15  and  C_16
REMARK                            x       y       z     vdW  Elec       q    Type
REMARK                         _______ _______ _______ _____ _____    ______ ____
ROOT
ATOM      1  C   UNL     1       1.785   2.958  21.752  0.00  0.00    +0.000 C 
ATOM      2  C   UNL     1       2.651   3.256  20.562  0.00  0.00    +0.000 A 
ATOM      3  C   UNL     1       3.439   2.265  19.976  0.00  0.00    +0.000 A 
ATOM      4  C   UNL     1       4.247   2.579  18.885  0.00  0.00    +0.000 A 
ATOM      5  C   UNL     1       4.255   3.875  18.356  0.00  0.00    +0.000 A 
ATOM      6  C   UNL     1       3.455   4.894  18.925  0.00  0.00    +0.000 A 
ATOM      7  C   UNL     1       2.671   4.559  20.037  0.00  0.00    +0.000 A 
ATOM      8  N   UNL     1       3.496   6.227  18.369  0.00  0.00    +0.000 N 
ATOM      9  C   UNL     1       2.522   7.205  18.630  0.00  0.00    +0.000 C 
ATOM     10  O   UNL     1       1.515   7.026  19.315  0.00  0.00    +0.000 OA
ATOM     11  C   UNL     1       4.654   6.435  17.484  0.00  0.00    +0.000 C 
ATOM     12  C   UNL     1       4.815   5.245  16.552  0.00  0.00    +0.000 C 
ATOM     13  O   UNL     1       5.091   4.050  17.283  0.00  0.00    +0.000 OA
ENDROOT
BRANCH   9  14
ATOM     14  C   UNL     1       2.721   8.567  17.981  0.00  0.00    +0.000 C 
BRANCH  14  15
ATOM     15  C   UNL     1       1.399   9.325  17.757  0.00  0.00    +0.000 C 
BRANCH  15  16
ATOM     16  C   UNL     1       1.322  10.530  18.675  0.00  0.00    +0.000 C 
ATOM     17  O   UNL     1       0.939  10.440  19.839  0.00  0.00    +0.000 OA
ATOM     18  N   UNL     1       1.738  11.731  18.115  0.00  0.00    +0.000 N 
ATOM     19  H   UNL     1       1.893  11.784  17.116  0.00  0.00    +0.000 HD
BRANCH  18  20
ATOM     20  C   UNL     1       1.712  12.966  18.912  0.00  0.00    +0.000 C 
ATOM     21  C   UNL     1       3.034  13.749  18.816  0.00  0.00    +0.000 C 
ATOM     22  C   UNL     1       3.058  14.963  17.883  0.00  0.00    +0.000 C 
ATOM     23  C   UNL     1       2.481  16.234  18.514  0.00  0.00    +0.000 C 
ATOM     24  C   UNL     1       0.964  16.266  18.669  0.00  0.00    +0.000 C 
ATOM     25  C   UNL     1       0.361  15.078  19.410  0.00  0.00    +0.000 C 
ATOM     26  C   UNL     1       0.444  13.777  18.614  0.00  0.00    +0.000 C 
ENDBRANCH  18  20
ENDBRANCH  15  16
ENDBRANCH  14  15
ENDBRANCH   9  14
TORSDOF 4
ENDMDL
MODEL 7
REMARK VINA RESULT:      -7.2      5.864      9.681
REMARK  Name = 
REMARK  5 active torsions:
REMARK  status: ('A' for Active; 'I' for Inactive)
REMARK    1  A    between atoms: C_1  and  C_2
REMARK    2  A    between atoms: C_9  and  C_11
REMARK    3  A    between atoms: C_11  and  C_12
REMARK    4  A    between atoms: C_12  and  C_13
REMARK    5  A    between atoms: N_15  and  C_16
REMARK                            x       y       z     vdW  Elec       q    Type
REMARK                         _______ _______ _______ _____ _____    ______ ____
ROOT
ATOM      1  C   UNL     1      -3.889  10.271  14.741  0.00  0.00    +0.000 C 
ATOM      2  C   UNL     1      -3.708  10.832  16.121  0.00  0.00    +0.000 A 
ATOM      3  C   UNL     1      -4.742  11.510  16.768  0.00  0.00    +0.000 A 
ATOM      4  C   UNL     1      -4.536  12.035  18.042  0.00  0.00    +0.000 A 
ATOM      5  C   UNL     1      -3.306  11.867  18.688  0.00  0.00    +0.000 A 
ATOM      6  C   UNL     1      -2.245  11.173  18.059  0.00  0.00    +0.000 A 
ATOM      7  C   UNL     1      -2.470  10.676  16.769  0.00  0.00    +0.000 A 
ATOM      8  N   UNL     1      -0.982  11.028  18.745  0.00  0.00    +0.000 N 
ATOM      9  C   UNL     1       0.000  10.098  18.369  0.00  0.00    +0.000 C 
ATOM     10  O   UNL     1      -0.121   9.280  17.456  0.00  0.00    +0.000 OA
ATOM     11  C   UNL     1      -0.850  11.946  19.889  0.00  0.00    +0.000 C 
ATOM     12  C   UNL     1      -2.134  11.944  20.705  0.00  0.00    +0.000 C 
ATOM     13  O   UNL     1      -3.235  12.429  19.937  0.00  0.00    +0.000 OA
ENDROOT
BRANCH   9  14
ATOM     14  C   UNL     1       1.286  10.085  19.183  0.00  0.00    +0.000 C 
BRANCH  14  15
ATOM     15  C   UNL     1       1.520   8.750  19.915  0.00  0.00    +0.000 C 
BRANCH  15  16
ATOM     16  C   UNL     1       2.250   7.775  19.012  0.00  0.00    +0.000 C 
ATOM     17  O   UNL     1       2.868   8.146  18.016  0.00  0.00    +0.000 OA
ATOM     18  N   UNL     1       2.192   6.444  19.403  0.00  0.00    +0.000 N 
ATOM     19  H   UNL     1       1.547   6.170  20.133  0.00  0.00    +0.000 HD
BRANCH  18  20
ATOM     20  C   UNL     1       2.867   5.409  18.606  0.00  0.00    +0.000 C 
ATOM     21  C   UNL     1       4.024   4.744  19.374  0.00  0.00    +0.000 C 
ATOM     22  C   UNL     1       3.752   3.366  19.985  0.00  0.00    +0.000 C 
ATOM     23  C   UNL     1       3.899   2.213  18.988  0.00  0.00    +0.000 C 
ATOM     24  C   UNL     1       2.781   2.080  17.960  0.00  0.00    +0.000 C 
ATOM     25  C   UNL     1       2.486   3.340  17.154  0.00  0.00    +0.000 C 
ATOM     26  C   UNL     1       1.845   4.445  17.992  0.00  0.00    +0.000 C 
ENDBRANCH  18  20
ENDBRANCH  15  16
ENDBRANCH  14  15
ENDBRANCH   9  14
TORSDOF 4
ENDMDL
MODEL 8
REMARK VINA RESULT:      -7.2      5.660      9.873
REMARK  Name = 
REMARK  5 active torsions:
REMARK  status: ('A' for Active; 'I' for Inactive)
REMARK    1  A    between atoms: C_1  and  C_2
REMARK    2  A    between atoms: C_9  and  C_11
REMARK    3  A    between atoms: C_11  and  C_12
REMARK    4  A    between atoms: C_12  and  C_13
REMARK    5  A    between atoms: N_15  and  C_16
REMARK                            x       y       z     vdW  Elec       q    Type
REMARK                         _______ _______ _______ _____ _____    ______ ____
ROOT
ATOM      1  C   UNL     1      -0.704  15.381  20.005  0.00  0.00    +0.000 C 
ATOM      2  C   UNL     1      -0.746  14.176  20.899  0.00  0.00    +0.000 A 
ATOM      3  C   UNL     1      -1.370  14.223  22.147  0.00  0.00    +0.000 A 
ATOM      4  C   UNL     1      -1.375  13.093  22.961  0.00  0.00    +0.000 A 
ATOM      5  C   UNL     1      -0.780  11.903  22.528  0.00  0.00    +0.000 A 
ATOM      6  C   UNL     1      -0.151  11.826  21.262  0.00  0.00    +0.000 A 
ATOM      7  C   UNL     1      -0.138  12.983  20.473  0.00  0.00    +0.000 A 
ATOM      8  N   UNL     1       0.469  10.589  20.848  0.00  0.00    +0.000 N 
ATOM      9  C   UNL     1       0.816  10.305  19.517  0.00  0.00    +0.000 C 
ATOM     10  O   UNL     1       0.592  11.047  18.560  0.00  0.00    +0.000 OA
ATOM     11  C   UNL     1       0.674   9.655  21.968  0.00  0.00    +0.000 C 
ATOM     12  C   UNL     1      -0.578   9.597  22.830  0.00  0.00    +0.000 C 
ATOM     13  O   UNL     1      -0.856  10.866  23.423  0.00  0.00    +0.000 OA
ENDROOT
BRANCH   9  14
ATOM     14  C   UNL     1       1.481   8.962  19.249  0.00  0.00    +0.000 C 
BRANCH  14  15
ATOM     15  C   UNL     1       2.076   8.858  17.833  0.00  0.00    +0.000 C 
BRANCH  15  16
ATOM     16  C   UNL     1       2.882   7.580  17.693  0.00  0.00    +0.000 C 
ATOM     17  O   UNL     1       3.989   7.563  17.159  0.00  0.00    +0.000 OA
ATOM     18  N   UNL     1       2.294   6.444  18.231  0.00  0.00    +0.000 N 
ATOM     19  H   UNL     1       1.323   6.477  18.517  0.00  0.00    +0.000 HD
BRANCH  18  20
ATOM     20  C   UNL     1       2.984   5.148  18.159  0.00  0.00    +0.000 C 
ATOM     21  C   UNL     1       3.722   4.807  19.467  0.00  0.00    +0.000 C 
ATOM     22  C   UNL     1       3.042   3.809  20.408  0.00  0.00    +0.000 C 
ATOM     23  C   UNL     1       3.278   2.345  20.025  0.00  0.00    +0.000 C 
ATOM     24  C   UNL     1       2.515   1.850  18.801  0.00  0.00    +0.000 C 
ATOM     25  C   UNL     1       2.701   2.685  17.538  0.00  0.00    +0.000 C 
ATOM     26  C   UNL     1       2.041   4.060  17.632  0.00  0.00    +0.000 C 
ENDBRANCH  18  20
ENDBRANCH  15  16
ENDBRANCH  14  15
ENDBRANCH   9  14
TORSDOF 4
ENDMDL
MODEL 9
REMARK VINA RESULT:      -7.1      4.811      7.332
REMARK  Name = 
REMARK  5 active torsions:
REMARK  status: ('A' for Active; 'I' for Inactive)
REMARK    1  A    between atoms: C_1  and  C_2
REMARK    2  A    between atoms: C_9  and  C_11
REMARK    3  A    between atoms: C_11  and  C_12
REMARK    4  A    between atoms: C_12  and  C_13
REMARK    5  A    between atoms: N_15  and  C_16
REMARK                            x       y       z     vdW  Elec       q    Type
REMARK                         _______ _______ _______ _____ _____    ______ ____
ROOT
ATOM      1  C   UNL     1       5.233   3.646  12.991  0.00  0.00    +0.000 C 
ATOM      2  C   UNL     1       5.803   4.119  14.296  0.00  0.00    +0.000 A 
ATOM      3  C   UNL     1       7.029   4.783  14.351  0.00  0.00    +0.000 A 
ATOM      4  C   UNL     1       7.540   5.193  15.581  0.00  0.00    +0.000 A 
ATOM      5  C   UNL     1       6.822   4.965  16.760  0.00  0.00    +0.000 A 
ATOM      6  C   UNL     1       5.571   4.304  16.730  0.00  0.00    +0.000 A 
ATOM      7  C   UNL     1       5.091   3.880  15.484  0.00  0.00    +0.000 A 
ATOM      8  N   UNL     1       4.860   4.068  17.964  0.00  0.00    +0.000 N 
ATOM      9  C   UNL     1       3.497   3.733  18.020  0.00  0.00    +0.000 C 
ATOM     10  O   UNL     1       2.754   3.650  17.041  0.00  0.00    +0.000 OA
ATOM     11  C   UNL     1       5.714   4.238  19.152  0.00  0.00    +0.000 C 
ATOM     12  C   UNL     1       6.546   5.504  19.014  0.00  0.00    +0.000 C 
ATOM     13  O   UNL     1       7.435   5.419  17.900  0.00  0.00    +0.000 OA
ENDROOT
BRANCH   9  14
ATOM     14  C   UNL     1       2.900   3.497  19.401  0.00  0.00    +0.000 C 
BRANCH  14  15
ATOM     15  C   UNL     1       1.636   4.337  19.660  0.00  0.00    +0.000 C 
BRANCH  15  16
ATOM     16  C   UNL     1       2.015   5.740  20.094  0.00  0.00    +0.000 C 
ATOM     17  O   UNL     1       3.173   6.150  20.037  0.00  0.00    +0.000 OA
ATOM     18  N   UNL     1       0.963   6.532  20.532  0.00  0.00    +0.000 N 
ATOM     19  H   UNL     1       0.061   6.106  20.709  0.00  0.00    +0.000 HD
BRANCH  18  20
ATOM     20  C   UNL     1       1.210   7.913  20.974  0.00  0.00    +0.000 C 
ATOM     21  C   UNL     1       1.495   8.860  19.793  0.00  0.00    +0.000 C 
ATOM     22  C   UNL     1       0.347   9.761  19.331  0.00  0.00    +0.000 C 
ATOM     23  C   UNL     1       0.190  11.033  20.168  0.00  0.00    +0.000 C 
ATOM     24  C   UNL     1      -0.400  10.841  21.561  0.00  0.00    +0.000 C 
ATOM     25  C   UNL     1       0.311   9.810  22.431  0.00  0.00    +0.000 C 
ATOM     26  C   UNL     1       0.113   8.378  21.940  0.00  0.00    +0.000 C 
ENDBRANCH  18  20
ENDBRANCH  15  16
ENDBRANCH  14  15
ENDBRANCH   9  14
TORSDOF 4
ENDMDL
