MODEL 1
REMARK VINA RESULT:      -6.7      0.000      0.000
REMARK  Name = 
REMARK  5 active torsions:
REMARK  status: ('A' for Active; 'I' for Inactive)
REMARK    1  A    between atoms: C_1  and  C_2
REMARK    2  A    between atoms: C_2  and  O_3
REMARK    3  A    between atoms: O_3  and  C_4
REMARK    4  A    between atoms: C_4  and  C_6
REMARK    5  A    between atoms: C_6  and  N_7
REMARK                            x       y       z     vdW  Elec       q    Type
REMARK                         _______ _______ _______ _____ _____    ______ ____
ROOT
ATOM      1  N   UNL     1       5.365   4.926  18.451  0.00  0.00    +0.000 N 
ATOM      2  C   UNL     1       6.625   5.365  18.824  0.00  0.00    +0.000 C 
ATOM      3  O   UNL     1       7.116   5.244  19.938  0.00  0.00    +0.000 OA
ATOM      4  C   UNL     1       7.266   6.082  17.649  0.00  0.00    +0.000 C 
ATOM      5  N   UNL     1       6.296   5.849  16.588  0.00  0.00    +0.000 N 
ATOM      6  C   UNL     1       6.786   5.197  15.464  0.00  0.00    +0.000 C 
ATOM      7  O   UNL     1       7.730   5.562  14.783  0.00  0.00    +0.000 OA
ATOM      8  C   UNL     1       6.117   3.857  15.362  0.00  0.00    +0.000 C 
ATOM      9  C   UNL     1       4.863   4.004  16.208  0.00  0.00    +0.000 C 
ATOM     10  C   UNL     1       5.099   5.228  17.082  0.00  0.00    +0.000 C 
ENDROOT
BRANCH   1  11
ATOM     11  C   UNL     1       4.312   4.664  19.431  0.00  0.00    +0.000 C 
BRANCH  11  12
ATOM     12  C   UNL     1       4.075   3.164  19.653  0.00  0.00    +0.000 C 
ATOM     13  O   UNL     1       4.905   2.398  20.130  0.00  0.00    +0.000 OA
BRANCH  12  14
ATOM     14  O   UNL     1       2.814   2.810  19.276  0.00  0.00    +0.000 OA
BRANCH  14  16
ATOM     15  C   UNL     1       1.380   2.878  21.254  0.00  0.00    +0.000 C 
ATOM     16  C   UNL     1       1.739   3.516  19.921  0.00  0.00    +0.000 C 
ENDBRANCH  14  16
ENDBRANCH  12  14
ENDBRANCH  11  12
ENDBRANCH   1  11
TORSDOF 4
ENDMDL
MODEL 2
REMARK VINA RESULT:      -6.5      1.554      2.321
REMARK  Name = 
REMARK  5 active torsions:
REMARK  status: ('A' for Active; 'I' for Inactive)
REMARK    1  A    between atoms: C_1  and  C_2
REMARK    2  A    between atoms: C_2  and  O_3
REMARK    3  A    between atoms: O_3  and  C_4
REMARK    4  A    between atoms: C_4  and  C_6
REMARK    5  A    between atoms: C_6  and  N_7
REMARK                            x       y       z     vdW  Elec       q    Type
REMARK                         _______ _______ _______ _____ _____    ______ ____
ROOT
ATOM      1  N   UNL     1       4.288   3.461  17.752  0.00  0.00    +0.000 N 
ATOM      2  C   UNL     1       4.952   3.602  18.961  0.00  0.00    +0.000 C 
ATOM      3  O   UNL     1       4.878   2.827  19.903  0.00  0.00    +0.000 OA
ATOM      4  C   UNL     1       5.726   4.908  18.949  0.00  0.00    +0.000 C 
ATOM      5  N   UNL     1       5.531   5.363  17.580  0.00  0.00    +0.000 N 
ATOM      6  C   UNL     1       6.694   5.562  16.845  0.00  0.00    +0.000 C 
ATOM      7  O   UNL     1       7.619   6.292  17.159  0.00  0.00    +0.000 OA
ATOM      8  C   UNL     1       6.727   4.560  15.728  0.00  0.00    +0.000 C 
ATOM      9  C   UNL     1       5.279   4.121  15.580  0.00  0.00    +0.000 C 
ATOM     10  C   UNL     1       4.589   4.543  16.870  0.00  0.00    +0.000 C 
ENDROOT
BRANCH   1  11
ATOM     11  C   UNL     1       3.098   2.624  17.612  0.00  0.00    +0.000 C 
BRANCH  11  12
ATOM     12  C   UNL     1       1.824   3.328  18.096  0.00  0.00    +0.000 C 
ATOM     13  O   UNL     1       1.170   4.113  17.419  0.00  0.00    +0.000 OA
BRANCH  12  14
ATOM     14  O   UNL     1       1.506   2.940  19.364  0.00  0.00    +0.000 OA
BRANCH  14  16
ATOM     15  C   UNL     1       2.031   4.826  20.826  0.00  0.00    +0.000 C 
ATOM     16  C   UNL     1       0.945   3.954  20.215  0.00  0.00    +0.000 C 
ENDBRANCH  14  16
ENDBRANCH  12  14
ENDBRANCH  11  12
ENDBRANCH   1  11
TORSDOF 4
ENDMDL
MODEL 3
REMARK VINA RESULT:      -6.3      1.316      1.668
REMARK  Name = 
REMARK  5 active torsions:
REMARK  status: ('A' for Active; 'I' for Inactive)
REMARK    1  A    between atoms: C_1  and  C_2
REMARK    2  A    between atoms: C_2  and  O_3
REMARK    3  A    between atoms: O_3  and  C_4
REMARK    4  A    between atoms: C_4  and  C_6
REMARK    5  A    between atoms: C_6  and  N_7
REMARK                            x       y       z     vdW  Elec       q    Type
REMARK                         _______ _______ _______ _____ _____    ______ ____
ROOT
ATOM      1  N   UNL     1       5.256   5.046  18.511  0.00  0.00    +0.000 N 
ATOM      2  C   UNL     1       6.527   5.456  18.881  0.00  0.00    +0.000 C 
ATOM      3  O   UNL     1       7.002   5.363  20.004  0.00  0.00    +0.000 OA
ATOM      4  C   UNL     1       7.204   6.101  17.685  0.00  0.00    +0.000 C 
ATOM      5  N   UNL     1       6.238   5.859  16.623  0.00  0.00    +0.000 N 
ATOM      6  C   UNL     1       6.716   5.145  15.532  0.00  0.00    +0.000 C 
ATOM      7  O   UNL     1       7.679   5.449  14.847  0.00  0.00    +0.000 OA
ATOM      8  C   UNL     1       6.001   3.827  15.477  0.00  0.00    +0.000 C 
ATOM      9  C   UNL     1       4.744   4.051  16.302  0.00  0.00    +0.000 C 
ATOM     10  C   UNL     1       5.014   5.302  17.128  0.00  0.00    +0.000 C 
ENDROOT
BRANCH   1  11
ATOM     11  C   UNL     1       4.184   4.861  19.489  0.00  0.00    +0.000 C 
BRANCH  11  12
ATOM     12  C   UNL     1       2.915   5.644  19.125  0.00  0.00    +0.000 C 
ATOM     13  O   UNL     1       2.795   6.858  19.249  0.00  0.00    +0.000 OA
BRANCH  12  14
ATOM     14  O   UNL     1       1.960   4.813  18.621  0.00  0.00    +0.000 OA
BRANCH  14  16
ATOM     15  C   UNL     1       0.963   2.601  18.916  0.00  0.00    +0.000 C 
ATOM     16  C   UNL     1       1.329   3.929  19.563  0.00  0.00    +0.000 C 
ENDBRANCH  14  16
ENDBRANCH  12  14
ENDBRANCH  11  12
ENDBRANCH   1  11
TORSDOF 4
ENDMDL
MODEL 4
REMARK VINA RESULT:      -6.3      1.996      5.440
REMARK  Name = 
REMARK  5 active torsions:
REMARK  status: ('A' for Active; 'I' for Inactive)
REMARK    1  A    between atoms: C_1  and  C_2
REMARK    2  A    between atoms: C_2  and  O_3
REMARK    3  A    between atoms: O_3  and  C_4
REMARK    4  A    between atoms: C_4  and  C_6
REMARK    5  A    between atoms: C_6  and  N_7
REMARK                            x       y       z     vdW  Elec       q    Type
REMARK                         _______ _______ _______ _____ _____    ______ ____
ROOT
ATOM      1  N   UNL     1       4.388   4.303  17.877  0.00  0.00    +0.000 N 
ATOM      2  C   UNL     1       5.102   3.912  18.998  0.00  0.00    +0.000 C 
ATOM      3  O   UNL     1       6.188   4.361  19.337  0.00  0.00    +0.000 OA
ATOM      4  C   UNL     1       4.353   2.790  19.694  0.00  0.00    +0.000 C 
ATOM      5  N   UNL     1       3.117   2.730  18.927  0.00  0.00    +0.000 N 
ATOM      6  C   UNL     1       1.951   2.921  19.657  0.00  0.00    +0.000 C 
ATOM      7  O   UNL     1       1.604   2.270  20.628  0.00  0.00    +0.000 OA
ATOM      8  C   UNL     1       1.308   4.198  19.201  0.00  0.00    +0.000 C 
ATOM      9  C   UNL     1       1.916   4.451  17.831  0.00  0.00    +0.000 C 
ATOM     10  C   UNL     1       3.163   3.579  17.768  0.00  0.00    +0.000 C 
ENDROOT
BRANCH   1  11
ATOM     11  C   UNL     1       5.026   4.967  16.741  0.00  0.00    +0.000 C 
BRANCH  11  12
ATOM     12  C   UNL     1       5.147   6.484  16.940  0.00  0.00    +0.000 C 
ATOM     13  O   UNL     1       4.288   7.182  17.467  0.00  0.00    +0.000 OA
BRANCH  12  14
ATOM     14  O   UNL     1       6.347   6.940  16.481  0.00  0.00    +0.000 OA
BRANCH  14  16
ATOM     15  C   UNL     1       7.834   8.470  17.673  0.00  0.00    +0.000 C 
ATOM     16  C   UNL     1       7.405   7.028  17.451  0.00  0.00    +0.000 C 
ENDBRANCH  14  16
ENDBRANCH  12  14
ENDBRANCH  11  12
ENDBRANCH   1  11
TORSDOF 4
ENDMDL
MODEL 5
REMARK VINA RESULT:      -6.3      2.067      5.702
REMARK  Name = 
REMARK  5 active torsions:
REMARK  status: ('A' for Active; 'I' for Inactive)
REMARK    1  A    between atoms: C_1  and  C_2
REMARK    2  A    between atoms: C_2  and  O_3
REMARK    3  A    between atoms: O_3  and  C_4
REMARK    4  A    between atoms: C_4  and  C_6
REMARK    5  A    between atoms: C_6  and  N_7
REMARK                            x       y       z     vdW  Elec       q    Type
REMARK                         _______ _______ _______ _____ _____    ______ ____
ROOT
ATOM      1  N   UNL     1       3.637   3.494  18.415  0.00  0.00    +0.000 N 
ATOM      2  C   UNL     1       4.581   3.321  19.415  0.00  0.00    +0.000 C 
ATOM      3  O   UNL     1       5.734   3.725  19.377  0.00  0.00    +0.000 OA
ATOM      4  C   UNL     1       3.972   2.489  20.529  0.00  0.00    +0.000 C 
ATOM      5  N   UNL     1       2.587   2.369  20.095  0.00  0.00    +0.000 N 
ATOM      6  C   UNL     1       1.638   2.853  20.986  0.00  0.00    +0.000 C 
ATOM      7  O   UNL     1       1.505   2.501  22.147  0.00  0.00    +0.000 OA
ATOM      8  C   UNL     1       0.960   4.038  20.361  0.00  0.00    +0.000 C 
ATOM      9  C   UNL     1       1.234   3.880  18.874  0.00  0.00    +0.000 C 
ATOM     10  C   UNL     1       2.391   2.896  18.773  0.00  0.00    +0.000 C 
ENDROOT
BRANCH   1  11
ATOM     11  C   UNL     1       4.014   3.788  17.033  0.00  0.00    +0.000 C 
BRANCH  11  12
ATOM     12  C   UNL     1       4.612   5.192  16.873  0.00  0.00    +0.000 C 
ATOM     13  O   UNL     1       4.048   6.225  17.216  0.00  0.00    +0.000 OA
BRANCH  12  14
ATOM     14  O   UNL     1       5.860   5.130  16.328  0.00  0.00    +0.000 OA
BRANCH  14  16
ATOM     15  C   UNL     1       6.119   4.131  14.112  0.00  0.00    +0.000 C 
ATOM     16  C   UNL     1       6.181   3.921  15.618  0.00  0.00    +0.000 C 
ENDBRANCH  14  16
ENDBRANCH  12  14
ENDBRANCH  11  12
ENDBRANCH   1  11
TORSDOF 4
ENDMDL
MODEL 6
REMARK VINA RESULT:      -6.3      1.701      2.457
REMARK  Name = 
REMARK  5 active torsions:
REMARK  status: ('A' for Active; 'I' for Inactive)
REMARK    1  A    between atoms: C_1  and  C_2
REMARK    2  A    between atoms: C_2  and  O_3
REMARK    3  A    between atoms: O_3  and  C_4
REMARK    4  A    between atoms: C_4  and  C_6
REMARK    5  A    between atoms: C_6  and  N_7
REMARK                            x       y       z     vdW  Elec       q    Type
REMARK                         _______ _______ _______ _____ _____    ______ ____
ROOT
ATOM      1  N   UNL     1       4.633   4.589  17.510  0.00  0.00    +0.000 N 
ATOM      2  C   UNL     1       3.867   5.737  17.638  0.00  0.00    +0.000 C 
ATOM      3  O   UNL     1       2.740   5.786  18.110  0.00  0.00    +0.000 OA
ATOM      4  C   UNL     1       4.624   6.906  17.034  0.00  0.00    +0.000 C 
ATOM      5  N   UNL     1       5.909   6.301  16.715  0.00  0.00    +0.000 N 
ATOM      6  C   UNL     1       7.014   6.895  17.314  0.00  0.00    +0.000 C 
ATOM      7  O   UNL     1       7.328   8.070  17.223  0.00  0.00    +0.000 OA
ATOM      8  C   UNL     1       7.620   5.911  18.273  0.00  0.00    +0.000 C 
ATOM      9  C   UNL     1       7.092   4.565  17.806  0.00  0.00    +0.000 C 
ATOM     10  C   UNL     1       5.898   4.879  16.915  0.00  0.00    +0.000 C 
ENDROOT
BRANCH   1  11
ATOM     11  C   UNL     1       4.039   3.254  17.513  0.00  0.00    +0.000 C 
BRANCH  11  12
ATOM     12  C   UNL     1       3.986   2.637  18.917  0.00  0.00    +0.000 C 
ATOM     13  O   UNL     1       4.816   2.849  19.795  0.00  0.00    +0.000 OA
BRANCH  12  14
ATOM     14  O   UNL     1       2.882   1.852  19.062  0.00  0.00    +0.000 OA
BRANCH  14  16
ATOM     15  C   UNL     1       1.025   3.183  19.930  0.00  0.00    +0.000 C 
ATOM     16  C   UNL     1       1.622   2.462  18.731  0.00  0.00    +0.000 C 
ENDBRANCH  14  16
ENDBRANCH  12  14
ENDBRANCH  11  12
ENDBRANCH   1  11
TORSDOF 4
ENDMDL
MODEL 7
REMARK VINA RESULT:      -6.2      1.834      5.022
REMARK  Name = 
REMARK  5 active torsions:
REMARK  status: ('A' for Active; 'I' for Inactive)
REMARK    1  A    between atoms: C_1  and  C_2
REMARK    2  A    between atoms: C_2  and  O_3
REMARK    3  A    between atoms: O_3  and  C_4
REMARK    4  A    between atoms: C_4  and  C_6
REMARK    5  A    between atoms: C_6  and  N_7
REMARK                            x       y       z     vdW  Elec       q    Type
REMARK                         _______ _______ _______ _____ _____    ______ ____
ROOT
ATOM      1  N   UNL     1       5.722   6.034  18.103  0.00  0.00    +0.000 N 
ATOM      2  C   UNL     1       5.875   5.250  19.236  0.00  0.00    +0.000 C 
ATOM      3  O   UNL     1       6.894   5.164  19.905  0.00  0.00    +0.000 OA
ATOM      4  C   UNL     1       4.597   4.464  19.468  0.00  0.00    +0.000 C 
ATOM      5  N   UNL     1       3.714   5.015  18.449  0.00  0.00    +0.000 N 
ATOM      6  C   UNL     1       2.537   5.581  18.921  0.00  0.00    +0.000 C 
ATOM      7  O   UNL     1       1.703   5.020  19.613  0.00  0.00    +0.000 OA
ATOM      8  C   UNL     1       2.573   7.055  18.638  0.00  0.00    +0.000 C 
ATOM      9  C   UNL     1       3.610   7.197  17.537  0.00  0.00    +0.000 C 
ATOM     10  C   UNL     1       4.410   5.901  17.558  0.00  0.00    +0.000 C 
ENDROOT
BRANCH   1  11
ATOM     11  C   UNL     1       6.867   6.506  17.325  0.00  0.00    +0.000 C 
BRANCH  11  12
ATOM     12  C   UNL     1       7.450   5.415  16.417  0.00  0.00    +0.000 C 
ATOM     13  O   UNL     1       7.951   4.373  16.824  0.00  0.00    +0.000 OA
BRANCH  12  14
ATOM     14  O   UNL     1       7.307   5.749  15.103  0.00  0.00    +0.000 OA
BRANCH  14  16
ATOM     15  C   UNL     1       5.475   4.315  14.356  0.00  0.00    +0.000 C 
ATOM     16  C   UNL     1       6.945   4.680  14.213  0.00  0.00    +0.000 C 
ENDBRANCH  14  16
ENDBRANCH  12  14
ENDBRANCH  11  12
ENDBRANCH   1  11
TORSDOF 4
ENDMDL
MODEL 8
REMARK VINA RESULT:      -6.2      1.106      1.433
REMARK  Name = 
REMARK  5 active torsions:
REMARK  status: ('A' for Active; 'I' for Inactive)
REMARK    1  A    between atoms: C_1  and  C_2
REMARK    2  A    between atoms: C_2  and  O_3
REMARK    3  A    between atoms: O_3  and  C_4
REMARK    4  A    between atoms: C_4  and  C_6
REMARK    5  A    between atoms: C_6  and  N_7
REMARK                            x       y       z     vdW  Elec       q    Type
REMARK                         _______ _______ _______ _____ _____    ______ ____
ROOT
ATOM      1  N   UNL     1       5.239   5.377  18.414  0.00  0.00    +0.000 N 
ATOM      2  C   UNL     1       6.553   5.523  18.827  0.00  0.00    +0.000 C 
ATOM      3  O   UNL     1       6.964   5.334  19.963  0.00  0.00    +0.000 OA
ATOM      4  C   UNL     1       7.385   6.023  17.659  0.00  0.00    +0.000 C 
ATOM      5  N   UNL     1       6.424   5.983  16.565  0.00  0.00    +0.000 N 
ATOM      6  C   UNL     1       6.785   5.191  15.482  0.00  0.00    +0.000 C 
ATOM      7  O   UNL     1       7.811   5.298  14.831  0.00  0.00    +0.000 OA
ATOM      8  C   UNL     1       5.822   4.042  15.393  0.00  0.00    +0.000 C 
ATOM      9  C   UNL     1       4.610   4.512  16.180  0.00  0.00    +0.000 C 
ATOM     10  C   UNL     1       5.098   5.680  17.026  0.00  0.00    +0.000 C 
ENDROOT
BRANCH   1  11
ATOM     11  C   UNL     1       4.121   5.408  19.356  0.00  0.00    +0.000 C 
BRANCH  11  12
ATOM     12  C   UNL     1       3.688   4.004  19.800  0.00  0.00    +0.000 C 
ATOM     13  O   UNL     1       2.859   3.783  20.675  0.00  0.00    +0.000 OA
BRANCH  12  14
ATOM     14  O   UNL     1       4.328   3.045  19.072  0.00  0.00    +0.000 OA
BRANCH  14  16
ATOM     15  C   UNL     1       2.505   2.081  17.762  0.00  0.00    +0.000 C 
ATOM     16  C   UNL     1       3.581   1.845  18.811  0.00  0.00    +0.000 C 
ENDBRANCH  14  16
ENDBRANCH  12  14
ENDBRANCH  11  12
ENDBRANCH   1  11
TORSDOF 4
ENDMDL
MODEL 9
REMARK VINA RESULT:      -6.1      1.616      5.145
REMARK  Name = 
REMARK  5 active torsions:
REMARK  status: ('A' for Active; 'I' for Inactive)
REMARK    1  A    between atoms: C_1  and  C_2
REMARK    2  A    between atoms: C_2  and  O_3
REMARK    3  A    between atoms: O_3  and  C_4
REMARK    4  A    between atoms: C_4  and  C_6
REMARK    5  A    between atoms: C_6  and  N_7
REMARK                            x       y       z     vdW  Elec       q    Type
REMARK                         _______ _______ _______ _____ _____    ______ ____
ROOT
ATOM      1  N   UNL     1       4.578   5.343  18.134  0.00  0.00    +0.000 N 
ATOM      2  C   UNL     1       5.311   4.696  19.117  0.00  0.00    +0.000 C 
ATOM      3  O   UNL     1       6.289   5.156  19.688  0.00  0.00    +0.000 OA
ATOM      4  C   UNL     1       4.745   3.302  19.317  0.00  0.00    +0.000 C 
ATOM      5  N   UNL     1       3.566   3.329  18.463  0.00  0.00    +0.000 N 
ATOM      6  C   UNL     1       2.359   3.072  19.103  0.00  0.00    +0.000 C 
ATOM      7  O   UNL     1       2.098   2.077  19.758  0.00  0.00    +0.000 OA
ATOM      8  C   UNL     1       1.520   4.315  19.051  0.00  0.00    +0.000 C 
ATOM      9  C   UNL     1       2.122   5.122  17.912  0.00  0.00    +0.000 C 
ATOM     10  C   UNL     1       3.502   4.526  17.672  0.00  0.00    +0.000 C 
ENDROOT
BRANCH   1  11
ATOM     11  C   UNL     1       5.130   6.452  17.357  0.00  0.00    +0.000 C 
BRANCH  11  12
ATOM     12  C   UNL     1       6.230   6.000  16.388  0.00  0.00    +0.000 C 
ATOM     13  O   UNL     1       7.425   6.226  16.547  0.00  0.00    +0.000 OA
BRANCH  12  14
ATOM     14  O   UNL     1       5.702   5.294  15.348  0.00  0.00    +0.000 OA
BRANCH  14  16
ATOM     15  C   UNL     1       5.979   3.803  13.432  0.00  0.00    +0.000 C 
ATOM     16  C   UNL     1       6.573   4.332  14.728  0.00  0.00    +0.000 C 
ENDBRANCH  14  16
ENDBRANCH  12  14
ENDBRANCH  11  12
ENDBRANCH   1  11
TORSDOF 4
ENDMDL
