MODEL 1
REMARK VINA RESULT:      -8.9      0.000      0.000
REMARK  Name = 
REMARK  3 active torsions:
REMARK  status: ('A' for Active; 'I' for Inactive)
REMARK    1  A    between atoms: C_1  and  C_2
REMARK    2  A    between atoms: C_4  and  N_5
REMARK    3  A    between atoms: N_8  and  C_9
REMARK                            x       y       z     vdW  Elec       q    Type
REMARK                         _______ _______ _______ _____ _____    ______ ____
ROOT
ATOM      1  N   UNL     1       2.232   6.895  20.697  0.00  0.00    +0.000 N 
ATOM      2  C   UNL     1       1.552   8.096  20.560  0.00  0.00    +0.000 C 
ATOM      3  O   UNL     1       1.157   8.519  19.479  0.00  0.00    +0.000 OA
ATOM      4  N   UNL     1       1.360   8.789  21.750  0.00  0.00    +0.000 N 
ATOM      5  H   UNL     1       2.178   6.445  21.597  0.00  0.00    +0.000 HD
ATOM      6  H   UNL     1       1.949   8.545  22.532  0.00  0.00    +0.000 HD
ENDROOT
BRANCH   1  10
ATOM      7  C   UNL     1       4.877   6.454  16.530  0.00  0.00    +0.000 C 
ATOM      8  C   UNL     1       3.927   5.880  17.539  0.00  0.00    +0.000 A 
ATOM      9  C   UNL     1       3.584   6.600  18.667  0.00  0.00    +0.000 A 
ATOM     10  C   UNL     1       2.638   6.098  19.571  0.00  0.00    +0.000 A 
ATOM     11  C   UNL     1       2.110   4.800  19.336  0.00  0.00    +0.000 A 
ATOM     12  C   UNL     1       1.164   4.129  20.155  0.00  0.00    +0.000 A 
ATOM     13  C   UNL     1       0.701   2.847  19.834  0.00  0.00    +0.000 A 
ATOM     14  C   UNL     1       1.165   2.214  18.692  0.00  0.00    +0.000 A 
ATOM     15  C   UNL     1       2.081   2.867  17.871  0.00  0.00    +0.000 A 
ATOM     16  C   UNL     1       2.559   4.134  18.166  0.00  0.00    +0.000 A 
ATOM     17  N   UNL     1       3.428   4.656  17.294  0.00  0.00    +0.000 NA
ENDBRANCH   1  10
BRANCH   4  18
ATOM     18  C   UNL     1       0.689  10.048  21.793  0.00  0.00    +0.000 A 
ATOM     19  C   UNL     1       1.193  11.209  21.205  0.00  0.00    +0.000 A 
ATOM     20  N   UNL     1       0.659  12.446  21.325  0.00  0.00    +0.000 NA
ATOM     21  C   UNL     1      -0.450  12.574  22.050  0.00  0.00    +0.000 A 
ATOM     22  C   UNL     1      -0.959  13.849  22.235  0.00  0.00    +0.000 A 
ATOM     23  C   UNL     1      -2.121  14.067  22.969  0.00  0.00    +0.000 A 
ATOM     24  C   UNL     1      -2.798  12.986  23.522  0.00  0.00    +0.000 A 
ATOM     25  C   UNL     1      -2.295  11.691  23.356  0.00  0.00    +0.000 A 
ATOM     26  C   UNL     1      -1.107  11.469  22.632  0.00  0.00    +0.000 A 
ATOM     27  C   UNL     1      -0.519  10.187  22.479  0.00  0.00    +0.000 A 
ENDBRANCH   4  18
TORSDOF 2
ENDMDL
MODEL 2
REMARK VINA RESULT:      -8.6      6.456      7.905
REMARK  Name = 
REMARK  3 active torsions:
REMARK  status: ('A' for Active; 'I' for Inactive)
REMARK    1  A    between atoms: C_1  and  C_2
REMARK    2  A    between atoms: C_4  and  N_5
REMARK    3  A    between atoms: N_8  and  C_9
REMARK                            x       y       z     vdW  Elec       q    Type
REMARK                         _______ _______ _______ _____ _____    ______ ____
ROOT
ATOM      1  N   UNL     1       7.747   6.511  18.269  0.00  0.00    +0.000 N 
ATOM      2  C   UNL     1       7.877   7.888  18.157  0.00  0.00    +0.000 C 
ATOM      3  O   UNL     1       7.185   8.563  17.402  0.00  0.00    +0.000 OA
ATOM      4  N   UNL     1       8.862   8.442  18.966  0.00  0.00    +0.000 N 
ATOM      5  H   UNL     1       8.047   6.098  19.138  0.00  0.00    +0.000 HD
ATOM      6  H   UNL     1       9.573   7.822  19.326  0.00  0.00    +0.000 HD
ENDROOT
BRANCH   1  10
ATOM      7  C   UNL     1       6.811   4.472  13.851  0.00  0.00    +0.000 C 
ATOM      8  C   UNL     1       6.415   4.745  15.272  0.00  0.00    +0.000 A 
ATOM      9  C   UNL     1       7.273   5.418  16.121  0.00  0.00    +0.000 A 
ATOM     10  C   UNL     1       6.874   5.741  17.425  0.00  0.00    +0.000 A 
ATOM     11  C   UNL     1       5.604   5.286  17.869  0.00  0.00    +0.000 A 
ATOM     12  C   UNL     1       5.049   5.503  19.159  0.00  0.00    +0.000 A 
ATOM     13  C   UNL     1       3.782   5.015  19.498  0.00  0.00    +0.000 A 
ATOM     14  C   UNL     1       3.041   4.311  18.563  0.00  0.00    +0.000 A 
ATOM     15  C   UNL     1       3.566   4.106  17.288  0.00  0.00    +0.000 A 
ATOM     16  C   UNL     1       4.818   4.573  16.926  0.00  0.00    +0.000 A 
ATOM     17  N   UNL     1       5.204   4.319  15.671  0.00  0.00    +0.000 NA
ENDBRANCH   1  10
BRANCH   4  18
ATOM     18  C   UNL     1       9.140   9.842  18.970  0.00  0.00    +0.000 A 
ATOM     19  C   UNL     1       9.369  10.584  17.810  0.00  0.00    +0.000 A 
ATOM     20  N   UNL     1       9.757  11.880  17.771  0.00  0.00    +0.000 NA
ATOM     21  C   UNL     1       9.921  12.513  18.931  0.00  0.00    +0.000 A 
ATOM     22  C   UNL     1      10.388  13.816  18.897  0.00  0.00    +0.000 A 
ATOM     23  C   UNL     1      10.575  14.551  20.064  0.00  0.00    +0.000 A 
ATOM     24  C   UNL     1      10.278  13.975  21.294  0.00  0.00    +0.000 A 
ATOM     25  C   UNL     1       9.815  12.656  21.351  0.00  0.00    +0.000 A 
ATOM     26  C   UNL     1       9.645  11.902  20.173  0.00  0.00    +0.000 A 
ATOM     27  C   UNL     1       9.235  10.545  20.173  0.00  0.00    +0.000 A 
ENDBRANCH   4  18
TORSDOF 2
ENDMDL
MODEL 3
REMARK VINA RESULT:      -8.5      2.743      3.019
REMARK  Name = 
REMARK  3 active torsions:
REMARK  status: ('A' for Active; 'I' for Inactive)
REMARK    1  A    between atoms: C_1  and  C_2
REMARK    2  A    between atoms: C_4  and  N_5
REMARK    3  A    between atoms: N_8  and  C_9
REMARK                            x       y       z     vdW  Elec       q    Type
REMARK                         _______ _______ _______ _____ _____    ______ ____
ROOT
ATOM      1  N   UNL     1       3.056   7.178  17.604  0.00  0.00    +0.000 N 
ATOM      2  C   UNL     1       2.249   8.019  18.357  0.00  0.00    +0.000 C 
ATOM      3  O   UNL     1       2.173   7.952  19.579  0.00  0.00    +0.000 OA
ATOM      4  N   UNL     1       1.524   8.942  17.611  0.00  0.00    +0.000 N 
ATOM      5  H   UNL     1       3.357   7.524  16.707  0.00  0.00    +0.000 HD
ATOM      6  H   UNL     1       1.404   8.755  16.626  0.00  0.00    +0.000 HD
ENDROOT
BRANCH   1  10
ATOM      7  C   UNL     1       7.305   5.356  19.387  0.00  0.00    +0.000 C 
ATOM      8  C   UNL     1       5.853   5.187  19.050  0.00  0.00    +0.000 A 
ATOM      9  C   UNL     1       5.118   6.253  18.567  0.00  0.00    +0.000 A 
ATOM     10  C   UNL     1       3.782   6.078  18.179  0.00  0.00    +0.000 A 
ATOM     11  C   UNL     1       3.190   4.802  18.373  0.00  0.00    +0.000 A 
ATOM     12  C   UNL     1       1.850   4.453  18.058  0.00  0.00    +0.000 A 
ATOM     13  C   UNL     1       1.361   3.161  18.284  0.00  0.00    +0.000 A 
ATOM     14  C   UNL     1       2.195   2.193  18.819  0.00  0.00    +0.000 A 
ATOM     15  C   UNL     1       3.517   2.517  19.118  0.00  0.00    +0.000 A 
ATOM     16  C   UNL     1       4.027   3.788  18.908  0.00  0.00    +0.000 A 
ATOM     17  N   UNL     1       5.313   3.969  19.227  0.00  0.00    +0.000 NA
ENDBRANCH   1  10
BRANCH   4  18
ATOM     18  C   UNL     1       0.635   9.877  18.221  0.00  0.00    +0.000 A 
ATOM     19  C   UNL     1       0.986  10.672  19.314  0.00  0.00    +0.000 A 
ATOM     20  N   UNL     1       0.144  11.478  20.001  0.00  0.00    +0.000 NA
ATOM     21  C   UNL     1      -1.124  11.536  19.599  0.00  0.00    +0.000 A 
ATOM     22  C   UNL     1      -2.005  12.303  20.343  0.00  0.00    +0.000 A 
ATOM     23  C   UNL     1      -3.344  12.427  19.983  0.00  0.00    +0.000 A 
ATOM     24  C   UNL     1      -3.812  11.778  18.846  0.00  0.00    +0.000 A 
ATOM     25  C   UNL     1      -2.941  10.990  18.085  0.00  0.00    +0.000 A 
ATOM     26  C   UNL     1      -1.590  10.845  18.460  0.00  0.00    +0.000 A 
ATOM     27  C   UNL     1      -0.677  10.015  17.762  0.00  0.00    +0.000 A 
ENDBRANCH   4  18
TORSDOF 2
ENDMDL
MODEL 4
REMARK VINA RESULT:      -8.5      6.883     10.535
REMARK  Name = 
REMARK  3 active torsions:
REMARK  status: ('A' for Active; 'I' for Inactive)
REMARK    1  A    between atoms: C_1  and  C_2
REMARK    2  A    between atoms: C_4  and  N_5
REMARK    3  A    between atoms: N_8  and  C_9
REMARK                            x       y       z     vdW  Elec       q    Type
REMARK                         _______ _______ _______ _____ _____    ______ ____
ROOT
ATOM      1  N   UNL     1       9.566   9.571  19.346  0.00  0.00    +0.000 N 
ATOM      2  C   UNL     1       8.610   8.875  18.622  0.00  0.00    +0.000 C 
ATOM      3  O   UNL     1       7.894   9.406  17.779  0.00  0.00    +0.000 OA
ATOM      4  N   UNL     1       8.522   7.523  18.933  0.00  0.00    +0.000 N 
ATOM      5  H   UNL     1      10.339   9.035  19.706  0.00  0.00    +0.000 HD
ATOM      6  H   UNL     1       8.914   7.220  19.813  0.00  0.00    +0.000 HD
ENDROOT
BRANCH   1  10
ATOM      7  C   UNL     1      11.052  13.540  16.778  0.00  0.00    +0.000 C 
ATOM      8  C   UNL     1      10.443  12.936  18.008  0.00  0.00    +0.000 A 
ATOM      9  C   UNL     1      10.217  11.574  18.082  0.00  0.00    +0.000 A 
ATOM     10  C   UNL     1       9.721  10.999  19.259  0.00  0.00    +0.000 A 
ATOM     11  C   UNL     1       9.383  11.861  20.336  0.00  0.00    +0.000 A 
ATOM     12  C   UNL     1       8.851  11.454  21.589  0.00  0.00    +0.000 A 
ATOM     13  C   UNL     1       8.555  12.385  22.591  0.00  0.00    +0.000 A 
ATOM     14  C   UNL     1       8.787  13.733  22.370  0.00  0.00    +0.000 A 
ATOM     15  C   UNL     1       9.324  14.144  21.152  0.00  0.00    +0.000 A 
ATOM     16  C   UNL     1       9.624  13.246  20.141  0.00  0.00    +0.000 A 
ATOM     17  N   UNL     1      10.142  13.765  19.023  0.00  0.00    +0.000 NA
ENDBRANCH   1  10
BRANCH   4  18
ATOM     18  C   UNL     1       7.585   6.657  18.292  0.00  0.00    +0.000 A 
ATOM     19  C   UNL     1       7.306   6.702  16.926  0.00  0.00    +0.000 A 
ATOM     20  N   UNL     1       6.341   5.992  16.298  0.00  0.00    +0.000 NA
ATOM     21  C   UNL     1       5.601   5.166  17.034  0.00  0.00    +0.000 A 
ATOM     22  C   UNL     1       4.565   4.491  16.409  0.00  0.00    +0.000 A 
ATOM     23  C   UNL     1       3.753   3.601  17.105  0.00  0.00    +0.000 A 
ATOM     24  C   UNL     1       3.989   3.368  18.455  0.00  0.00    +0.000 A 
ATOM     25  C   UNL     1       5.023   4.047  19.109  0.00  0.00    +0.000 A 
ATOM     26  C   UNL     1       5.833   4.966  18.412  0.00  0.00    +0.000 A 
ATOM     27  C   UNL     1       6.857   5.724  19.034  0.00  0.00    +0.000 A 
ENDBRANCH   4  18
TORSDOF 2
ENDMDL
MODEL 5
REMARK VINA RESULT:      -8.5      1.797      2.420
REMARK  Name = 
REMARK  3 active torsions:
REMARK  status: ('A' for Active; 'I' for Inactive)
REMARK    1  A    between atoms: C_1  and  C_2
REMARK    2  A    between atoms: C_4  and  N_5
REMARK    3  A    between atoms: N_8  and  C_9
REMARK                            x       y       z     vdW  Elec       q    Type
REMARK                         _______ _______ _______ _____ _____    ______ ____
ROOT
ATOM      1  N   UNL     1       3.214   7.222  17.444  0.00  0.00    +0.000 N 
ATOM      2  C   UNL     1       2.527   7.884  18.451  0.00  0.00    +0.000 C 
ATOM      3  O   UNL     1       2.558   7.528  19.624  0.00  0.00    +0.000 OA
ATOM      4  N   UNL     1       1.793   8.983  18.022  0.00  0.00    +0.000 N 
ATOM      5  H   UNL     1       3.453   7.763  16.629  0.00  0.00    +0.000 HD
ATOM      6  H   UNL     1       1.574   9.043  17.038  0.00  0.00    +0.000 HD
ENDROOT
BRANCH   1  10
ATOM      7  C   UNL     1       7.526   4.805  17.790  0.00  0.00    +0.000 C 
ATOM      8  C   UNL     1       6.027   4.811  17.837  0.00  0.00    +0.000 A 
ATOM      9  C   UNL     1       5.326   5.995  17.701  0.00  0.00    +0.000 A 
ATOM     10  C   UNL     1       3.926   5.992  17.667  0.00  0.00    +0.000 A 
ATOM     11  C   UNL     1       3.253   4.756  17.858  0.00  0.00    +0.000 A 
ATOM     12  C   UNL     1       1.845   4.571  17.875  0.00  0.00    +0.000 A 
ATOM     13  C   UNL     1       1.278   3.306  18.067  0.00  0.00    +0.000 A 
ATOM     14  C   UNL     1       2.098   2.202  18.240  0.00  0.00    +0.000 A 
ATOM     15  C   UNL     1       3.482   2.366  18.209  0.00  0.00    +0.000 A 
ATOM     16  C   UNL     1       4.070   3.607  18.024  0.00  0.00    +0.000 A 
ATOM     17  N   UNL     1       5.407   3.630  18.006  0.00  0.00    +0.000 NA
ENDBRANCH   1  10
BRANCH   4  18
ATOM     18  C   UNL     1       1.017   9.774  18.922  0.00  0.00    +0.000 A 
ATOM     19  C   UNL     1       0.668  11.102  18.674  0.00  0.00    +0.000 A 
ATOM     20  N   UNL     1       0.045  11.927  19.547  0.00  0.00    +0.000 NA
ATOM     21  C   UNL     1      -0.282  11.433  20.739  0.00  0.00    +0.000 A 
ATOM     22  C   UNL     1      -0.855  12.293  21.662  0.00  0.00    +0.000 A 
ATOM     23  C   UNL     1      -1.237  11.854  22.926  0.00  0.00    +0.000 A 
ATOM     24  C   UNL     1      -1.053  10.520  23.274  0.00  0.00    +0.000 A 
ATOM     25  C   UNL     1      -0.467   9.636  22.360  0.00  0.00    +0.000 A 
ATOM     26  C   UNL     1      -0.059  10.084  21.088  0.00  0.00    +0.000 A 
ATOM     27  C   UNL     1       0.591   9.249  20.144  0.00  0.00    +0.000 A 
ENDBRANCH   4  18
TORSDOF 2
ENDMDL
MODEL 6
REMARK VINA RESULT:      -8.3      2.303      2.813
REMARK  Name = 
REMARK  3 active torsions:
REMARK  status: ('A' for Active; 'I' for Inactive)
REMARK    1  A    between atoms: C_1  and  C_2
REMARK    2  A    between atoms: C_4  and  N_5
REMARK    3  A    between atoms: N_8  and  C_9
REMARK                            x       y       z     vdW  Elec       q    Type
REMARK                         _______ _______ _______ _____ _____    ______ ____
ROOT
ATOM      1  N   UNL     1       3.269   7.414  17.465  0.00  0.00    +0.000 N 
ATOM      2  C   UNL     1       2.360   8.061  18.290  0.00  0.00    +0.000 C 
ATOM      3  O   UNL     1       2.208   7.769  19.471  0.00  0.00    +0.000 OA
ATOM      4  N   UNL     1       1.629   9.065  17.666  0.00  0.00    +0.000 N 
ATOM      5  H   UNL     1       3.608   7.933  16.670  0.00  0.00    +0.000 HD
ATOM      6  H   UNL     1       1.588   9.055  16.658  0.00  0.00    +0.000 HD
ENDROOT
BRANCH   1  10
ATOM      7  C   UNL     1       7.628   5.425  18.728  0.00  0.00    +0.000 C 
ATOM      8  C   UNL     1       6.150   5.295  18.507  0.00  0.00    +0.000 A 
ATOM      9  C   UNL     1       5.392   6.401  18.172  0.00  0.00    +0.000 A 
ATOM     10  C   UNL     1       4.026   6.268  17.890  0.00  0.00    +0.000 A 
ATOM     11  C   UNL     1       3.433   4.986  18.038  0.00  0.00    +0.000 A 
ATOM     12  C   UNL     1       2.066   4.673  17.816  0.00  0.00    +0.000 A 
ATOM     13  C   UNL     1       1.579   3.372  17.986  0.00  0.00    +0.000 A 
ATOM     14  C   UNL     1       2.441   2.359  18.373  0.00  0.00    +0.000 A 
ATOM     15  C   UNL     1       3.788   2.648  18.578  0.00  0.00    +0.000 A 
ATOM     16  C   UNL     1       4.297   3.926  18.421  0.00  0.00    +0.000 A 
ATOM     17  N   UNL     1       5.609   4.072  18.639  0.00  0.00    +0.000 NA
ENDBRANCH   1  10
BRANCH   4  18
ATOM     18  C   UNL     1       0.642   9.826  18.362  0.00  0.00    +0.000 A 
ATOM     19  C   UNL     1      -0.694   9.900  17.964  0.00  0.00    +0.000 A 
ATOM     20  N   UNL     1      -1.634  10.702  18.514  0.00  0.00    +0.000 NA
ATOM     21  C   UNL     1      -1.267  11.479  19.532  0.00  0.00    +0.000 A 
ATOM     22  C   UNL     1      -2.208  12.354  20.051  0.00  0.00    +0.000 A 
ATOM     23  C   UNL     1      -1.908  13.190  21.122  0.00  0.00    +0.000 A 
ATOM     24  C   UNL     1      -0.643  13.143  21.698  0.00  0.00    +0.000 A 
ATOM     25  C   UNL     1       0.324  12.273  21.183  0.00  0.00    +0.000 A 
ATOM     26  C   UNL     1       0.031  11.441  20.084  0.00  0.00    +0.000 A 
ATOM     27  C   UNL     1       0.987  10.583  19.484  0.00  0.00    +0.000 A 
ENDBRANCH   4  18
TORSDOF 2
ENDMDL
MODEL 7
REMARK VINA RESULT:      -8.2      1.666      3.227
REMARK  Name = 
REMARK  3 active torsions:
REMARK  status: ('A' for Active; 'I' for Inactive)
REMARK    1  A    between atoms: C_1  and  C_2
REMARK    2  A    between atoms: C_4  and  N_5
REMARK    3  A    between atoms: N_8  and  C_9
REMARK                            x       y       z     vdW  Elec       q    Type
REMARK                         _______ _______ _______ _____ _____    ______ ____
ROOT
ATOM      1  N   UNL     1       3.339   5.924  20.001  0.00  0.00    +0.000 N 
ATOM      2  C   UNL     1       2.287   6.814  19.844  0.00  0.00    +0.000 C 
ATOM      3  O   UNL     1       1.494   6.751  18.910  0.00  0.00    +0.000 OA
ATOM      4  N   UNL     1       2.206   7.791  20.829  0.00  0.00    +0.000 N 
ATOM      5  H   UNL     1       3.686   5.795  20.938  0.00  0.00    +0.000 HD
ATOM      6  H   UNL     1       3.032   7.966  21.382  0.00  0.00    +0.000 HD
ENDROOT
BRANCH   1  10
ATOM      7  C   UNL     1       3.513   1.148  18.693  0.00  0.00    +0.000 C 
ATOM      8  C   UNL     1       3.750   2.596  18.380  0.00  0.00    +0.000 A 
ATOM      9  C   UNL     1       3.374   3.577  19.277  0.00  0.00    +0.000 A 
ATOM     10  C   UNL     1       3.665   4.924  19.021  0.00  0.00    +0.000 A 
ATOM     11  C   UNL     1       4.278   5.253  17.782  0.00  0.00    +0.000 A 
ATOM     12  C   UNL     1       4.623   6.561  17.349  0.00  0.00    +0.000 A 
ATOM     13  C   UNL     1       5.231   6.781  16.108  0.00  0.00    +0.000 A 
ATOM     14  C   UNL     1       5.512   5.707  15.278  0.00  0.00    +0.000 A 
ATOM     15  C   UNL     1       5.194   4.417  15.698  0.00  0.00    +0.000 A 
ATOM     16  C   UNL     1       4.589   4.170  16.919  0.00  0.00    +0.000 A 
ATOM     17  N   UNL     1       4.343   2.888  17.209  0.00  0.00    +0.000 NA
ENDBRANCH   1  10
BRANCH   4  18
ATOM     18  C   UNL     1       1.191   8.795  20.819  0.00  0.00    +0.000 A 
ATOM     19  C   UNL     1       0.865   9.547  19.689  0.00  0.00    +0.000 A 
ATOM     20  N   UNL     1       0.003  10.590  19.662  0.00  0.00    +0.000 NA
ATOM     21  C   UNL     1      -0.602  10.924  20.800  0.00  0.00    +0.000 A 
ATOM     22  C   UNL     1      -1.429  12.034  20.792  0.00  0.00    +0.000 A 
ATOM     23  C   UNL     1      -2.108  12.442  21.937  0.00  0.00    +0.000 A 
ATOM     24  C   UNL     1      -1.967  11.717  23.114  0.00  0.00    +0.000 A 
ATOM     25  C   UNL     1      -1.129  10.597  23.146  0.00  0.00    +0.000 A 
ATOM     26  C   UNL     1      -0.422  10.195  21.995  0.00  0.00    +0.000 A 
ATOM     27  C   UNL     1       0.484   9.105  21.983  0.00  0.00    +0.000 A 
ENDBRANCH   4  18
TORSDOF 2
ENDMDL
MODEL 8
REMARK VINA RESULT:      -8.2      6.340      8.264
REMARK  Name = 
REMARK  3 active torsions:
REMARK  status: ('A' for Active; 'I' for Inactive)
REMARK    1  A    between atoms: C_1  and  C_2
REMARK    2  A    between atoms: C_4  and  N_5
REMARK    3  A    between atoms: N_8  and  C_9
REMARK                            x       y       z     vdW  Elec       q    Type
REMARK                         _______ _______ _______ _____ _____    ______ ____
ROOT
ATOM      1  N   UNL     1       7.829   6.738  18.390  0.00  0.00    +0.000 N 
ATOM      2  C   UNL     1       8.021   8.108  18.280  0.00  0.00    +0.000 C 
ATOM      3  O   UNL     1       7.395   8.807  17.490  0.00  0.00    +0.000 OA
ATOM      4  N   UNL     1       8.988   8.625  19.133  0.00  0.00    +0.000 N 
ATOM      5  H   UNL     1       8.069   6.318  19.274  0.00  0.00    +0.000 HD
ATOM      6  H   UNL     1       9.655   7.979  19.530  0.00  0.00    +0.000 HD
ENDROOT
BRANCH   1  10
ATOM      7  C   UNL     1       6.963   4.833  13.899  0.00  0.00    +0.000 C 
ATOM      8  C   UNL     1       6.541   5.069  15.318  0.00  0.00    +0.000 A 
ATOM      9  C   UNL     1       7.388   5.710  16.203  0.00  0.00    +0.000 A 
ATOM     10  C   UNL     1       6.966   6.000  17.508  0.00  0.00    +0.000 A 
ATOM     11  C   UNL     1       5.683   5.545  17.914  0.00  0.00    +0.000 A 
ATOM     12  C   UNL     1       5.106   5.730  19.198  0.00  0.00    +0.000 A 
ATOM     13  C   UNL     1       3.828   5.245  19.499  0.00  0.00    +0.000 A 
ATOM     14  C   UNL     1       3.100   4.574  18.529  0.00  0.00    +0.000 A 
ATOM     15  C   UNL     1       3.648   4.399  17.260  0.00  0.00    +0.000 A 
ATOM     16  C   UNL     1       4.911   4.866  16.936  0.00  0.00    +0.000 A 
ATOM     17  N   UNL     1       5.319   4.643  15.682  0.00  0.00    +0.000 NA
ENDBRANCH   1  10
BRANCH   4  18
ATOM     18  C   UNL     1       9.323  10.012  19.146  0.00  0.00    +0.000 A 
ATOM     19  C   UNL     1       8.980  10.877  20.187  0.00  0.00    +0.000 A 
ATOM     20  N   UNL     1       9.164  12.217  20.187  0.00  0.00    +0.000 NA
ATOM     21  C   UNL     1       9.735  12.765  19.116  0.00  0.00    +0.000 A 
ATOM     22  C   UNL     1       9.859  14.144  19.082  0.00  0.00    +0.000 A 
ATOM     23  C   UNL     1      10.454  14.793  18.004  0.00  0.00    +0.000 A 
ATOM     24  C   UNL     1      10.948  14.046  16.940  0.00  0.00    +0.000 A 
ATOM     25  C   UNL     1      10.824  12.652  16.950  0.00  0.00    +0.000 A 
ATOM     26  C   UNL     1      10.201  11.994  18.029  0.00  0.00    +0.000 A 
ATOM     27  C   UNL     1       9.996  10.592  18.068  0.00  0.00    +0.000 A 
ENDBRANCH   4  18
TORSDOF 2
ENDMDL
MODEL 9
REMARK VINA RESULT:      -8.2      1.695      2.181
REMARK  Name = 
REMARK  3 active torsions:
REMARK  status: ('A' for Active; 'I' for Inactive)
REMARK    1  A    between atoms: C_1  and  C_2
REMARK    2  A    between atoms: C_4  and  N_5
REMARK    3  A    between atoms: N_8  and  C_9
REMARK                            x       y       z     vdW  Elec       q    Type
REMARK                         _______ _______ _______ _____ _____    ______ ____
ROOT
ATOM      1  N   UNL     1       2.845   7.339  17.803  0.00  0.00    +0.000 N 
ATOM      2  C   UNL     1       2.320   7.867  18.973  0.00  0.00    +0.000 C 
ATOM      3  O   UNL     1       2.575   7.411  20.083  0.00  0.00    +0.000 OA
ATOM      4  N   UNL     1       1.474   8.954  18.787  0.00  0.00    +0.000 N 
ATOM      5  H   UNL     1       2.912   7.963  17.015  0.00  0.00    +0.000 HD
ATOM      6  H   UNL     1       1.082   9.087  17.866  0.00  0.00    +0.000 HD
ENDROOT
BRANCH   1  10
ATOM      7  C   UNL     1       7.271   5.174  17.277  0.00  0.00    +0.000 C 
ATOM      8  C   UNL     1       5.795   5.080  17.523  0.00  0.00    +0.000 A 
ATOM      9  C   UNL     1       5.028   6.226  17.626  0.00  0.00    +0.000 A 
ATOM     10  C   UNL     1       3.637   6.139  17.778  0.00  0.00    +0.000 A 
ATOM     11  C   UNL     1       3.056   4.849  17.906  0.00  0.00    +0.000 A 
ATOM     12  C   UNL     1       1.674   4.575  18.087  0.00  0.00    +0.000 A 
ATOM     13  C   UNL     1       1.200   3.263  18.197  0.00  0.00    +0.000 A 
ATOM     14  C   UNL     1       2.086   2.201  18.124  0.00  0.00    +0.000 A 
ATOM     15  C   UNL     1       3.443   2.454  17.930  0.00  0.00    +0.000 A 
ATOM     16  C   UNL     1       3.941   3.742  17.821  0.00  0.00    +0.000 A 
ATOM     17  N   UNL     1       5.260   3.852  17.628  0.00  0.00    +0.000 NA
ENDBRANCH   1  10
BRANCH   4  18
ATOM     18  C   UNL     1       0.837   9.615  19.880  0.00  0.00    +0.000 A 
ATOM     19  C   UNL     1       1.104   9.319  21.218  0.00  0.00    +0.000 A 
ATOM     20  N   UNL     1       0.439   9.827  22.281  0.00  0.00    +0.000 NA
ATOM     21  C   UNL     1      -0.542  10.694  22.042  0.00  0.00    +0.000 A 
ATOM     22  C   UNL     1      -1.272  11.161  23.123  0.00  0.00    +0.000 A 
ATOM     23  C   UNL     1      -2.306  12.078  22.960  0.00  0.00    +0.000 A 
ATOM     24  C   UNL     1      -2.611  12.551  21.688  0.00  0.00    +0.000 A 
ATOM     25  C   UNL     1      -1.892  12.085  20.582  0.00  0.00    +0.000 A 
ATOM     26  C   UNL     1      -0.860  11.139  20.741  0.00  0.00    +0.000 A 
ATOM     27  C   UNL     1      -0.138  10.589  19.652  0.00  0.00    +0.000 A 
ENDBRANCH   4  18
TORSDOF 2
ENDMDL
