MODEL 1
REMARK VINA RESULT:      -9.2      0.000      0.000
REMARK  Name = 
REMARK  8 active torsions:
REMARK  status: ('A' for Active; 'I' for Inactive)
REMARK    1  A    between atoms: C_1  and  O_2
REMARK    2  A    between atoms: O_2  and  C_3
REMARK    3  A    between atoms: C_6  and  C_7
REMARK    4  A    between atoms: C_9  and  S_10
REMARK    5  A    between atoms: S_10  and  N_13
REMARK    6  A    between atoms: N_13  and  C_14
REMARK    7  A    between atoms: C_17  and  O_18
REMARK    8  A    between atoms: O_18  and  C_19
REMARK                            x       y       z     vdW  Elec       q    Type
REMARK                         _______ _______ _______ _____ _____    ______ ____
ROOT
ATOM      1  C   UNL     1       2.976   6.738  19.286  0.00  0.00    +0.000 A 
ATOM      2  C   UNL     1       3.114   7.396  18.061  0.00  0.00    +0.000 A 
ATOM      3  C   UNL     1       2.331   8.517  17.783  0.00  0.00    +0.000 A 
ATOM      4  C   UNL     1       1.411   8.964  18.733  0.00  0.00    +0.000 A 
ATOM      5  C   UNL     1       1.307   8.343  19.976  0.00  0.00    +0.000 A 
ATOM      6  C   UNL     1       2.092   7.221  20.250  0.00  0.00    +0.000 A 
ENDROOT
BRANCH   1   7
ATOM      7  N   UNL     1       3.759   5.589  19.571  0.00  0.00    +0.000 N 
ATOM      8  H   UNL     1       3.800   5.276  20.540  0.00  0.00    +0.000 HD
BRANCH   7   9
ATOM      9  S   UNL     1       3.644   4.251  18.546  0.00  0.00    +0.000 S 
ATOM     10  O   UNL     1       2.415   4.374  17.786  0.00  0.00    +0.000 OA
ATOM     11  O   UNL     1       3.871   3.074  19.373  0.00  0.00    +0.000 OA
BRANCH   9  18
ATOM     12  C   UNL     1       6.315   4.618  17.890  0.00  0.00    +0.000 A 
ATOM     13  C   UNL     1       7.365   4.594  16.961  0.00  0.00    +0.000 A 
ATOM     14  C   UNL     1       7.118   4.407  15.597  0.00  0.00    +0.000 A 
ATOM     15  C   UNL     1       5.814   4.238  15.131  0.00  0.00    +0.000 A 
ATOM     16  C   UNL     1       5.535   4.034  13.671  0.00  0.00    +0.000 C 
ATOM     17  C   UNL     1       4.762   4.233  16.053  0.00  0.00    +0.000 A 
ATOM     18  C   UNL     1       5.012   4.408  17.424  0.00  0.00    +0.000 A 
BRANCH  12  20
ATOM     19  C   UNL     1       7.559   5.699  19.603  0.00  0.00    +0.000 C 
ATOM     20  O   UNL     1       6.510   4.808  19.232  0.00  0.00    +0.000 OA
ENDBRANCH  12  20
ENDBRANCH   9  18
ENDBRANCH   7   9
ENDBRANCH   1   7
BRANCH   4  21
ATOM     21  O   UNL     1       0.669  10.110  18.392  0.00  0.00    +0.000 OA
BRANCH  21  22
ATOM     22  C   UNL     1       0.367  11.070  19.347  0.00  0.00    +0.000 A 
ATOM     23  N   UNL     1      -0.644  11.036  20.168  0.00  0.00    +0.000 NA
ATOM     24  C   UNL     1      -0.772  12.085  21.113  0.00  0.00    +0.000 A 
ATOM     25  C   UNL     1      -1.815  12.034  22.035  0.00  0.00    +0.000 A 
ATOM     26  C   UNL     1      -1.890  12.988  23.048  0.00  0.00    +0.000 A 
ATOM     27  F   UNL     1      -2.887  12.919  23.941  0.00  0.00    +0.000 F 
ATOM     28  C   UNL     1      -0.932  13.995  23.153  0.00  0.00    +0.000 A 
ATOM     29  F   UNL     1      -0.971  14.856  24.179  0.00  0.00    +0.000 F 
ATOM     30  C   UNL     1       0.080  14.116  22.208  0.00  0.00    +0.000 A 
ATOM     31  C   UNL     1       0.132  13.170  21.183  0.00  0.00    +0.000 A 
ATOM     32  N   UNL     1       1.097  13.212  20.172  0.00  0.00    +0.000 N 
ATOM     33  C   UNL     1       1.943  14.188  19.743  0.00  0.00    +0.000 A 
ATOM     34  N   UNL     1       2.721  13.699  18.799  0.00  0.00    +0.000 NA
ATOM     35  N   UNL     1       2.306  12.407  18.533  0.00  0.00    +0.000 NA
ATOM     36  C   UNL     1       1.278  12.167  19.317  0.00  0.00    +0.000 A 
ENDBRANCH  21  22
ENDBRANCH   4  21
TORSDOF 6
ENDMDL
MODEL 2
REMARK VINA RESULT:      -9.2      2.569      3.389
REMARK  Name = 
REMARK  8 active torsions:
REMARK  status: ('A' for Active; 'I' for Inactive)
REMARK    1  A    between atoms: C_1  and  O_2
REMARK    2  A    between atoms: O_2  and  C_3
REMARK    3  A    between atoms: C_6  and  C_7
REMARK    4  A    between atoms: C_9  and  S_10
REMARK    5  A    between atoms: S_10  and  N_13
REMARK    6  A    between atoms: N_13  and  C_14
REMARK    7  A    between atoms: C_17  and  O_18
REMARK    8  A    between atoms: O_18  and  C_19
REMARK                            x       y       z     vdW  Elec       q    Type
REMARK                         _______ _______ _______ _____ _____    ______ ____
ROOT
ATOM      1  C   UNL     1       2.374   5.161  18.749  0.00  0.00    +0.000 A 
ATOM      2  C   UNL     1       2.658   6.182  17.838  0.00  0.00    +0.000 A 
ATOM      3  C   UNL     1       2.447   7.513  18.199  0.00  0.00    +0.000 A 
ATOM      4  C   UNL     1       1.947   7.808  19.468  0.00  0.00    +0.000 A 
ATOM      5  C   UNL     1       1.712   6.797  20.399  0.00  0.00    +0.000 A 
ATOM      6  C   UNL     1       1.924   5.466  20.032  0.00  0.00    +0.000 A 
ENDROOT
BRANCH   1   7
ATOM      7  N   UNL     1       2.572   3.803  18.384  0.00  0.00    +0.000 N 
ATOM      8  H   UNL     1       2.202   3.498  17.485  0.00  0.00    +0.000 HD
BRANCH   7   9
ATOM      9  S   UNL     1       4.089   3.105  18.640  0.00  0.00    +0.000 S 
ATOM     10  O   UNL     1       3.999   1.701  18.289  0.00  0.00    +0.000 OA
ATOM     11  O   UNL     1       4.502   3.492  19.983  0.00  0.00    +0.000 OA
BRANCH   9  18
ATOM     12  C   UNL     1       6.274   4.649  17.907  0.00  0.00    +0.000 A 
ATOM     13  C   UNL     1       7.163   5.136  16.938  0.00  0.00    +0.000 A 
ATOM     14  C   UNL     1       6.935   4.919  15.575  0.00  0.00    +0.000 A 
ATOM     15  C   UNL     1       5.811   4.209  15.150  0.00  0.00    +0.000 A 
ATOM     16  C   UNL     1       5.556   3.968  13.692  0.00  0.00    +0.000 C 
ATOM     17  C   UNL     1       4.933   3.696  16.111  0.00  0.00    +0.000 A 
ATOM     18  C   UNL     1       5.170   3.903  17.480  0.00  0.00    +0.000 A 
BRANCH  12  20
ATOM     19  C   UNL     1       7.564   5.654  19.633  0.00  0.00    +0.000 C 
ATOM     20  O   UNL     1       6.453   4.846  19.250  0.00  0.00    +0.000 OA
ENDBRANCH  12  20
ENDBRANCH   9  18
ENDBRANCH   7   9
ENDBRANCH   1   7
BRANCH   4  21
ATOM     21  O   UNL     1       1.777   9.172  19.770  0.00  0.00    +0.000 OA
BRANCH  21  22
ATOM     22  C   UNL     1       0.610   9.836  19.422  0.00  0.00    +0.000 A 
ATOM     23  N   UNL     1      -0.058   9.672  18.315  0.00  0.00    +0.000 NA
ATOM     24  C   UNL     1      -1.260  10.404  18.147  0.00  0.00    +0.000 A 
ATOM     25  C   UNL     1      -2.017  10.197  16.994  0.00  0.00    +0.000 A 
ATOM     26  C   UNL     1      -3.259  10.814  16.862  0.00  0.00    +0.000 A 
ATOM     27  F   UNL     1      -3.986  10.593  15.758  0.00  0.00    +0.000 F 
ATOM     28  C   UNL     1      -3.759  11.636  17.870  0.00  0.00    +0.000 A 
ATOM     29  F   UNL     1      -4.989  12.157  17.765  0.00  0.00    +0.000 F 
ATOM     30  C   UNL     1      -2.999  11.920  19.000  0.00  0.00    +0.000 A 
ATOM     31  C   UNL     1      -1.746  11.317  19.110  0.00  0.00    +0.000 A 
ATOM     32  N   UNL     1      -0.896  11.549  20.196  0.00  0.00    +0.000 N 
ATOM     33  C   UNL     1      -0.869  12.511  21.158  0.00  0.00    +0.000 A 
ATOM     34  N   UNL     1       0.098  12.241  22.012  0.00  0.00    +0.000 NA
ATOM     35  N   UNL     1       0.783  11.136  21.540  0.00  0.00    +0.000 NA
ATOM     36  C   UNL     1       0.215  10.789  20.407  0.00  0.00    +0.000 A 
ENDBRANCH  21  22
ENDBRANCH   4  21
TORSDOF 6
ENDMDL
MODEL 3
REMARK VINA RESULT:      -9.2      1.588      2.471
REMARK  Name = 
REMARK  8 active torsions:
REMARK  status: ('A' for Active; 'I' for Inactive)
REMARK    1  A    between atoms: C_1  and  O_2
REMARK    2  A    between atoms: O_2  and  C_3
REMARK    3  A    between atoms: C_6  and  C_7
REMARK    4  A    between atoms: C_9  and  S_10
REMARK    5  A    between atoms: S_10  and  N_13
REMARK    6  A    between atoms: N_13  and  C_14
REMARK    7  A    between atoms: C_17  and  O_18
REMARK    8  A    between atoms: O_18  and  C_19
REMARK                            x       y       z     vdW  Elec       q    Type
REMARK                         _______ _______ _______ _____ _____    ______ ____
ROOT
ATOM      1  C   UNL     1       2.955   6.753  19.401  0.00  0.00    +0.000 A 
ATOM      2  C   UNL     1       3.257   7.278  18.142  0.00  0.00    +0.000 A 
ATOM      3  C   UNL     1       2.582   8.410  17.682  0.00  0.00    +0.000 A 
ATOM      4  C   UNL     1       1.606   9.000  18.486  0.00  0.00    +0.000 A 
ATOM      5  C   UNL     1       1.339   8.512  19.764  0.00  0.00    +0.000 A 
ATOM      6  C   UNL     1       2.017   7.379  20.220  0.00  0.00    +0.000 A 
ENDROOT
BRANCH   1   7
ATOM      7  N   UNL     1       3.627   5.594  19.870  0.00  0.00    +0.000 N 
ATOM      8  H   UNL     1       3.490   5.332  20.846  0.00  0.00    +0.000 HD
BRANCH   7   9
ATOM      9  S   UNL     1       3.630   4.208  18.904  0.00  0.00    +0.000 S 
ATOM     10  O   UNL     1       2.393   4.188  18.148  0.00  0.00    +0.000 OA
ATOM     11  O   UNL     1       3.962   3.092  19.781  0.00  0.00    +0.000 OA
BRANCH   9  18
ATOM     12  C   UNL     1       6.261   4.761  18.219  0.00  0.00    +0.000 A 
ATOM     13  C   UNL     1       7.306   4.790  17.284  0.00  0.00    +0.000 A 
ATOM     14  C   UNL     1       7.067   4.543  15.928  0.00  0.00    +0.000 A 
ATOM     15  C   UNL     1       5.778   4.260  15.476  0.00  0.00    +0.000 A 
ATOM     16  C   UNL     1       5.509   3.991  14.025  0.00  0.00    +0.000 C 
ATOM     17  C   UNL     1       4.734   4.201  16.406  0.00  0.00    +0.000 A 
ATOM     18  C   UNL     1       4.976   4.436  17.769  0.00  0.00    +0.000 A 
BRANCH  12  20
ATOM     19  C   UNL     1       7.681   5.615  19.923  0.00  0.00    +0.000 C 
ATOM     20  O   UNL     1       6.447   5.005  19.553  0.00  0.00    +0.000 OA
ENDBRANCH  12  20
ENDBRANCH   9  18
ENDBRANCH   7   9
ENDBRANCH   1   7
BRANCH   4  21
ATOM     21  O   UNL     1       0.980  10.149  17.966  0.00  0.00    +0.000 OA
BRANCH  21  22
ATOM     22  C   UNL     1      -0.028  10.789  18.672  0.00  0.00    +0.000 A 
ATOM     23  N   UNL     1       0.125  11.458  19.780  0.00  0.00    +0.000 NA
ATOM     24  C   UNL     1      -1.014  12.088  20.341  0.00  0.00    +0.000 A 
ATOM     25  C   UNL     1      -0.857  12.855  21.494  0.00  0.00    +0.000 A 
ATOM     26  C   UNL     1      -1.936  13.581  21.995  0.00  0.00    +0.000 A 
ATOM     27  F   UNL     1      -1.769  14.330  23.093  0.00  0.00    +0.000 F 
ATOM     28  C   UNL     1      -3.175  13.551  21.355  0.00  0.00    +0.000 A 
ATOM     29  F   UNL     1      -4.179  14.316  21.801  0.00  0.00    +0.000 F 
ATOM     30  C   UNL     1      -3.383  12.741  20.245  0.00  0.00    +0.000 A 
ATOM     31  C   UNL     1      -2.303  11.999  19.767  0.00  0.00    +0.000 A 
ATOM     32  N   UNL     1      -2.411  11.140  18.669  0.00  0.00    +0.000 N 
ATOM     33  C   UNL     1      -3.478  10.591  18.028  0.00  0.00    +0.000 A 
ATOM     34  N   UNL     1      -3.050   9.904  16.988  0.00  0.00    +0.000 NA
ATOM     35  N   UNL     1      -1.667   9.919  17.010  0.00  0.00    +0.000 NA
ATOM     36  C   UNL     1      -1.309  10.601  18.075  0.00  0.00    +0.000 A 
ENDBRANCH  21  22
ENDBRANCH   4  21
TORSDOF 6
ENDMDL
MODEL 4
REMARK VINA RESULT:      -9.2      0.586      1.001
REMARK  Name = 
REMARK  8 active torsions:
REMARK  status: ('A' for Active; 'I' for Inactive)
REMARK    1  A    between atoms: C_1  and  O_2
REMARK    2  A    between atoms: O_2  and  C_3
REMARK    3  A    between atoms: C_6  and  C_7
REMARK    4  A    between atoms: C_9  and  S_10
REMARK    5  A    between atoms: S_10  and  N_13
REMARK    6  A    between atoms: N_13  and  C_14
REMARK    7  A    between atoms: C_17  and  O_18
REMARK    8  A    between atoms: O_18  and  C_19
REMARK                            x       y       z     vdW  Elec       q    Type
REMARK                         _______ _______ _______ _____ _____    ______ ____
ROOT
ATOM      1  C   UNL     1       3.335   6.374  19.329  0.00  0.00    +0.000 A 
ATOM      2  C   UNL     1       2.247   6.814  20.087  0.00  0.00    +0.000 A 
ATOM      3  C   UNL     1       1.505   7.917  19.661  0.00  0.00    +0.000 A 
ATOM      4  C   UNL     1       1.866   8.573  18.484  0.00  0.00    +0.000 A 
ATOM      5  C   UNL     1       2.919   8.106  17.698  0.00  0.00    +0.000 A 
ATOM      6  C   UNL     1       3.658   7.002  18.128  0.00  0.00    +0.000 A 
ENDROOT
BRANCH   1   7
ATOM      7  N   UNL     1       4.103   5.261  19.763  0.00  0.00    +0.000 N 
ATOM      8  H   UNL     1       4.035   4.995  20.744  0.00  0.00    +0.000 HD
BRANCH   7   9
ATOM      9  S   UNL     1       4.141   3.874  18.799  0.00  0.00    +0.000 S 
ATOM     10  O   UNL     1       2.826   3.701  18.213  0.00  0.00    +0.000 OA
ATOM     11  O   UNL     1       4.714   2.815  19.620  0.00  0.00    +0.000 OA
BRANCH   9  18
ATOM     12  C   UNL     1       6.600   4.650  17.775  0.00  0.00    +0.000 A 
ATOM     13  C   UNL     1       7.493   4.792  16.704  0.00  0.00    +0.000 A 
ATOM     14  C   UNL     1       7.079   4.576  15.385  0.00  0.00    +0.000 A 
ATOM     15  C   UNL     1       5.761   4.212  15.108  0.00  0.00    +0.000 A 
ATOM     16  C   UNL     1       5.305   3.975  13.699  0.00  0.00    +0.000 C 
ATOM     17  C   UNL     1       4.870   4.040  16.172  0.00  0.00    +0.000 A 
ATOM     18  C   UNL     1       5.289   4.245  17.497  0.00  0.00    +0.000 A 
BRANCH  12  20
ATOM     19  C   UNL     1       7.837   5.955  19.329  0.00  0.00    +0.000 C 
ATOM     20  O   UNL     1       6.959   4.860  19.079  0.00  0.00    +0.000 OA
ENDBRANCH  12  20
ENDBRANCH   9  18
ENDBRANCH   7   9
ENDBRANCH   1   7
BRANCH   4  21
ATOM     21  O   UNL     1       1.063   9.665  18.107  0.00  0.00    +0.000 OA
BRANCH  21  22
ATOM     22  C   UNL     1       0.732  10.652  19.023  0.00  0.00    +0.000 A 
ATOM     23  N   UNL     1      -0.240  10.593  19.889  0.00  0.00    +0.000 NA
ATOM     24  C   UNL     1      -0.404  11.680  20.784  0.00  0.00    +0.000 A 
ATOM     25  C   UNL     1      -1.403  11.607  21.753  0.00  0.00    +0.000 A 
ATOM     26  C   UNL     1      -1.505  12.608  22.718  0.00  0.00    +0.000 A 
ATOM     27  F   UNL     1      -2.457  12.517  23.657  0.00  0.00    +0.000 F 
ATOM     28  C   UNL     1      -0.619  13.683  22.728  0.00  0.00    +0.000 A 
ATOM     29  F   UNL     1      -0.678  14.594  23.708  0.00  0.00    +0.000 F 
ATOM     30  C   UNL     1       0.343  13.823  21.733  0.00  0.00    +0.000 A 
ATOM     31  C   UNL     1       0.420  12.828  20.757  0.00  0.00    +0.000 A 
ATOM     32  N   UNL     1       1.338  12.882  19.704  0.00  0.00    +0.000 N 
ATOM     33  C   UNL     1       2.093  13.890  19.187  0.00  0.00    +0.000 A 
ATOM     34  N   UNL     1       2.865  13.406  18.236  0.00  0.00    +0.000 NA
ATOM     35  N   UNL     1       2.534  12.075  18.056  0.00  0.00    +0.000 NA
ATOM     36  C   UNL     1       1.559  11.808  18.896  0.00  0.00    +0.000 A 
ENDBRANCH  21  22
ENDBRANCH   4  21
TORSDOF 6
ENDMDL
MODEL 5
REMARK VINA RESULT:      -9.2      2.808      3.709
REMARK  Name = 
REMARK  8 active torsions:
REMARK  status: ('A' for Active; 'I' for Inactive)
REMARK    1  A    between atoms: C_1  and  O_2
REMARK    2  A    between atoms: O_2  and  C_3
REMARK    3  A    between atoms: C_6  and  C_7
REMARK    4  A    between atoms: C_9  and  S_10
REMARK    5  A    between atoms: S_10  and  N_13
REMARK    6  A    between atoms: N_13  and  C_14
REMARK    7  A    between atoms: C_17  and  O_18
REMARK    8  A    between atoms: O_18  and  C_19
REMARK                            x       y       z     vdW  Elec       q    Type
REMARK                         _______ _______ _______ _____ _____    ______ ____
ROOT
ATOM      1  C   UNL     1       2.929   5.802  19.170  0.00  0.00    +0.000 A 
ATOM      2  C   UNL     1       3.301   6.564  18.059  0.00  0.00    +0.000 A 
ATOM      3  C   UNL     1       2.892   7.894  17.962  0.00  0.00    +0.000 A 
ATOM      4  C   UNL     1       2.108   8.447  18.975  0.00  0.00    +0.000 A 
ATOM      5  C   UNL     1       1.780   7.707  20.110  0.00  0.00    +0.000 A 
ATOM      6  C   UNL     1       2.190   6.376  20.203  0.00  0.00    +0.000 A 
ENDROOT
BRANCH   1   7
ATOM      7  N   UNL     1       3.329   4.444  19.270  0.00  0.00    +0.000 N 
ATOM      8  H   UNL     1       2.980   3.907  20.063  0.00  0.00    +0.000 HD
BRANCH   7   9
ATOM      9  S   UNL     1       3.308   3.484  17.879  0.00  0.00    +0.000 S 
ATOM     10  O   UNL     1       2.136   3.846  17.106  0.00  0.00    +0.000 OA
ATOM     11  O   UNL     1       3.488   2.108  18.322  0.00  0.00    +0.000 OA
BRANCH   9  18
ATOM     12  C   UNL     1       5.943   4.309  17.610  0.00  0.00    +0.000 A 
ATOM     13  C   UNL     1       7.083   4.541  16.827  0.00  0.00    +0.000 A 
ATOM     14  C   UNL     1       7.024   4.470  15.430  0.00  0.00    +0.000 A 
ATOM     15  C   UNL     1       5.825   4.165  14.786  0.00  0.00    +0.000 A 
ATOM     16  C   UNL     1       5.750   4.084  13.291  0.00  0.00    +0.000 C 
ATOM     17  C   UNL     1       4.690   3.904  15.561  0.00  0.00    +0.000 A 
ATOM     18  C   UNL     1       4.751   3.962  16.963  0.00  0.00    +0.000 A 
BRANCH  12  20
ATOM     19  C   UNL     1       6.763   5.393  19.560  0.00  0.00    +0.000 C 
ATOM     20  O   UNL     1       5.952   4.375  18.978  0.00  0.00    +0.000 OA
ENDBRANCH  12  20
ENDBRANCH   9  18
ENDBRANCH   7   9
ENDBRANCH   1   7
BRANCH   4  21
ATOM     21  O   UNL     1       1.748   9.799  18.819  0.00  0.00    +0.000 OA
BRANCH  21  22
ATOM     22  C   UNL     1       0.431  10.158  18.576  0.00  0.00    +0.000 A 
ATOM     23  N   UNL     1      -0.220   9.962  17.464  0.00  0.00    +0.000 NA
ATOM     24  C   UNL     1      -1.580  10.355  17.409  0.00  0.00    +0.000 A 
ATOM     25  C   UNL     1      -2.306  10.100  16.247  0.00  0.00    +0.000 A 
ATOM     26  C   UNL     1      -3.673  10.367  16.213  0.00  0.00    +0.000 A 
ATOM     27  F   UNL     1      -4.365  10.100  15.096  0.00  0.00    +0.000 F 
ATOM     28  C   UNL     1      -4.328  10.885  17.329  0.00  0.00    +0.000 A 
ATOM     29  F   UNL     1      -5.656  11.060  17.308  0.00  0.00    +0.000 F 
ATOM     30  C   UNL     1      -3.621  11.216  18.479  0.00  0.00    +0.000 A 
ATOM     31  C   UNL     1      -2.248  10.969  18.494  0.00  0.00    +0.000 A 
ATOM     32  N   UNL     1      -1.442  11.282  19.593  0.00  0.00    +0.000 N 
ATOM     33  C   UNL     1      -1.629  12.083  20.677  0.00  0.00    +0.000 A 
ATOM     34  N   UNL     1      -0.587  11.978  21.476  0.00  0.00    +0.000 NA
ATOM     35  N   UNL     1       0.348  11.172  20.851  0.00  0.00    +0.000 NA
ATOM     36  C   UNL     1      -0.159  10.833  19.686  0.00  0.00    +0.000 A 
ENDBRANCH  21  22
ENDBRANCH   4  21
TORSDOF 6
ENDMDL
MODEL 6
REMARK VINA RESULT:      -9.1      1.982      3.253
REMARK  Name = 
REMARK  8 active torsions:
REMARK  status: ('A' for Active; 'I' for Inactive)
REMARK    1  A    between atoms: C_1  and  O_2
REMARK    2  A    between atoms: O_2  and  C_3
REMARK    3  A    between atoms: C_6  and  C_7
REMARK    4  A    between atoms: C_9  and  S_10
REMARK    5  A    between atoms: S_10  and  N_13
REMARK    6  A    between atoms: N_13  and  C_14
REMARK    7  A    between atoms: C_17  and  O_18
REMARK    8  A    between atoms: O_18  and  C_19
REMARK                            x       y       z     vdW  Elec       q    Type
REMARK                         _______ _______ _______ _____ _____    ______ ____
ROOT
ATOM      1  C   UNL     1       2.979   6.708  19.369  0.00  0.00    +0.000 A 
ATOM      2  C   UNL     1       3.146   7.339  18.134  0.00  0.00    +0.000 A 
ATOM      3  C   UNL     1       2.398   8.477  17.830  0.00  0.00    +0.000 A 
ATOM      4  C   UNL     1       1.484   8.967  18.763  0.00  0.00    +0.000 A 
ATOM      5  C   UNL     1       1.352   8.371  20.017  0.00  0.00    +0.000 A 
ATOM      6  C   UNL     1       2.102   7.233  20.317  0.00  0.00    +0.000 A 
ENDROOT
BRANCH   1   7
ATOM      7  N   UNL     1       3.726   5.542  19.681  0.00  0.00    +0.000 N 
ATOM      8  H   UNL     1       3.716   5.220  20.648  0.00  0.00    +0.000 HD
BRANCH   7   9
ATOM      9  S   UNL     1       3.637   4.214  18.640  0.00  0.00    +0.000 S 
ATOM     10  O   UNL     1       2.404   4.322  17.884  0.00  0.00    +0.000 OA
ATOM     11  O   UNL     1       3.889   3.032  19.452  0.00  0.00    +0.000 OA
BRANCH   9  18
ATOM     12  C   UNL     1       6.287   4.706  17.980  0.00  0.00    +0.000 A 
ATOM     13  C   UNL     1       7.340   4.712  17.055  0.00  0.00    +0.000 A 
ATOM     14  C   UNL     1       7.109   4.472  15.696  0.00  0.00    +0.000 A 
ATOM     15  C   UNL     1       5.817   4.220  15.232  0.00  0.00    +0.000 A 
ATOM     16  C   UNL     1       5.556   3.960  13.778  0.00  0.00    +0.000 C 
ATOM     17  C   UNL     1       4.764   4.185  16.152  0.00  0.00    +0.000 A 
ATOM     18  C   UNL     1       4.998   4.413  17.518  0.00  0.00    +0.000 A 
BRANCH  12  20
ATOM     19  C   UNL     1       7.644   5.658  19.684  0.00  0.00    +0.000 C 
ATOM     20  O   UNL     1       6.466   4.944  19.316  0.00  0.00    +0.000 OA
ENDBRANCH  12  20
ENDBRANCH   9  18
ENDBRANCH   7   9
ENDBRANCH   1   7
BRANCH   4  21
ATOM     21  O   UNL     1       0.778  10.128  18.395  0.00  0.00    +0.000 OA
BRANCH  21  22
ATOM     22  C   UNL     1       1.216  11.381  18.796  0.00  0.00    +0.000 A 
ATOM     23  N   UNL     1       2.223  12.034  18.290  0.00  0.00    +0.000 NA
ATOM     24  C   UNL     1       2.500  13.329  18.794  0.00  0.00    +0.000 A 
ATOM     25  C   UNL     1       3.539  14.064  18.224  0.00  0.00    +0.000 A 
ATOM     26  C   UNL     1       3.752  15.383  18.620  0.00  0.00    +0.000 A 
ATOM     27  F   UNL     1       4.741  16.086  18.051  0.00  0.00    +0.000 F 
ATOM     28  C   UNL     1       2.938  15.980  19.581  0.00  0.00    +0.000 A 
ATOM     29  F   UNL     1       3.104  17.272  19.893  0.00  0.00    +0.000 F 
ATOM     30  C   UNL     1       1.940  15.253  20.220  0.00  0.00    +0.000 A 
ATOM     31  C   UNL     1       1.751  13.926  19.834  0.00  0.00    +0.000 A 
ATOM     32  N   UNL     1       0.788  13.103  20.426  0.00  0.00    +0.000 N 
ATOM     33  C   UNL     1       0.075  13.199  21.581  0.00  0.00    +0.000 A 
ATOM     34  N   UNL     1      -0.772  12.193  21.650  0.00  0.00    +0.000 NA
ATOM     35  N   UNL     1      -0.537  11.365  20.567  0.00  0.00    +0.000 NA
ATOM     36  C   UNL     1       0.459  11.893  19.892  0.00  0.00    +0.000 A 
ENDBRANCH  21  22
ENDBRANCH   4  21
TORSDOF 6
ENDMDL
MODEL 7
REMARK VINA RESULT:      -9.1      1.410      2.430
REMARK  Name = 
REMARK  8 active torsions:
REMARK  status: ('A' for Active; 'I' for Inactive)
REMARK    1  A    between atoms: C_1  and  O_2
REMARK    2  A    between atoms: O_2  and  C_3
REMARK    3  A    between atoms: C_6  and  C_7
REMARK    4  A    between atoms: C_9  and  S_10
REMARK    5  A    between atoms: S_10  and  N_13
REMARK    6  A    between atoms: N_13  and  C_14
REMARK    7  A    between atoms: C_17  and  O_18
REMARK    8  A    between atoms: O_18  and  C_19
REMARK                            x       y       z     vdW  Elec       q    Type
REMARK                         _______ _______ _______ _____ _____    ______ ____
ROOT
ATOM      1  C   UNL     1       3.188   6.441  19.384  0.00  0.00    +0.000 A 
ATOM      2  C   UNL     1       2.118   7.009  20.081  0.00  0.00    +0.000 A 
ATOM      3  C   UNL     1       1.474   8.135  19.566  0.00  0.00    +0.000 A 
ATOM      4  C   UNL     1       1.913   8.686  18.362  0.00  0.00    +0.000 A 
ATOM      5  C   UNL     1       2.945   8.093  17.637  0.00  0.00    +0.000 A 
ATOM      6  C   UNL     1       3.587   6.966  18.156  0.00  0.00    +0.000 A 
ENDROOT
BRANCH   1   7
ATOM      7  N   UNL     1       3.857   5.304  19.907  0.00  0.00    +0.000 N 
ATOM      8  H   UNL     1       3.670   5.052  20.877  0.00  0.00    +0.000 HD
BRANCH   7   9
ATOM      9  S   UNL     1       3.946   3.906  18.963  0.00  0.00    +0.000 S 
ATOM     10  O   UNL     1       2.664   3.726  18.310  0.00  0.00    +0.000 OA
ATOM     11  O   UNL     1       4.475   2.857  19.825  0.00  0.00    +0.000 OA
BRANCH   9  18
ATOM     12  C   UNL     1       6.454   4.677  18.061  0.00  0.00    +0.000 A 
ATOM     13  C   UNL     1       7.403   4.807  17.037  0.00  0.00    +0.000 A 
ATOM     14  C   UNL     1       7.061   4.571  15.701  0.00  0.00    +0.000 A 
ATOM     15  C   UNL     1       5.761   4.197  15.359  0.00  0.00    +0.000 A 
ATOM     16  C   UNL     1       5.382   3.938  13.931  0.00  0.00    +0.000 C 
ATOM     17  C   UNL     1       4.814   4.038  16.377  0.00  0.00    +0.000 A 
ATOM     18  C   UNL     1       5.161   4.263  17.719  0.00  0.00    +0.000 A 
BRANCH  12  20
ATOM     19  C   UNL     1       7.899   5.695  19.650  0.00  0.00    +0.000 C 
ATOM     20  O   UNL     1       6.742   4.907  19.379  0.00  0.00    +0.000 OA
ENDBRANCH  12  20
ENDBRANCH   9  18
ENDBRANCH   7   9
ENDBRANCH   1   7
BRANCH   4  21
ATOM     21  O   UNL     1       1.205   9.810  17.895  0.00  0.00    +0.000 OA
BRANCH  21  22
ATOM     22  C   UNL     1       0.316  10.481  18.720  0.00  0.00    +0.000 A 
ATOM     23  N   UNL     1       0.601  11.011  19.876  0.00  0.00    +0.000 NA
ATOM     24  C   UNL     1      -0.427  11.703  20.565  0.00  0.00    +0.000 A 
ATOM     25  C   UNL     1      -0.124  12.323  21.776  0.00  0.00    +0.000 A 
ATOM     26  C   UNL     1      -1.085  13.109  22.409  0.00  0.00    +0.000 A 
ATOM     27  F   UNL     1      -0.776  13.717  23.563  0.00  0.00    +0.000 F 
ATOM     28  C   UNL     1      -2.348  13.286  21.847  0.00  0.00    +0.000 A 
ATOM     29  F   UNL     1      -3.233  14.108  22.426  0.00  0.00    +0.000 F 
ATOM     30  C   UNL     1      -2.705  12.623  20.678  0.00  0.00    +0.000 A 
ATOM     31  C   UNL     1      -1.744  11.819  20.065  0.00  0.00    +0.000 A 
ATOM     32  N   UNL     1      -2.007  11.096  18.897  0.00  0.00    +0.000 N 
ATOM     33  C   UNL     1      -3.162  10.739  18.271  0.00  0.00    +0.000 A 
ATOM     34  N   UNL     1      -2.870  10.121  17.146  0.00  0.00    +0.000 NA
ATOM     35  N   UNL     1      -1.495   9.978  17.084  0.00  0.00    +0.000 NA
ATOM     36  C   UNL     1      -1.007  10.502  18.187  0.00  0.00    +0.000 A 
ENDBRANCH  21  22
ENDBRANCH   4  21
TORSDOF 6
ENDMDL
MODEL 8
REMARK VINA RESULT:      -9.0      2.287      3.467
REMARK  Name = 
REMARK  8 active torsions:
REMARK  status: ('A' for Active; 'I' for Inactive)
REMARK    1  A    between atoms: C_1  and  O_2
REMARK    2  A    between atoms: O_2  and  C_3
REMARK    3  A    between atoms: C_6  and  C_7
REMARK    4  A    between atoms: C_9  and  S_10
REMARK    5  A    between atoms: S_10  and  N_13
REMARK    6  A    between atoms: N_13  and  C_14
REMARK    7  A    between atoms: C_17  and  O_18
REMARK    8  A    between atoms: O_18  and  C_19
REMARK                            x       y       z     vdW  Elec       q    Type
REMARK                         _______ _______ _______ _____ _____    ______ ____
ROOT
ATOM      1  C   UNL     1       2.898   6.883  19.383  0.00  0.00    +0.000 A 
ATOM      2  C   UNL     1       2.011   7.346  20.358  0.00  0.00    +0.000 A 
ATOM      3  C   UNL     1       1.164   8.418  20.073  0.00  0.00    +0.000 A 
ATOM      4  C   UNL     1       1.220   9.021  18.816  0.00  0.00    +0.000 A 
ATOM      5  C   UNL     1       2.066   8.529  17.823  0.00  0.00    +0.000 A 
ATOM      6  C   UNL     1       2.911   7.457  18.113  0.00  0.00    +0.000 A 
ENDROOT
BRANCH   1   7
ATOM      7  N   UNL     1       3.772   5.802  19.669  0.00  0.00    +0.000 N 
ATOM      8  H   UNL     1       3.906   5.550  20.648  0.00  0.00    +0.000 HD
BRANCH   7   9
ATOM      9  S   UNL     1       3.669   4.402  18.731  0.00  0.00    +0.000 S 
ATOM     10  O   UNL     1       2.431   4.458  17.979  0.00  0.00    +0.000 OA
ATOM     11  O   UNL     1       3.923   3.282  19.627  0.00  0.00    +0.000 OA
BRANCH   9  18
ATOM     12  C   UNL     1       6.330   4.752  18.025  0.00  0.00    +0.000 A 
ATOM     13  C   UNL     1       7.370   4.686  17.087  0.00  0.00    +0.000 A 
ATOM     14  C   UNL     1       7.108   4.426  15.738  0.00  0.00    +0.000 A 
ATOM     15  C   UNL     1       5.800   4.224  15.296  0.00  0.00    +0.000 A 
ATOM     16  C   UNL     1       5.507   3.942  13.853  0.00  0.00    +0.000 C 
ATOM     17  C   UNL     1       4.759   4.260  16.230  0.00  0.00    +0.000 A 
ATOM     18  C   UNL     1       5.023   4.509  17.587  0.00  0.00    +0.000 A 
BRANCH  12  20
ATOM     19  C   UNL     1       7.744   5.698  19.686  0.00  0.00    +0.000 C 
ATOM     20  O   UNL     1       6.538   5.013  19.353  0.00  0.00    +0.000 OA
ENDBRANCH  12  20
ENDBRANCH   9  18
ENDBRANCH   7   9
ENDBRANCH   1   7
BRANCH   4  21
ATOM     21  O   UNL     1       0.324  10.084  18.594  0.00  0.00    +0.000 OA
BRANCH  21  22
ATOM     22  C   UNL     1       0.741  11.401  18.724  0.00  0.00    +0.000 A 
ATOM     23  N   UNL     1       1.929  11.856  18.442  0.00  0.00    +0.000 NA
ATOM     24  C   UNL     1       2.164  13.245  18.592  0.00  0.00    +0.000 A 
ATOM     25  C   UNL     1       3.412  13.757  18.241  0.00  0.00    +0.000 A 
ATOM     26  C   UNL     1       3.628  15.133  18.266  0.00  0.00    +0.000 A 
ATOM     27  F   UNL     1       4.826  15.615  17.908  0.00  0.00    +0.000 F 
ATOM     28  C   UNL     1       2.609  16.009  18.637  0.00  0.00    +0.000 A 
ATOM     29  F   UNL     1       2.806  17.333  18.579  0.00  0.00    +0.000 F 
ATOM     30  C   UNL     1       1.376  15.527  19.062  0.00  0.00    +0.000 A 
ATOM     31  C   UNL     1       1.179  14.146  19.057  0.00  0.00    +0.000 A 
ATOM     32  N   UNL     1      -0.017  13.559  19.481  0.00  0.00    +0.000 N 
ATOM     33  C   UNL     1      -1.066  14.023  20.213  0.00  0.00    +0.000 A 
ATOM     34  N   UNL     1      -1.996  13.093  20.274  0.00  0.00    +0.000 NA
ATOM     35  N   UNL     1      -1.501  11.958  19.657  0.00  0.00    +0.000 NA
ATOM     36  C   UNL     1      -0.281  12.240  19.260  0.00  0.00    +0.000 A 
ENDBRANCH  21  22
ENDBRANCH   4  21
TORSDOF 6
ENDMDL
MODEL 9
REMARK VINA RESULT:      -8.8      2.439      3.180
REMARK  Name = 
REMARK  8 active torsions:
REMARK  status: ('A' for Active; 'I' for Inactive)
REMARK    1  A    between atoms: C_1  and  O_2
REMARK    2  A    between atoms: O_2  and  C_3
REMARK    3  A    between atoms: C_6  and  C_7
REMARK    4  A    between atoms: C_9  and  S_10
REMARK    5  A    between atoms: S_10  and  N_13
REMARK    6  A    between atoms: N_13  and  C_14
REMARK    7  A    between atoms: C_17  and  O_18
REMARK    8  A    between atoms: O_18  and  C_19
REMARK                            x       y       z     vdW  Elec       q    Type
REMARK                         _______ _______ _______ _____ _____    ______ ____
ROOT
ATOM      1  C   UNL     1       2.405   6.279  18.609  0.00  0.00    +0.000 A 
ATOM      2  C   UNL     1       2.657   7.260  17.647  0.00  0.00    +0.000 A 
ATOM      3  C   UNL     1       2.349   8.593  17.917  0.00  0.00    +0.000 A 
ATOM      4  C   UNL     1       1.783   8.931  19.147  0.00  0.00    +0.000 A 
ATOM      5  C   UNL     1       1.578   7.964  20.130  0.00  0.00    +0.000 A 
ATOM      6  C   UNL     1       1.888   6.631  19.855  0.00  0.00    +0.000 A 
ENDROOT
BRANCH   1   7
ATOM      7  N   UNL     1       2.703   4.918  18.337  0.00  0.00    +0.000 N 
ATOM      8  H   UNL     1       2.526   4.577  17.393  0.00  0.00    +0.000 HD
BRANCH   7   9
ATOM      9  S   UNL     1       4.154   4.272  18.913  0.00  0.00    +0.000 S 
ATOM     10  O   UNL     1       3.942   2.861  19.173  0.00  0.00    +0.000 OA
ATOM     11  O   UNL     1       4.600   5.148  19.988  0.00  0.00    +0.000 OA
BRANCH   9  18
ATOM     12  C   UNL     1       6.668   4.608  17.789  0.00  0.00    +0.000 A 
ATOM     13  C   UNL     1       7.532   4.583  16.685  0.00  0.00    +0.000 A 
ATOM     14  C   UNL     1       7.038   4.423  15.386  0.00  0.00    +0.000 A 
ATOM     15  C   UNL     1       5.667   4.284  15.161  0.00  0.00    +0.000 A 
ATOM     16  C   UNL     1       5.126   4.110  13.774  0.00  0.00    +0.000 C 
ATOM     17  C   UNL     1       4.800   4.280  16.259  0.00  0.00    +0.000 A 
ATOM     18  C   UNL     1       5.298   4.426  17.565  0.00  0.00    +0.000 A 
BRANCH  12  20
ATOM     19  C   UNL     1       7.939   5.900  19.327  0.00  0.00    +0.000 C 
ATOM     20  O   UNL     1       7.106   4.770  19.075  0.00  0.00    +0.000 OA
ENDBRANCH  12  20
ENDBRANCH   9  18
ENDBRANCH   7   9
ENDBRANCH   1   7
BRANCH   4  21
ATOM     21  O   UNL     1       1.514  10.297  19.357  0.00  0.00    +0.000 OA
BRANCH  21  22
ATOM     22  C   UNL     1       0.219  10.786  19.278  0.00  0.00    +0.000 A 
ATOM     23  N   UNL     1      -0.586  10.648  18.262  0.00  0.00    +0.000 NA
ATOM     24  C   UNL     1      -1.897  11.175  18.374  0.00  0.00    +0.000 A 
ATOM     25  C   UNL     1      -2.789  10.987  17.320  0.00  0.00    +0.000 A 
ATOM     26  C   UNL     1      -4.116  11.389  17.456  0.00  0.00    +0.000 A 
ATOM     27  F   UNL     1      -4.970  11.186  16.443  0.00  0.00    +0.000 F 
ATOM     28  C   UNL     1      -4.566  11.979  18.636  0.00  0.00    +0.000 A 
ATOM     29  F   UNL     1      -5.862  12.287  18.782  0.00  0.00    +0.000 F 
ATOM     30  C   UNL     1      -3.686  12.246  19.679  0.00  0.00    +0.000 A 
ATOM     31  C   UNL     1      -2.354  11.861  19.523  0.00  0.00    +0.000 A 
ATOM     32  N   UNL     1      -1.386  12.100  20.503  0.00  0.00    +0.000 N 
ATOM     33  C   UNL     1      -1.351  12.923  21.585  0.00  0.00    +0.000 A 
ATOM     34  N   UNL     1      -0.230  12.720  22.246  0.00  0.00    +0.000 NA
ATOM     35  N   UNL     1       0.532  11.819  21.523  0.00  0.00    +0.000 NA
ATOM     36  C   UNL     1      -0.153  11.524  20.440  0.00  0.00    +0.000 A 
ENDBRANCH  21  22
ENDBRANCH   4  21
TORSDOF 6
ENDMDL
