MODEL 1
REMARK VINA RESULT:      -7.5      0.000      0.000
REMARK  Name = 
REMARK  12 active torsions:
REMARK  status: ('A' for Active; 'I' for Inactive)
REMARK    1  A    between atoms: C_2  and  C_3
REMARK    2  A    between atoms: C_3  and  C_4
REMARK    3  A    between atoms: C_7  and  O_8
REMARK    4  A    between atoms: O_8  and  C_9
REMARK    5  A    between atoms: C_9  and  C_11
REMARK    6  A    between atoms: C_11  and  O_12
REMARK    7  A    between atoms: O_12  and  C_13
REMARK    8  A    between atoms: C_13  and  C_15
REMARK    9  A    between atoms: C_16  and  C_17
REMARK   10  A    between atoms: C_20  and  O_21
REMARK   11  A    between atoms: C_24  and  O_25
REMARK   12  A    between atoms: O_25  and  C_26
REMARK                            x       y       z     vdW  Elec       q    Type
REMARK                         _______ _______ _______ _____ _____    ______ ____
ROOT
ATOM      1  C   UNL     1       2.892   2.368  18.054  0.00  0.00    +0.000 C 
ATOM      2  O   UNL     1       3.444   1.348  18.424  0.00  0.00    +0.000 OA
ENDROOT
BRANCH   1   3
ATOM      3  O   UNL     1       3.384   3.288  17.109  0.00  0.00    +0.000 OA
BRANCH   3   7
ATOM      4  C   UNL     1       6.694   5.750  18.137  0.00  0.00    +0.000 A 
ATOM      5  C   UNL     1       5.918   5.124  19.121  0.00  0.00    +0.000 A 
ATOM      6  C   UNL     1       4.838   4.307  18.767  0.00  0.00    +0.000 A 
ATOM      7  C   UNL     1       4.544   4.060  17.424  0.00  0.00    +0.000 A 
ATOM      8  C   UNL     1       5.306   4.676  16.416  0.00  0.00    +0.000 A 
ATOM      9  C   UNL     1       6.356   5.541  16.786  0.00  0.00    +0.000 A 
BRANCH   8  10
ATOM     10  O   UNL     1       5.058   4.321  15.117  0.00  0.00    +0.000 OA
ATOM     11  C   UNL     1       6.158   3.791  14.380  0.00  0.00    +0.000 C 
ENDBRANCH   8  10
BRANCH   4  12
ATOM     12  C   UNL     1       7.927   6.568  18.479  0.00  0.00    +0.000 C 
BRANCH  12  14
ATOM     13  C   UNL     1       7.468   8.921  17.718  0.00  0.00    +0.000 C 
ATOM     14  C   UNL     1       8.162   7.776  17.615  0.00  0.00    +0.000 C 
ENDBRANCH  12  14
ENDBRANCH   4  12
ENDBRANCH   3   7
ENDBRANCH   1   3
BRANCH   1  15
ATOM     15  C   UNL     1       1.583   2.883  18.654  0.00  0.00    +0.000 C 
BRANCH  15  16
ATOM     16  O   UNL     1       1.505   2.545  20.049  0.00  0.00    +0.000 OA
BRANCH  16  17
ATOM     17  C   UNL     1       1.899   3.539  20.887  0.00  0.00    +0.000 C 
ATOM     18  O   UNL     1       2.135   3.419  22.073  0.00  0.00    +0.000 OA
BRANCH  17  19
ATOM     19  C   UNL     1       1.957   4.804  20.119  0.00  0.00    +0.000 C 
ATOM     20  C   UNL     1       1.761   5.988  20.723  0.00  0.00    +0.000 C 
BRANCH  20  21
ATOM     21  C   UNL     1       1.721   7.292  20.032  0.00  0.00    +0.000 A 
ATOM     22  C   UNL     1       1.077   8.376  20.654  0.00  0.00    +0.000 A 
ATOM     23  C   UNL     1       0.973   9.618  20.015  0.00  0.00    +0.000 A 
ATOM     24  C   UNL     1       1.536   9.790  18.757  0.00  0.00    +0.000 A 
ATOM     25  C   UNL     1       2.198   8.741  18.133  0.00  0.00    +0.000 A 
ATOM     26  C   UNL     1       2.297   7.499  18.770  0.00  0.00    +0.000 A 
BRANCH  24  27
ATOM     27  O   UNL     1       1.458  10.978  18.094  0.00  0.00    +0.000 OA
ATOM     28  H   UNL     1       2.303  11.140  17.642  0.00  0.00    +0.000 HD
ENDBRANCH  24  27
ENDBRANCH  20  21
ENDBRANCH  17  19
ENDBRANCH  16  17
ENDBRANCH  15  16
ENDBRANCH   1  15
TORSDOF 11
ENDMDL
MODEL 2
REMARK VINA RESULT:      -7.4      3.612      7.216
REMARK  Name = 
REMARK  12 active torsions:
REMARK  status: ('A' for Active; 'I' for Inactive)
REMARK    1  A    between atoms: C_2  and  C_3
REMARK    2  A    between atoms: C_3  and  C_4
REMARK    3  A    between atoms: C_7  and  O_8
REMARK    4  A    between atoms: O_8  and  C_9
REMARK    5  A    between atoms: C_9  and  C_11
REMARK    6  A    between atoms: C_11  and  O_12
REMARK    7  A    between atoms: O_12  and  C_13
REMARK    8  A    between atoms: C_13  and  C_15
REMARK    9  A    between atoms: C_16  and  C_17
REMARK   10  A    between atoms: C_20  and  O_21
REMARK   11  A    between atoms: C_24  and  O_25
REMARK   12  A    between atoms: O_25  and  C_26
REMARK                            x       y       z     vdW  Elec       q    Type
REMARK                         _______ _______ _______ _____ _____    ______ ____
ROOT
ATOM      1  C   UNL     1       7.482   4.906  18.040  0.00  0.00    +0.000 C 
ATOM      2  O   UNL     1       8.414   4.167  17.784  0.00  0.00    +0.000 OA
ENDROOT
BRANCH   1   3
ATOM      3  O   UNL     1       6.215   4.897  17.425  0.00  0.00    +0.000 OA
BRANCH   3   7
ATOM      4  C   UNL     1       2.681   4.265  19.701  0.00  0.00    +0.000 A 
ATOM      5  C   UNL     1       3.763   3.378  19.773  0.00  0.00    +0.000 A 
ATOM      6  C   UNL     1       4.925   3.606  19.027  0.00  0.00    +0.000 A 
ATOM      7  C   UNL     1       5.047   4.748  18.233  0.00  0.00    +0.000 A 
ATOM      8  C   UNL     1       3.976   5.655  18.142  0.00  0.00    +0.000 A 
ATOM      9  C   UNL     1       2.791   5.385  18.855  0.00  0.00    +0.000 A 
BRANCH   8  10
ATOM     10  O   UNL     1       4.177   6.816  17.444  0.00  0.00    +0.000 OA
ATOM     11  C   UNL     1       3.187   7.831  17.598  0.00  0.00    +0.000 C 
ENDBRANCH   8  10
BRANCH   4  12
ATOM     12  C   UNL     1       1.443   4.101  20.564  0.00  0.00    +0.000 C 
BRANCH  12  14
ATOM     13  C   UNL     1       0.463   2.398  18.996  0.00  0.00    +0.000 C 
ATOM     14  C   UNL     1       0.569   2.926  20.226  0.00  0.00    +0.000 C 
ENDBRANCH  12  14
ENDBRANCH   4  12
ENDBRANCH   3   7
ENDBRANCH   1   3
BRANCH   1  15
ATOM     15  C   UNL     1       7.575   6.070  19.027  0.00  0.00    +0.000 C 
BRANCH  15  16
ATOM     16  O   UNL     1       8.419   7.108  18.499  0.00  0.00    +0.000 OA
BRANCH  16  17
ATOM     17  C   UNL     1       7.800   7.936  17.619  0.00  0.00    +0.000 C 
ATOM     18  O   UNL     1       7.043   7.595  16.731  0.00  0.00    +0.000 OA
BRANCH  17  19
ATOM     19  C   UNL     1       8.231   9.325  17.899  0.00  0.00    +0.000 C 
ATOM     20  C   UNL     1       9.005   9.608  18.960  0.00  0.00    +0.000 C 
BRANCH  20  21
ATOM     21  C   UNL     1       9.420  10.966  19.364  0.00  0.00    +0.000 A 
ATOM     22  C   UNL     1       9.403  11.998  18.411  0.00  0.00    +0.000 A 
ATOM     23  C   UNL     1       9.832  13.291  18.737  0.00  0.00    +0.000 A 
ATOM     24  C   UNL     1      10.259  13.563  20.031  0.00  0.00    +0.000 A 
ATOM     25  C   UNL     1      10.263  12.566  20.996  0.00  0.00    +0.000 A 
ATOM     26  C   UNL     1       9.838  11.274  20.667  0.00  0.00    +0.000 A 
BRANCH  24  27
ATOM     27  O   UNL     1      10.690  14.804  20.396  0.00  0.00    +0.000 OA
ATOM     28  H   UNL     1      11.658  14.787  20.478  0.00  0.00    +0.000 HD
ENDBRANCH  24  27
ENDBRANCH  20  21
ENDBRANCH  17  19
ENDBRANCH  16  17
ENDBRANCH  15  16
ENDBRANCH   1  15
TORSDOF 11
ENDMDL
MODEL 3
REMARK VINA RESULT:      -7.3      1.403      2.694
REMARK  Name = 
REMARK  12 active torsions:
REMARK  status: ('A' for Active; 'I' for Inactive)
REMARK    1  A    between atoms: C_2  and  C_3
REMARK    2  A    between atoms: C_3  and  C_4
REMARK    3  A    between atoms: C_7  and  O_8
REMARK    4  A    between atoms: O_8  and  C_9
REMARK    5  A    between atoms: C_9  and  C_11
REMARK    6  A    between atoms: C_11  and  O_12
REMARK    7  A    between atoms: O_12  and  C_13
REMARK    8  A    between atoms: C_13  and  C_15
REMARK    9  A    between atoms: C_16  and  C_17
REMARK   10  A    between atoms: C_20  and  O_21
REMARK   11  A    between atoms: C_24  and  O_25
REMARK   12  A    between atoms: O_25  and  C_26
REMARK                            x       y       z     vdW  Elec       q    Type
REMARK                         _______ _______ _______ _____ _____    ______ ____
ROOT
ATOM      1  C   UNL     1       3.457   2.327  18.612  0.00  0.00    +0.000 C 
ATOM      2  O   UNL     1       3.850   1.212  18.322  0.00  0.00    +0.000 OA
ENDROOT
BRANCH   1   3
ATOM      3  O   UNL     1       4.255   3.471  18.800  0.00  0.00    +0.000 OA
BRANCH   3   7
ATOM      4  C   UNL     1       6.491   4.815  15.444  0.00  0.00    +0.000 A 
ATOM      5  C   UNL     1       5.228   4.229  15.291  0.00  0.00    +0.000 A 
ATOM      6  C   UNL     1       4.498   3.803  16.406  0.00  0.00    +0.000 A 
ATOM      7  C   UNL     1       4.994   3.997  17.697  0.00  0.00    +0.000 A 
ATOM      8  C   UNL     1       6.260   4.582  17.879  0.00  0.00    +0.000 A 
ATOM      9  C   UNL     1       7.008   4.957  16.746  0.00  0.00    +0.000 A 
BRANCH   8  10
ATOM     10  O   UNL     1       6.660   4.857  19.160  0.00  0.00    +0.000 OA
ATOM     11  C   UNL     1       7.802   5.700  19.303  0.00  0.00    +0.000 C 
ENDBRANCH   8  10
BRANCH   4  12
ATOM     12  C   UNL     1       7.271   5.373  14.267  0.00  0.00    +0.000 C 
BRANCH  12  14
ATOM     13  C   UNL     1       6.961   4.456  11.946  0.00  0.00    +0.000 C 
ATOM     14  C   UNL     1       7.546   4.401  13.154  0.00  0.00    +0.000 C 
ENDBRANCH  12  14
ENDBRANCH   4  12
ENDBRANCH   3   7
ENDBRANCH   1   3
BRANCH   1  15
ATOM     15  C   UNL     1       1.996   2.649  18.932  0.00  0.00    +0.000 C 
BRANCH  15  16
ATOM     16  O   UNL     1       1.690   2.287  20.290  0.00  0.00    +0.000 OA
BRANCH  16  17
ATOM     17  C   UNL     1       1.694   3.330  21.159  0.00  0.00    +0.000 C 
ATOM     18  O   UNL     1       1.859   3.254  22.361  0.00  0.00    +0.000 OA
BRANCH  17  19
ATOM     19  C   UNL     1       1.425   4.573  20.401  0.00  0.00    +0.000 C 
ATOM     20  C   UNL     1       2.214   5.653  20.541  0.00  0.00    +0.000 C 
BRANCH  20  21
ATOM     21  C   UNL     1       1.981   6.958  19.891  0.00  0.00    +0.000 A 
ATOM     22  C   UNL     1       1.415   8.003  20.641  0.00  0.00    +0.000 A 
ATOM     23  C   UNL     1       1.134   9.244  20.054  0.00  0.00    +0.000 A 
ATOM     24  C   UNL     1       1.442   9.452  18.716  0.00  0.00    +0.000 A 
ATOM     25  C   UNL     1       2.023   8.443  17.961  0.00  0.00    +0.000 A 
ATOM     26  C   UNL     1       2.300   7.203  18.547  0.00  0.00    +0.000 A 
BRANCH  24  27
ATOM     27  O   UNL     1       1.184  10.640  18.098  0.00  0.00    +0.000 OA
ATOM     28  H   UNL     1       0.717  10.463  17.264  0.00  0.00    +0.000 HD
ENDBRANCH  24  27
ENDBRANCH  20  21
ENDBRANCH  17  19
ENDBRANCH  16  17
ENDBRANCH  15  16
ENDBRANCH   1  15
TORSDOF 11
ENDMDL
MODEL 4
REMARK VINA RESULT:      -7.3      3.206      7.039
REMARK  Name = 
REMARK  12 active torsions:
REMARK  status: ('A' for Active; 'I' for Inactive)
REMARK    1  A    between atoms: C_2  and  C_3
REMARK    2  A    between atoms: C_3  and  C_4
REMARK    3  A    between atoms: C_7  and  O_8
REMARK    4  A    between atoms: O_8  and  C_9
REMARK    5  A    between atoms: C_9  and  C_11
REMARK    6  A    between atoms: C_11  and  O_12
REMARK    7  A    between atoms: O_12  and  C_13
REMARK    8  A    between atoms: C_13  and  C_15
REMARK    9  A    between atoms: C_16  and  C_17
REMARK   10  A    between atoms: C_20  and  O_21
REMARK   11  A    between atoms: C_24  and  O_25
REMARK   12  A    between atoms: O_25  and  C_26
REMARK                            x       y       z     vdW  Elec       q    Type
REMARK                         _______ _______ _______ _____ _____    ______ ____
ROOT
ATOM      1  C   UNL     1       5.902   5.020  18.926  0.00  0.00    +0.000 C 
ATOM      2  O   UNL     1       6.341   5.263  20.035  0.00  0.00    +0.000 OA
ENDROOT
BRANCH   1   3
ATOM      3  O   UNL     1       4.553   4.794  18.592  0.00  0.00    +0.000 OA
BRANCH   3   7
ATOM      4  C   UNL     1       1.983   8.175  18.795  0.00  0.00    +0.000 A 
ATOM      5  C   UNL     1       2.888   8.008  17.737  0.00  0.00    +0.000 A 
ATOM      6  C   UNL     1       3.719   6.884  17.678  0.00  0.00    +0.000 A 
ATOM      7  C   UNL     1       3.629   5.881  18.646  0.00  0.00    +0.000 A 
ATOM      8  C   UNL     1       2.730   6.023  19.718  0.00  0.00    +0.000 A 
ATOM      9  C   UNL     1       1.938   7.186  19.796  0.00  0.00    +0.000 A 
BRANCH   8  10
ATOM     10  O   UNL     1       2.592   4.969  20.582  0.00  0.00    +0.000 OA
ATOM     11  C   UNL     1       1.349   4.270  20.540  0.00  0.00    +0.000 C 
ENDBRANCH   8  10
BRANCH   4  12
ATOM     12  C   UNL     1       1.003   9.332  18.845  0.00  0.00    +0.000 C 
BRANCH  12  14
ATOM     13  C   UNL     1       0.364  10.174  21.127  0.00  0.00    +0.000 C 
ATOM     14  C   UNL     1       1.138  10.245  20.032  0.00  0.00    +0.000 C 
ENDBRANCH  12  14
ENDBRANCH   4  12
ENDBRANCH   3   7
ENDBRANCH   1   3
BRANCH   1  15
ATOM     15  C   UNL     1       6.788   4.808  17.697  0.00  0.00    +0.000 C 
BRANCH  15  16
ATOM     16  O   UNL     1       7.840   5.787  17.664  0.00  0.00    +0.000 OA
BRANCH  16  17
ATOM     17  C   UNL     1       7.430   7.036  17.325  0.00  0.00    +0.000 C 
ATOM     18  O   UNL     1       6.580   7.307  16.500  0.00  0.00    +0.000 OA
BRANCH  17  19
ATOM     19  C   UNL     1       8.221   8.017  18.103  0.00  0.00    +0.000 C 
ATOM     20  C   UNL     1       8.134   9.334  17.848  0.00  0.00    +0.000 C 
BRANCH  20  21
ATOM     21  C   UNL     1       8.938  10.378  18.514  0.00  0.00    +0.000 A 
ATOM     22  C   UNL     1       9.330  11.510  17.780  0.00  0.00    +0.000 A 
ATOM     23  C   UNL     1      10.131  12.504  18.356  0.00  0.00    +0.000 A 
ATOM     24  C   UNL     1      10.526  12.379  19.682  0.00  0.00    +0.000 A 
ATOM     25  C   UNL     1      10.132  11.281  20.435  0.00  0.00    +0.000 A 
ATOM     26  C   UNL     1       9.334  10.288  19.856  0.00  0.00    +0.000 A 
BRANCH  24  27
ATOM     27  O   UNL     1      11.310  13.316  20.287  0.00  0.00    +0.000 OA
ATOM     28  H   UNL     1      12.222  12.982  20.328  0.00  0.00    +0.000 HD
ENDBRANCH  24  27
ENDBRANCH  20  21
ENDBRANCH  17  19
ENDBRANCH  16  17
ENDBRANCH  15  16
ENDBRANCH   1  15
TORSDOF 11
ENDMDL
MODEL 5
REMARK VINA RESULT:      -7.2      2.327      4.711
REMARK  Name = 
REMARK  12 active torsions:
REMARK  status: ('A' for Active; 'I' for Inactive)
REMARK    1  A    between atoms: C_2  and  C_3
REMARK    2  A    between atoms: C_3  and  C_4
REMARK    3  A    between atoms: C_7  and  O_8
REMARK    4  A    between atoms: O_8  and  C_9
REMARK    5  A    between atoms: C_9  and  C_11
REMARK    6  A    between atoms: C_11  and  O_12
REMARK    7  A    between atoms: O_12  and  C_13
REMARK    8  A    between atoms: C_13  and  C_15
REMARK    9  A    between atoms: C_16  and  C_17
REMARK   10  A    between atoms: C_20  and  O_21
REMARK   11  A    between atoms: C_24  and  O_25
REMARK   12  A    between atoms: O_25  and  C_26
REMARK                            x       y       z     vdW  Elec       q    Type
REMARK                         _______ _______ _______ _____ _____    ______ ____
ROOT
ATOM      1  C   UNL     1       6.611   6.231  17.152  0.00  0.00    +0.000 C 
ATOM      2  O   UNL     1       6.075   7.241  16.738  0.00  0.00    +0.000 OA
ENDROOT
BRANCH   1   3
ATOM      3  O   UNL     1       7.338   5.298  16.388  0.00  0.00    +0.000 OA
BRANCH   3   7
ATOM      4  C   UNL     1       5.693   3.567  12.870  0.00  0.00    +0.000 A 
ATOM      5  C   UNL     1       5.062   3.431  14.114  0.00  0.00    +0.000 A 
ATOM      6  C   UNL     1       5.609   4.016  15.261  0.00  0.00    +0.000 A 
ATOM      7  C   UNL     1       6.770   4.789  15.180  0.00  0.00    +0.000 A 
ATOM      8  C   UNL     1       7.423   4.942  13.945  0.00  0.00    +0.000 A 
ATOM      9  C   UNL     1       6.892   4.301  12.808  0.00  0.00    +0.000 A 
BRANCH   8  10
ATOM     10  O   UNL     1       8.491   5.797  13.886  0.00  0.00    +0.000 OA
ATOM     11  C   UNL     1       8.954   6.150  12.584  0.00  0.00    +0.000 C 
ENDBRANCH   8  10
BRANCH   4  12
ATOM     12  C   UNL     1       5.082   3.025  11.591  0.00  0.00    +0.000 C 
BRANCH  12  14
ATOM     13  C   UNL     1       3.220   3.660  10.024  0.00  0.00    +0.000 C 
ATOM     14  C   UNL     1       3.701   3.525  11.271  0.00  0.00    +0.000 C 
ENDBRANCH  12  14
ENDBRANCH   4  12
ENDBRANCH   3   7
ENDBRANCH   1   3
BRANCH   1  15
ATOM     15  C   UNL     1       6.487   5.741  18.596  0.00  0.00    +0.000 C 
BRANCH  15  16
ATOM     16  O   UNL     1       6.162   4.341  18.623  0.00  0.00    +0.000 OA
BRANCH  16  17
ATOM     17  C   UNL     1       4.968   4.056  19.202  0.00  0.00    +0.000 C 
ATOM     18  O   UNL     1       4.534   2.944  19.431  0.00  0.00    +0.000 OA
BRANCH  17  19
ATOM     19  C   UNL     1       4.264   5.330  19.475  0.00  0.00    +0.000 C 
ATOM     20  C   UNL     1       3.293   5.772  18.658  0.00  0.00    +0.000 C 
BRANCH  20  21
ATOM     21  C   UNL     1       2.590   7.062  18.802  0.00  0.00    +0.000 A 
ATOM     22  C   UNL     1       2.071   7.421  20.057  0.00  0.00    +0.000 A 
ATOM     23  C   UNL     1       1.356   8.614  20.230  0.00  0.00    +0.000 A 
ATOM     24  C   UNL     1       1.179   9.467  19.148  0.00  0.00    +0.000 A 
ATOM     25  C   UNL     1       1.703   9.146  17.903  0.00  0.00    +0.000 A 
ATOM     26  C   UNL     1       2.413   7.952  17.732  0.00  0.00    +0.000 A 
BRANCH  24  27
ATOM     27  O   UNL     1       0.488  10.636  19.264  0.00  0.00    +0.000 OA
ATOM     28  H   UNL     1      -0.446  10.471  19.050  0.00  0.00    +0.000 HD
ENDBRANCH  24  27
ENDBRANCH  20  21
ENDBRANCH  17  19
ENDBRANCH  16  17
ENDBRANCH  15  16
ENDBRANCH   1  15
TORSDOF 11
ENDMDL
MODEL 6
REMARK VINA RESULT:      -7.1      1.452      3.177
REMARK  Name = 
REMARK  12 active torsions:
REMARK  status: ('A' for Active; 'I' for Inactive)
REMARK    1  A    between atoms: C_2  and  C_3
REMARK    2  A    between atoms: C_3  and  C_4
REMARK    3  A    between atoms: C_7  and  O_8
REMARK    4  A    between atoms: O_8  and  C_9
REMARK    5  A    between atoms: C_9  and  C_11
REMARK    6  A    between atoms: C_11  and  O_12
REMARK    7  A    between atoms: O_12  and  C_13
REMARK    8  A    between atoms: C_13  and  C_15
REMARK    9  A    between atoms: C_16  and  C_17
REMARK   10  A    between atoms: C_20  and  O_21
REMARK   11  A    between atoms: C_24  and  O_25
REMARK   12  A    between atoms: O_25  and  C_26
REMARK                            x       y       z     vdW  Elec       q    Type
REMARK                         _______ _______ _______ _____ _____    ______ ____
ROOT
ATOM      1  C   UNL     1       3.847   3.148  18.410  0.00  0.00    +0.000 C 
ATOM      2  O   UNL     1       3.076   3.037  17.475  0.00  0.00    +0.000 OA
ENDROOT
BRANCH   1   3
ATOM      3  O   UNL     1       5.042   3.893  18.423  0.00  0.00    +0.000 OA
BRANCH   3   7
ATOM      4  C   UNL     1       6.828   4.746  14.661  0.00  0.00    +0.000 A 
ATOM      5  C   UNL     1       5.451   4.510  14.778  0.00  0.00    +0.000 A 
ATOM      6  C   UNL     1       4.876   4.242  16.025  0.00  0.00    +0.000 A 
ATOM      7  C   UNL     1       5.655   4.253  17.185  0.00  0.00    +0.000 A 
ATOM      8  C   UNL     1       7.038   4.487  17.096  0.00  0.00    +0.000 A 
ATOM      9  C   UNL     1       7.614   4.701  15.828  0.00  0.00    +0.000 A 
BRANCH   8  10
ATOM     10  O   UNL     1       7.745   4.601  18.263  0.00  0.00    +0.000 OA
ATOM     11  C   UNL     1       7.754   5.888  18.880  0.00  0.00    +0.000 C 
ENDBRANCH   8  10
BRANCH   4  12
ATOM     12  C   UNL     1       7.472   5.131  13.341  0.00  0.00    +0.000 C 
BRANCH  12  14
ATOM     13  C   UNL     1       6.542   3.124  12.145  0.00  0.00    +0.000 C 
ATOM     14  C   UNL     1       6.955   4.402  12.132  0.00  0.00    +0.000 C 
ENDBRANCH  12  14
ENDBRANCH   4  12
ENDBRANCH   3   7
ENDBRANCH   1   3
BRANCH   1  15
ATOM     15  C   UNL     1       3.691   2.384  19.726  0.00  0.00    +0.000 C 
BRANCH  15  16
ATOM     16  O   UNL     1       2.330   2.451  20.185  0.00  0.00    +0.000 OA
BRANCH  16  17
ATOM     17  C   UNL     1       2.105   3.401  21.128  0.00  0.00    +0.000 C 
ATOM     18  O   UNL     1       2.214   3.251  22.329  0.00  0.00    +0.000 OA
BRANCH  17  19
ATOM     19  C   UNL     1       1.668   4.642  20.449  0.00  0.00    +0.000 C 
ATOM     20  C   UNL     1       2.507   5.681  20.298  0.00  0.00    +0.000 C 
BRANCH  20  21
ATOM     21  C   UNL     1       2.141   6.984  19.708  0.00  0.00    +0.000 A 
ATOM     22  C   UNL     1       2.444   7.232  18.359  0.00  0.00    +0.000 A 
ATOM     23  C   UNL     1       2.158   8.470  17.769  0.00  0.00    +0.000 A 
ATOM     24  C   UNL     1       1.542   9.460  18.524  0.00  0.00    +0.000 A 
ATOM     25  C   UNL     1       1.212   9.231  19.853  0.00  0.00    +0.000 A 
ATOM     26  C   UNL     1       1.502   7.995  20.441  0.00  0.00    +0.000 A 
BRANCH  24  27
ATOM     27  O   UNL     1       1.247  10.682  17.998  0.00  0.00    +0.000 OA
ATOM     28  H   UNL     1       0.324  10.900  18.210  0.00  0.00    +0.000 HD
ENDBRANCH  24  27
ENDBRANCH  20  21
ENDBRANCH  17  19
ENDBRANCH  16  17
ENDBRANCH  15  16
ENDBRANCH   1  15
TORSDOF 11
ENDMDL
MODEL 7
REMARK VINA RESULT:      -7.1      2.944      6.951
REMARK  Name = 
REMARK  12 active torsions:
REMARK  status: ('A' for Active; 'I' for Inactive)
REMARK    1  A    between atoms: C_2  and  C_3
REMARK    2  A    between atoms: C_3  and  C_4
REMARK    3  A    between atoms: C_7  and  O_8
REMARK    4  A    between atoms: O_8  and  C_9
REMARK    5  A    between atoms: C_9  and  C_11
REMARK    6  A    between atoms: C_11  and  O_12
REMARK    7  A    between atoms: O_12  and  C_13
REMARK    8  A    between atoms: C_13  and  C_15
REMARK    9  A    between atoms: C_16  and  C_17
REMARK   10  A    between atoms: C_20  and  O_21
REMARK   11  A    between atoms: C_24  and  O_25
REMARK   12  A    between atoms: O_25  and  C_26
REMARK                            x       y       z     vdW  Elec       q    Type
REMARK                         _______ _______ _______ _____ _____    ______ ____
ROOT
ATOM      1  C   UNL     1       4.961   4.579  18.991  0.00  0.00    +0.000 C 
ATOM      2  O   UNL     1       5.343   3.490  19.377  0.00  0.00    +0.000 OA
ENDROOT
BRANCH   1   3
ATOM      3  O   UNL     1       3.719   4.865  18.393  0.00  0.00    +0.000 OA
BRANCH   3   7
ATOM      4  C   UNL     1       1.562   8.193  19.925  0.00  0.00    +0.000 A 
ATOM      5  C   UNL     1       2.116   8.213  18.638  0.00  0.00    +0.000 A 
ATOM      6  C   UNL     1       2.813   7.105  18.143  0.00  0.00    +0.000 A 
ATOM      7  C   UNL     1       2.929   5.939  18.904  0.00  0.00    +0.000 A 
ATOM      8  C   UNL     1       2.383   5.893  20.199  0.00  0.00    +0.000 A 
ATOM      9  C   UNL     1       1.732   7.034  20.707  0.00  0.00    +0.000 A 
BRANCH   8  10
ATOM     10  O   UNL     1       2.420   4.698  20.867  0.00  0.00    +0.000 OA
ATOM     11  C   UNL     1       1.305   3.828  20.678  0.00  0.00    +0.000 C 
ENDBRANCH   8  10
BRANCH   4  12
ATOM     12  C   UNL     1       0.722   9.338  20.461  0.00  0.00    +0.000 C 
BRANCH  12  14
ATOM     13  C   UNL     1      -0.200   9.309  22.800  0.00  0.00    +0.000 C 
ATOM     14  C   UNL     1       0.805   9.562  21.945  0.00  0.00    +0.000 C 
ENDBRANCH  12  14
ENDBRANCH   4  12
ENDBRANCH   3   7
ENDBRANCH   1   3
BRANCH   1  15
ATOM     15  C   UNL     1       5.840   5.830  18.997  0.00  0.00    +0.000 C 
BRANCH  15  16
ATOM     16  O   UNL     1       7.105   5.556  18.369  0.00  0.00    +0.000 OA
BRANCH  16  17
ATOM     17  C   UNL     1       7.519   6.519  17.506  0.00  0.00    +0.000 C 
ATOM     18  O   UNL     1       7.425   6.477  16.295  0.00  0.00    +0.000 OA
BRANCH  17  19
ATOM     19  C   UNL     1       8.141   7.613  18.286  0.00  0.00    +0.000 C 
ATOM     20  C   UNL     1       8.161   8.872  17.817  0.00  0.00    +0.000 C 
BRANCH  20  21
ATOM     21  C   UNL     1       8.824  10.011  18.482  0.00  0.00    +0.000 A 
ATOM     22  C   UNL     1       9.029   9.966  19.872  0.00  0.00    +0.000 A 
ATOM     23  C   UNL     1       9.612  11.043  20.552  0.00  0.00    +0.000 A 
ATOM     24  C   UNL     1      10.015  12.164  19.838  0.00  0.00    +0.000 A 
ATOM     25  C   UNL     1       9.845  12.223  18.462  0.00  0.00    +0.000 A 
ATOM     26  C   UNL     1       9.259  11.147  17.784  0.00  0.00    +0.000 A 
BRANCH  24  27
ATOM     27  O   UNL     1      10.583  13.239  20.455  0.00  0.00    +0.000 OA
ATOM     28  H   UNL     1      11.010  13.796  19.782  0.00  0.00    +0.000 HD
ENDBRANCH  24  27
ENDBRANCH  20  21
ENDBRANCH  17  19
ENDBRANCH  16  17
ENDBRANCH  15  16
ENDBRANCH   1  15
TORSDOF 11
ENDMDL
MODEL 8
REMARK VINA RESULT:      -7.0      2.020      3.964
REMARK  Name = 
REMARK  12 active torsions:
REMARK  status: ('A' for Active; 'I' for Inactive)
REMARK    1  A    between atoms: C_2  and  C_3
REMARK    2  A    between atoms: C_3  and  C_4
REMARK    3  A    between atoms: C_7  and  O_8
REMARK    4  A    between atoms: O_8  and  C_9
REMARK    5  A    between atoms: C_9  and  C_11
REMARK    6  A    between atoms: C_11  and  O_12
REMARK    7  A    between atoms: O_12  and  C_13
REMARK    8  A    between atoms: C_13  and  C_15
REMARK    9  A    between atoms: C_16  and  C_17
REMARK   10  A    between atoms: C_20  and  O_21
REMARK   11  A    between atoms: C_24  and  O_25
REMARK   12  A    between atoms: O_25  and  C_26
REMARK                            x       y       z     vdW  Elec       q    Type
REMARK                         _______ _______ _______ _____ _____    ______ ____
ROOT
ATOM      1  C   UNL     1       5.677   4.822  19.171  0.00  0.00    +0.000 C 
ATOM      2  O   UNL     1       6.615   5.088  19.900  0.00  0.00    +0.000 OA
ENDROOT
BRANCH   1   3
ATOM      3  O   UNL     1       5.212   5.597  18.092  0.00  0.00    +0.000 OA
BRANCH   3   7
ATOM      4  C   UNL     1       6.352   4.338  14.195  0.00  0.00    +0.000 A 
ATOM      5  C   UNL     1       5.043   4.164  14.664  0.00  0.00    +0.000 A 
ATOM      6  C   UNL     1       4.680   4.594  15.945  0.00  0.00    +0.000 A 
ATOM      7  C   UNL     1       5.602   5.250  16.763  0.00  0.00    +0.000 A 
ATOM      8  C   UNL     1       6.922   5.438  16.317  0.00  0.00    +0.000 A 
ATOM      9  C   UNL     1       7.290   4.950  15.047  0.00  0.00    +0.000 A 
BRANCH   8  10
ATOM     10  O   UNL     1       7.763   6.183  17.101  0.00  0.00    +0.000 OA
ATOM     11  C   UNL     1       7.515   7.588  17.145  0.00  0.00    +0.000 C 
ENDBRANCH   8  10
BRANCH   4  12
ATOM     12  C   UNL     1       6.760   3.968  12.780  0.00  0.00    +0.000 C 
BRANCH  12  14
ATOM     13  C   UNL     1       5.763   2.000  11.572  0.00  0.00    +0.000 C 
ATOM     14  C   UNL     1       5.701   3.285  11.960  0.00  0.00    +0.000 C 
ENDBRANCH  12  14
ENDBRANCH   4  12
ENDBRANCH   3   7
ENDBRANCH   1   3
BRANCH   1  15
ATOM     15  C   UNL     1       4.759   3.618  19.385  0.00  0.00    +0.000 C 
BRANCH  15  16
ATOM     16  O   UNL     1       3.622   3.991  20.181  0.00  0.00    +0.000 OA
BRANCH  16  17
ATOM     17  C   UNL     1       2.537   4.374  19.460  0.00  0.00    +0.000 C 
ATOM     18  O   UNL     1       2.136   3.844  18.442  0.00  0.00    +0.000 OA
BRANCH  17  19
ATOM     19  C   UNL     1       1.946   5.571  20.100  0.00  0.00    +0.000 C 
ATOM     20  C   UNL     1       2.089   6.790  19.553  0.00  0.00    +0.000 C 
BRANCH  20  21
ATOM     21  C   UNL     1       1.606   8.048  20.156  0.00  0.00    +0.000 A 
ATOM     22  C   UNL     1       1.383   9.161  19.327  0.00  0.00    +0.000 A 
ATOM     23  C   UNL     1       0.969  10.388  19.861  0.00  0.00    +0.000 A 
ATOM     24  C   UNL     1       0.753  10.501  21.228  0.00  0.00    +0.000 A 
ATOM     25  C   UNL     1       0.944   9.409  22.065  0.00  0.00    +0.000 A 
ATOM     26  C   UNL     1       1.361   8.185  21.530  0.00  0.00    +0.000 A 
BRANCH  24  27
ATOM     27  O   UNL     1       0.355  11.674  21.796  0.00  0.00    +0.000 OA
ATOM     28  H   UNL     1       1.103  12.295  21.789  0.00  0.00    +0.000 HD
ENDBRANCH  24  27
ENDBRANCH  20  21
ENDBRANCH  17  19
ENDBRANCH  16  17
ENDBRANCH  15  16
ENDBRANCH   1  15
TORSDOF 11
ENDMDL
MODEL 9
REMARK VINA RESULT:      -6.9      2.106      2.940
REMARK  Name = 
REMARK  12 active torsions:
REMARK  status: ('A' for Active; 'I' for Inactive)
REMARK    1  A    between atoms: C_2  and  C_3
REMARK    2  A    between atoms: C_3  and  C_4
REMARK    3  A    between atoms: C_7  and  O_8
REMARK    4  A    between atoms: O_8  and  C_9
REMARK    5  A    between atoms: C_9  and  C_11
REMARK    6  A    between atoms: C_11  and  O_12
REMARK    7  A    between atoms: O_12  and  C_13
REMARK    8  A    between atoms: C_13  and  C_15
REMARK    9  A    between atoms: C_16  and  C_17
REMARK   10  A    between atoms: C_20  and  O_21
REMARK   11  A    between atoms: C_24  and  O_25
REMARK   12  A    between atoms: O_25  and  C_26
REMARK                            x       y       z     vdW  Elec       q    Type
REMARK                         _______ _______ _______ _____ _____    ______ ____
ROOT
ATOM      1  C   UNL     1       2.581   3.650  18.374  0.00  0.00    +0.000 C 
ATOM      2  O   UNL     1       2.028   3.070  19.289  0.00  0.00    +0.000 OA
ENDROOT
BRANCH   1   3
ATOM      3  O   UNL     1       3.807   3.295  17.779  0.00  0.00    +0.000 OA
BRANCH   3   7
ATOM      4  C   UNL     1       6.993   6.070  18.251  0.00  0.00    +0.000 A 
ATOM      5  C   UNL     1       6.347   5.506  19.359  0.00  0.00    +0.000 A 
ATOM      6  C   UNL     1       5.307   4.585  19.188  0.00  0.00    +0.000 A 
ATOM      7  C   UNL     1       4.926   4.172  17.909  0.00  0.00    +0.000 A 
ATOM      8  C   UNL     1       5.558   4.722  16.780  0.00  0.00    +0.000 A 
ATOM      9  C   UNL     1       6.565   5.690  16.965  0.00  0.00    +0.000 A 
BRANCH   8  10
ATOM     10  O   UNL     1       5.234   4.210  15.552  0.00  0.00    +0.000 OA
ATOM     11  C   UNL     1       6.256   4.247  14.557  0.00  0.00    +0.000 C 
ENDBRANCH   8  10
BRANCH   4  12
ATOM     12  C   UNL     1       8.184   7.000  18.397  0.00  0.00    +0.000 C 
BRANCH  12  14
ATOM     13  C   UNL     1       8.519   9.489  18.263  0.00  0.00    +0.000 C 
ATOM     14  C   UNL     1       8.036   8.347  17.746  0.00  0.00    +0.000 C 
ENDBRANCH  12  14
ENDBRANCH   4  12
ENDBRANCH   3   7
ENDBRANCH   1   3
BRANCH   1  15
ATOM     15  C   UNL     1       2.069   4.961  17.775  0.00  0.00    +0.000 C 
BRANCH  15  16
ATOM     16  O   UNL     1       2.308   6.052  18.680  0.00  0.00    +0.000 OA
BRANCH  16  17
ATOM     17  C   UNL     1       2.690   7.206  18.076  0.00  0.00    +0.000 C 
ATOM     18  O   UNL     1       3.820   7.490  17.733  0.00  0.00    +0.000 OA
BRANCH  17  19
ATOM     19  C   UNL     1       1.501   8.078  17.937  0.00  0.00    +0.000 C 
ATOM     20  C   UNL     1       1.343   9.160  18.719  0.00  0.00    +0.000 C 
BRANCH  20  21
ATOM     21  C   UNL     1       0.160  10.043  18.710  0.00  0.00    +0.000 A 
ATOM     22  C   UNL     1       0.032  11.025  19.707  0.00  0.00    +0.000 A 
ATOM     23  C   UNL     1      -1.096  11.853  19.766  0.00  0.00    +0.000 A 
ATOM     24  C   UNL     1      -2.094  11.719  18.808  0.00  0.00    +0.000 A 
ATOM     25  C   UNL     1      -1.979  10.772  17.799  0.00  0.00    +0.000 A 
ATOM     26  C   UNL     1      -0.853   9.942  17.745  0.00  0.00    +0.000 A 
BRANCH  24  27
ATOM     27  O   UNL     1      -3.212  12.498  18.825  0.00  0.00    +0.000 OA
ATOM     28  H   UNL     1      -3.990  11.926  18.938  0.00  0.00    +0.000 HD
ENDBRANCH  24  27
ENDBRANCH  20  21
ENDBRANCH  17  19
ENDBRANCH  16  17
ENDBRANCH  15  16
ENDBRANCH   1  15
TORSDOF 11
ENDMDL
