MODEL 1
REMARK VINA RESULT:      -6.2      0.000      0.000
REMARK  Name = 
REMARK  14 active torsions:
REMARK  status: ('A' for Active; 'I' for Inactive)
REMARK    1  A    between atoms: C_1  and  C_2
REMARK    2  A    between atoms: C_2  and  O_3
REMARK    3  A    between atoms: O_3  and  P_4
REMARK    4  A    between atoms: P_4  and  C_6
REMARK    5  A    between atoms: P_4  and  O_21
REMARK    6  A    between atoms: C_6  and  C_7
REMARK    7  A    between atoms: C_10  and  N_11
REMARK    8  A    between atoms: N_11  and  C_12
REMARK    9  A    between atoms: C_12  and  C_13
REMARK   10  A    between atoms: C_13  and  C_14
REMARK   11  A    between atoms: C_14  and  N_15
REMARK   12  A    between atoms: C_16  and  N_17
REMARK   13  A    between atoms: O_21  and  C_22
REMARK   14  A    between atoms: C_22  and  C_23
REMARK                            x       y       z     vdW  Elec       q    Type
REMARK                         _______ _______ _______ _____ _____    ______ ____
ROOT
ATOM      1  C   UNL     1       4.447   5.667  16.594  0.00  0.00    +0.000 A 
ATOM      2  C   UNL     1       4.023   6.762  17.346  0.00  0.00    +0.000 A 
ATOM      3  C   UNL     1       3.027   6.627  18.309  0.00  0.00    +0.000 A 
ATOM      4  C   UNL     1       2.402   5.386  18.572  0.00  0.00    +0.000 A 
ATOM      5  C   UNL     1       2.798   4.251  17.763  0.00  0.00    +0.000 A 
ATOM      6  C   UNL     1       3.822   4.432  16.797  0.00  0.00    +0.000 A 
ENDROOT
BRANCH   5   7
ATOM      7  N   UNL     1       2.220   2.938  17.871  0.00  0.00    +0.000 N 
ATOM      8  O   UNL     1       2.870   1.944  17.794  0.00  0.00    +0.000 OA
ATOM      9  O   UNL     1       0.934   2.807  18.137  0.00  0.00    +0.000 OA
ENDBRANCH   5   7
BRANCH   4  10
ATOM     10  N   UNL     1       1.439   5.301  19.650  0.00  0.00    +0.000 N 
ATOM     11  H   UNL     1       0.484   4.994  19.455  0.00  0.00    +0.000 HD
BRANCH  10  12
ATOM     12  C   UNL     1       1.799   5.160  21.057  0.00  0.00    +0.000 C 
BRANCH  12  13
ATOM     13  C   UNL     1       2.854   4.064  21.244  0.00  0.00    +0.000 C 
BRANCH  13  14
ATOM     14  C   UNL     1       2.177   2.712  21.509  0.00  0.00    +0.000 C 
BRANCH  14  15
ATOM     15  N   UNL     1       0.771   2.758  21.121  0.00  0.00    +0.000 NA
ATOM     16  H   UNL     1       0.506   1.844  20.689  0.00  0.00    +0.000 HD
ATOM     17  H   UNL     1       0.656   3.499  20.392  0.00  0.00    +0.000 HD
ENDBRANCH  14  15
ENDBRANCH  13  14
ENDBRANCH  12  13
ENDBRANCH  10  12
ENDBRANCH   4  10
BRANCH   1  18
ATOM     18  C   UNL     1       5.619   5.821  15.641  0.00  0.00    +0.000 C 
BRANCH  18  19
ATOM     19  P   UNL     1       6.992   4.525  15.781  0.00  0.00    +0.000 P 
ATOM     20  O   UNL     1       7.780   5.165  14.601  0.00  0.00    +0.000 OA
BRANCH  19  21
ATOM     21  O   UNL     1       6.219   3.561  14.571  0.00  0.00    +0.000 OA
BRANCH  21  23
ATOM     22  C   UNL     1       5.815   3.402  12.215  0.00  0.00    +0.000 C 
ATOM     23  C   UNL     1       6.551   4.133  13.329  0.00  0.00    +0.000 C 
ENDBRANCH  21  23
ENDBRANCH  19  21
BRANCH  19  24
ATOM     24  O   UNL     1       7.764   5.491  16.991  0.00  0.00    +0.000 OA
BRANCH  24  25
ATOM     25  C   UNL     1       7.838   4.864  18.261  0.00  0.00    +0.000 C 
ATOM     26  C   UNL     1       7.000   5.638  19.267  0.00  0.00    +0.000 C 
ENDBRANCH  24  25
ENDBRANCH  19  24
ENDBRANCH  18  19
ENDBRANCH   1  18
TORSDOF 12
ENDMDL
MODEL 2
REMARK VINA RESULT:      -6.1      2.168      2.643
REMARK  Name = 
REMARK  14 active torsions:
REMARK  status: ('A' for Active; 'I' for Inactive)
REMARK    1  A    between atoms: C_1  and  C_2
REMARK    2  A    between atoms: C_2  and  O_3
REMARK    3  A    between atoms: O_3  and  P_4
REMARK    4  A    between atoms: P_4  and  C_6
REMARK    5  A    between atoms: P_4  and  O_21
REMARK    6  A    between atoms: C_6  and  C_7
REMARK    7  A    between atoms: C_10  and  N_11
REMARK    8  A    between atoms: N_11  and  C_12
REMARK    9  A    between atoms: C_12  and  C_13
REMARK   10  A    between atoms: C_13  and  C_14
REMARK   11  A    between atoms: C_14  and  N_15
REMARK   12  A    between atoms: C_16  and  N_17
REMARK   13  A    between atoms: O_21  and  C_22
REMARK   14  A    between atoms: C_22  and  C_23
REMARK                            x       y       z     vdW  Elec       q    Type
REMARK                         _______ _______ _______ _____ _____    ______ ____
ROOT
ATOM      1  C   UNL     1       4.562   5.981  16.807  0.00  0.00    +0.000 A 
ATOM      2  C   UNL     1       4.378   4.850  17.601  0.00  0.00    +0.000 A 
ATOM      3  C   UNL     1       3.461   4.852  18.648  0.00  0.00    +0.000 A 
ATOM      4  C   UNL     1       2.678   5.989  18.956  0.00  0.00    +0.000 A 
ATOM      5  C   UNL     1       2.896   7.187  18.171  0.00  0.00    +0.000 A 
ATOM      6  C   UNL     1       3.836   7.138  17.108  0.00  0.00    +0.000 A 
ENDROOT
BRANCH   5   7
ATOM      7  N   UNL     1       2.219   8.437  18.394  0.00  0.00    +0.000 N 
ATOM      8  O   UNL     1       1.706   8.711  19.431  0.00  0.00    +0.000 OA
ATOM      9  O   UNL     1       2.218   9.359  17.450  0.00  0.00    +0.000 OA
ENDBRANCH   5   7
BRANCH   4  10
ATOM     10  N   UNL     1       1.680   5.889  20.001  0.00  0.00    +0.000 N 
ATOM     11  H   UNL     1       0.732   6.234  19.833  0.00  0.00    +0.000 HD
BRANCH  10  12
ATOM     12  C   UNL     1       1.744   4.935  21.102  0.00  0.00    +0.000 C 
BRANCH  12  13
ATOM     13  C   UNL     1       1.049   3.620  20.728  0.00  0.00    +0.000 C 
BRANCH  13  14
ATOM     14  C   UNL     1       1.437   2.512  21.718  0.00  0.00    +0.000 C 
BRANCH  14  15
ATOM     15  N   UNL     1       2.887   2.395  21.815  0.00  0.00    +0.000 NA
ATOM     16  H   UNL     1       3.328   2.987  21.074  0.00  0.00    +0.000 HD
ATOM     17  H   UNL     1       3.149   1.401  21.623  0.00  0.00    +0.000 HD
ENDBRANCH  14  15
ENDBRANCH  13  14
ENDBRANCH  12  13
ENDBRANCH  10  12
ENDBRANCH   4  10
BRANCH   1  18
ATOM     18  C   UNL     1       5.478   5.907  15.598  0.00  0.00    +0.000 C 
BRANCH  18  19
ATOM     19  P   UNL     1       6.821   4.573  15.641  0.00  0.00    +0.000 P 
ATOM     20  O   UNL     1       7.559   5.212  14.428  0.00  0.00    +0.000 OA
BRANCH  19  21
ATOM     21  O   UNL     1       5.956   3.650  14.462  0.00  0.00    +0.000 OA
BRANCH  21  23
ATOM     22  C   UNL     1       5.785   3.212  12.113  0.00  0.00    +0.000 C 
ATOM     23  C   UNL     1       6.522   3.963  13.212  0.00  0.00    +0.000 C 
ENDBRANCH  21  23
ENDBRANCH  19  21
BRANCH  19  24
ATOM     24  O   UNL     1       7.686   5.498  16.820  0.00  0.00    +0.000 OA
BRANCH  24  25
ATOM     25  C   UNL     1       7.873   4.820  18.052  0.00  0.00    +0.000 C 
ATOM     26  C   UNL     1       7.733   5.801  19.206  0.00  0.00    +0.000 C 
ENDBRANCH  24  25
ENDBRANCH  19  24
ENDBRANCH  18  19
ENDBRANCH   1  18
TORSDOF 12
ENDMDL
MODEL 3
REMARK VINA RESULT:      -6.1      0.847      1.122
REMARK  Name = 
REMARK  14 active torsions:
REMARK  status: ('A' for Active; 'I' for Inactive)
REMARK    1  A    between atoms: C_1  and  C_2
REMARK    2  A    between atoms: C_2  and  O_3
REMARK    3  A    between atoms: O_3  and  P_4
REMARK    4  A    between atoms: P_4  and  C_6
REMARK    5  A    between atoms: P_4  and  O_21
REMARK    6  A    between atoms: C_6  and  C_7
REMARK    7  A    between atoms: C_10  and  N_11
REMARK    8  A    between atoms: N_11  and  C_12
REMARK    9  A    between atoms: C_12  and  C_13
REMARK   10  A    between atoms: C_13  and  C_14
REMARK   11  A    between atoms: C_14  and  N_15
REMARK   12  A    between atoms: C_16  and  N_17
REMARK   13  A    between atoms: O_21  and  C_22
REMARK   14  A    between atoms: C_22  and  C_23
REMARK                            x       y       z     vdW  Elec       q    Type
REMARK                         _______ _______ _______ _____ _____    ______ ____
ROOT
ATOM      1  C   UNL     1       4.357   5.761  16.625  0.00  0.00    +0.000 A 
ATOM      2  C   UNL     1       4.002   6.815  17.466  0.00  0.00    +0.000 A 
ATOM      3  C   UNL     1       3.120   6.618  18.525  0.00  0.00    +0.000 A 
ATOM      4  C   UNL     1       2.548   5.355  18.800  0.00  0.00    +0.000 A 
ATOM      5  C   UNL     1       2.870   4.263  17.903  0.00  0.00    +0.000 A 
ATOM      6  C   UNL     1       3.779   4.506  16.840  0.00  0.00    +0.000 A 
ENDROOT
BRANCH   5   7
ATOM      7  N   UNL     1       2.329   2.935  18.015  0.00  0.00    +0.000 N 
ATOM      8  O   UNL     1       1.159   2.718  18.021  0.00  0.00    +0.000 OA
ATOM      9  O   UNL     1       3.142   1.896  18.041  0.00  0.00    +0.000 OA
ENDBRANCH   5   7
BRANCH   4  10
ATOM     10  N   UNL     1       1.711   5.205  19.972  0.00  0.00    +0.000 N 
ATOM     11  H   UNL     1       0.694   5.228  19.876  0.00  0.00    +0.000 HD
BRANCH  10  12
ATOM     12  C   UNL     1       2.145   4.562  21.208  0.00  0.00    +0.000 C 
BRANCH  12  13
ATOM     13  C   UNL     1       1.453   3.206  21.392  0.00  0.00    +0.000 C 
BRANCH  13  14
ATOM     14  C   UNL     1       2.489   2.117  21.702  0.00  0.00    +0.000 C 
BRANCH  14  15
ATOM     15  N   UNL     1       3.767   2.430  21.074  0.00  0.00    +0.000 NA
ATOM     16  H   UNL     1       3.604   2.663  20.067  0.00  0.00    +0.000 HD
ATOM     17  H   UNL     1       4.368   1.575  21.108  0.00  0.00    +0.000 HD
ENDBRANCH  14  15
ENDBRANCH  13  14
ENDBRANCH  12  13
ENDBRANCH  10  12
ENDBRANCH   4  10
BRANCH   1  18
ATOM     18  C   UNL     1       5.415   5.979  15.556  0.00  0.00    +0.000 C 
BRANCH  18  19
ATOM     19  P   UNL     1       7.074   5.108  15.826  0.00  0.00    +0.000 P 
ATOM     20  O   UNL     1       7.607   5.597  14.448  0.00  0.00    +0.000 OA
BRANCH  19  21
ATOM     21  O   UNL     1       6.498   3.723  14.965  0.00  0.00    +0.000 OA
BRANCH  21  23
ATOM     22  C   UNL     1       5.409   3.442  12.849  0.00  0.00    +0.000 C 
ATOM     23  C   UNL     1       6.598   4.032  13.595  0.00  0.00    +0.000 C 
ENDBRANCH  21  23
ENDBRANCH  19  21
BRANCH  19  24
ATOM     24  O   UNL     1       7.650   6.494  16.687  0.00  0.00    +0.000 OA
BRANCH  24  25
ATOM     25  C   UNL     1       7.666   6.325  18.095  0.00  0.00    +0.000 C 
ATOM     26  C   UNL     1       7.527   4.851  18.439  0.00  0.00    +0.000 C 
ENDBRANCH  24  25
ENDBRANCH  19  24
ENDBRANCH  18  19
ENDBRANCH   1  18
TORSDOF 12
ENDMDL
MODEL 4
REMARK VINA RESULT:      -6.0      2.190      2.614
REMARK  Name = 
REMARK  14 active torsions:
REMARK  status: ('A' for Active; 'I' for Inactive)
REMARK    1  A    between atoms: C_1  and  C_2
REMARK    2  A    between atoms: C_2  and  O_3
REMARK    3  A    between atoms: O_3  and  P_4
REMARK    4  A    between atoms: P_4  and  C_6
REMARK    5  A    between atoms: P_4  and  O_21
REMARK    6  A    between atoms: C_6  and  C_7
REMARK    7  A    between atoms: C_10  and  N_11
REMARK    8  A    between atoms: N_11  and  C_12
REMARK    9  A    between atoms: C_12  and  C_13
REMARK   10  A    between atoms: C_13  and  C_14
REMARK   11  A    between atoms: C_14  and  N_15
REMARK   12  A    between atoms: C_16  and  N_17
REMARK   13  A    between atoms: O_21  and  C_22
REMARK   14  A    between atoms: C_22  and  C_23
REMARK                            x       y       z     vdW  Elec       q    Type
REMARK                         _______ _______ _______ _____ _____    ______ ____
ROOT
ATOM      1  C   UNL     1       4.730   5.521  18.211  0.00  0.00    +0.000 A 
ATOM      2  C   UNL     1       3.683   6.241  18.786  0.00  0.00    +0.000 A 
ATOM      3  C   UNL     1       2.894   5.680  19.786  0.00  0.00    +0.000 A 
ATOM      4  C   UNL     1       3.113   4.368  20.267  0.00  0.00    +0.000 A 
ATOM      5  C   UNL     1       4.166   3.592  19.643  0.00  0.00    +0.000 A 
ATOM      6  C   UNL     1       4.950   4.205  18.631  0.00  0.00    +0.000 A 
ENDROOT
BRANCH   5   7
ATOM      7  N   UNL     1       4.476   2.229  19.981  0.00  0.00    +0.000 N 
ATOM      8  O   UNL     1       4.908   1.915  21.044  0.00  0.00    +0.000 OA
ATOM      9  O   UNL     1       4.213   1.264  19.121  0.00  0.00    +0.000 OA
ENDBRANCH   5   7
BRANCH   4  10
ATOM     10  N   UNL     1       2.311   3.884  21.372  0.00  0.00    +0.000 N 
ATOM     11  H   UNL     1       2.267   4.421  22.240  0.00  0.00    +0.000 HD
BRANCH  10  12
ATOM     12  C   UNL     1       1.194   2.959  21.225  0.00  0.00    +0.000 C 
BRANCH  12  13
ATOM     13  C   UNL     1       0.544   3.100  19.843  0.00  0.00    +0.000 C 
BRANCH  13  14
ATOM     14  C   UNL     1       0.806   1.844  19.000  0.00  0.00    +0.000 C 
BRANCH  14  15
ATOM     15  N   UNL     1       1.601   2.172  17.823  0.00  0.00    +0.000 NA
ATOM     16  H   UNL     1       2.616   2.115  18.070  0.00  0.00    +0.000 HD
ATOM     17  H   UNL     1       1.396   3.162  17.554  0.00  0.00    +0.000 HD
ENDBRANCH  14  15
ENDBRANCH  13  14
ENDBRANCH  12  13
ENDBRANCH  10  12
ENDBRANCH   4  10
BRANCH   1  18
ATOM     18  C   UNL     1       5.648   6.203  17.211  0.00  0.00    +0.000 C 
BRANCH  18  19
ATOM     19  P   UNL     1       7.473   5.704  17.270  0.00  0.00    +0.000 P 
ATOM     20  O   UNL     1       7.775   6.478  15.954  0.00  0.00    +0.000 OA
BRANCH  19  21
ATOM     21  O   UNL     1       7.145   4.350  16.244  0.00  0.00    +0.000 OA
BRANCH  21  23
ATOM     22  C   UNL     1       6.089   3.851  14.152  0.00  0.00    +0.000 C 
ATOM     23  C   UNL     1       6.873   4.872  14.966  0.00  0.00    +0.000 C 
ENDBRANCH  21  23
ENDBRANCH  19  21
BRANCH  19  24
ATOM     24  O   UNL     1       7.800   7.058  18.295  0.00  0.00    +0.000 OA
BRANCH  24  25
ATOM     25  C   UNL     1       7.714   8.309  17.634  0.00  0.00    +0.000 C 
ATOM     26  C   UNL     1       8.562   9.338  18.365  0.00  0.00    +0.000 C 
ENDBRANCH  24  25
ENDBRANCH  19  24
ENDBRANCH  18  19
ENDBRANCH   1  18
TORSDOF 12
ENDMDL
MODEL 5
REMARK VINA RESULT:      -6.0      2.531      4.079
REMARK  Name = 
REMARK  14 active torsions:
REMARK  status: ('A' for Active; 'I' for Inactive)
REMARK    1  A    between atoms: C_1  and  C_2
REMARK    2  A    between atoms: C_2  and  O_3
REMARK    3  A    between atoms: O_3  and  P_4
REMARK    4  A    between atoms: P_4  and  C_6
REMARK    5  A    between atoms: P_4  and  O_21
REMARK    6  A    between atoms: C_6  and  C_7
REMARK    7  A    between atoms: C_10  and  N_11
REMARK    8  A    between atoms: N_11  and  C_12
REMARK    9  A    between atoms: C_12  and  C_13
REMARK   10  A    between atoms: C_13  and  C_14
REMARK   11  A    between atoms: C_14  and  N_15
REMARK   12  A    between atoms: C_16  and  N_17
REMARK   13  A    between atoms: O_21  and  C_22
REMARK   14  A    between atoms: C_22  and  C_23
REMARK                            x       y       z     vdW  Elec       q    Type
REMARK                         _______ _______ _______ _____ _____    ______ ____
ROOT
ATOM      1  C   UNL     1       4.364   4.805  17.882  0.00  0.00    +0.000 A 
ATOM      2  C   UNL     1       3.982   6.142  17.775  0.00  0.00    +0.000 A 
ATOM      3  C   UNL     1       3.082   6.703  18.677  0.00  0.00    +0.000 A 
ATOM      4  C   UNL     1       2.518   5.955  19.736  0.00  0.00    +0.000 A 
ATOM      5  C   UNL     1       2.868   4.551  19.828  0.00  0.00    +0.000 A 
ATOM      6  C   UNL     1       3.795   4.023  18.891  0.00  0.00    +0.000 A 
ENDROOT
BRANCH   5   7
ATOM      7  N   UNL     1       2.339   3.647  20.813  0.00  0.00    +0.000 N 
ATOM      8  O   UNL     1       2.395   3.867  21.981  0.00  0.00    +0.000 OA
ATOM      9  O   UNL     1       1.699   2.559  20.427  0.00  0.00    +0.000 OA
ENDBRANCH   5   7
BRANCH   4  10
ATOM     10  N   UNL     1       1.660   6.628  20.689  0.00  0.00    +0.000 N 
ATOM     11  H   UNL     1       1.386   6.152  21.551  0.00  0.00    +0.000 HD
BRANCH  10  12
ATOM     12  C   UNL     1       1.519   8.077  20.778  0.00  0.00    +0.000 C 
BRANCH  12  13
ATOM     13  C   UNL     1       0.453   8.461  21.812  0.00  0.00    +0.000 C 
BRANCH  13  14
ATOM     14  C   UNL     1       0.758   9.845  22.402  0.00  0.00    +0.000 C 
BRANCH  14  15
ATOM     15  N   UNL     1      -0.308  10.264  23.305  0.00  0.00    +0.000 NA
ATOM     16  H   UNL     1      -0.404  11.304  23.260  0.00  0.00    +0.000 HD
ATOM     17  H   UNL     1      -0.028  10.013  24.282  0.00  0.00    +0.000 HD
ENDBRANCH  14  15
ENDBRANCH  13  14
ENDBRANCH  12  13
ENDBRANCH  10  12
ENDBRANCH   4  10
BRANCH   1  18
ATOM     18  C   UNL     1       5.440   4.258  16.959  0.00  0.00    +0.000 C 
BRANCH  18  19
ATOM     19  P   UNL     1       6.926   5.386  16.639  0.00  0.00    +0.000 P 
ATOM     20  O   UNL     1       7.883   4.165  16.507  0.00  0.00    +0.000 OA
BRANCH  19  21
ATOM     21  O   UNL     1       7.326   5.353  18.321  0.00  0.00    +0.000 OA
BRANCH  21  23
ATOM     22  C   UNL     1       7.480   7.621  17.562  0.00  0.00    +0.000 C 
ATOM     23  C   UNL     1       7.887   6.609  18.624  0.00  0.00    +0.000 C 
ENDBRANCH  21  23
ENDBRANCH  19  21
BRANCH  19  24
ATOM     24  O   UNL     1       6.525   5.418  14.956  0.00  0.00    +0.000 OA
BRANCH  24  25
ATOM     25  C   UNL     1       5.997   4.194  14.471  0.00  0.00    +0.000 C 
ATOM     26  C   UNL     1       6.499   3.941  13.058  0.00  0.00    +0.000 C 
ENDBRANCH  24  25
ENDBRANCH  19  24
ENDBRANCH  18  19
ENDBRANCH   1  18
TORSDOF 12
ENDMDL
MODEL 6
REMARK VINA RESULT:      -5.9      3.052      6.128
REMARK  Name = 
REMARK  14 active torsions:
REMARK  status: ('A' for Active; 'I' for Inactive)
REMARK    1  A    between atoms: C_1  and  C_2
REMARK    2  A    between atoms: C_2  and  O_3
REMARK    3  A    between atoms: O_3  and  P_4
REMARK    4  A    between atoms: P_4  and  C_6
REMARK    5  A    between atoms: P_4  and  O_21
REMARK    6  A    between atoms: C_6  and  C_7
REMARK    7  A    between atoms: C_10  and  N_11
REMARK    8  A    between atoms: N_11  and  C_12
REMARK    9  A    between atoms: C_12  and  C_13
REMARK   10  A    between atoms: C_13  and  C_14
REMARK   11  A    between atoms: C_14  and  N_15
REMARK   12  A    between atoms: C_16  and  N_17
REMARK   13  A    between atoms: O_21  and  C_22
REMARK   14  A    between atoms: C_22  and  C_23
REMARK                            x       y       z     vdW  Elec       q    Type
REMARK                         _______ _______ _______ _____ _____    ______ ____
ROOT
ATOM      1  C   UNL     1       3.041   4.834  17.457  0.00  0.00    +0.000 A 
ATOM      2  C   UNL     1       3.292   6.013  18.159  0.00  0.00    +0.000 A 
ATOM      3  C   UNL     1       4.451   6.749  17.931  0.00  0.00    +0.000 A 
ATOM      4  C   UNL     1       5.422   6.344  16.986  0.00  0.00    +0.000 A 
ATOM      5  C   UNL     1       5.198   5.096  16.285  0.00  0.00    +0.000 A 
ATOM      6  C   UNL     1       3.999   4.381  16.544  0.00  0.00    +0.000 A 
ENDROOT
BRANCH   5   7
ATOM      7  N   UNL     1       6.113   4.523  15.335  0.00  0.00    +0.000 N 
ATOM      8  O   UNL     1       6.142   3.358  15.095  0.00  0.00    +0.000 OA
ATOM      9  O   UNL     1       6.911   5.310  14.638  0.00  0.00    +0.000 OA
ENDBRANCH   5   7
BRANCH   4  10
ATOM     10  N   UNL     1       6.558   7.207  16.736  0.00  0.00    +0.000 N 
ATOM     11  H   UNL     1       6.751   7.533  15.787  0.00  0.00    +0.000 HD
BRANCH  10  12
ATOM     12  C   UNL     1       7.189   8.039  17.755  0.00  0.00    +0.000 C 
BRANCH  12  13
ATOM     13  C   UNL     1       8.313   7.276  18.466  0.00  0.00    +0.000 C 
BRANCH  13  14
ATOM     14  C   UNL     1       7.857   5.850  18.805  0.00  0.00    +0.000 C 
BRANCH  14  15
ATOM     15  N   UNL     1       7.867   5.637  20.248  0.00  0.00    +0.000 NA
ATOM     16  H   UNL     1       7.693   6.550  20.729  0.00  0.00    +0.000 HD
ATOM     17  H   UNL     1       8.821   5.310  20.525  0.00  0.00    +0.000 HD
ENDBRANCH  14  15
ENDBRANCH  13  14
ENDBRANCH  12  13
ENDBRANCH  10  12
ENDBRANCH   4  10
BRANCH   1  18
ATOM     18  C   UNL     1       1.712   4.122  17.639  0.00  0.00    +0.000 C 
BRANCH  18  19
ATOM     19  P   UNL     1       1.657   2.773  18.966  0.00  0.00    +0.000 P 
ATOM     20  O   UNL     1       0.271   2.273  18.466  0.00  0.00    +0.000 OA
BRANCH  19  21
ATOM     21  O   UNL     1       0.758   3.821  20.008  0.00  0.00    +0.000 OA
BRANCH  21  23
ATOM     22  C   UNL     1       1.658   2.635  21.886  0.00  0.00    +0.000 C 
ATOM     23  C   UNL     1       1.525   3.977  21.179  0.00  0.00    +0.000 C 
ENDBRANCH  21  23
ENDBRANCH  19  21
BRANCH  19  24
ATOM     24  O   UNL     1       2.557   1.726  17.924  0.00  0.00    +0.000 OA
BRANCH  24  25
ATOM     25  C   UNL     1       3.722   1.185  18.524  0.00  0.00    +0.000 C 
ATOM     26  C   UNL     1       4.278   2.166  19.544  0.00  0.00    +0.000 C 
ENDBRANCH  24  25
ENDBRANCH  19  24
ENDBRANCH  18  19
ENDBRANCH   1  18
TORSDOF 12
ENDMDL
MODEL 7
REMARK VINA RESULT:      -5.9      1.824      2.367
REMARK  Name = 
REMARK  14 active torsions:
REMARK  status: ('A' for Active; 'I' for Inactive)
REMARK    1  A    between atoms: C_1  and  C_2
REMARK    2  A    between atoms: C_2  and  O_3
REMARK    3  A    between atoms: O_3  and  P_4
REMARK    4  A    between atoms: P_4  and  C_6
REMARK    5  A    between atoms: P_4  and  O_21
REMARK    6  A    between atoms: C_6  and  C_7
REMARK    7  A    between atoms: C_10  and  N_11
REMARK    8  A    between atoms: N_11  and  C_12
REMARK    9  A    between atoms: C_12  and  C_13
REMARK   10  A    between atoms: C_13  and  C_14
REMARK   11  A    between atoms: C_14  and  N_15
REMARK   12  A    between atoms: C_16  and  N_17
REMARK   13  A    between atoms: O_21  and  C_22
REMARK   14  A    between atoms: C_22  and  C_23
REMARK                            x       y       z     vdW  Elec       q    Type
REMARK                         _______ _______ _______ _____ _____    ______ ____
ROOT
ATOM      1  C   UNL     1       4.417   5.367  17.007  0.00  0.00    +0.000 A 
ATOM      2  C   UNL     1       3.931   4.071  16.839  0.00  0.00    +0.000 A 
ATOM      3  C   UNL     1       2.828   3.621  17.561  0.00  0.00    +0.000 A 
ATOM      4  C   UNL     1       2.153   4.447  18.489  0.00  0.00    +0.000 A 
ATOM      5  C   UNL     1       2.679   5.779  18.710  0.00  0.00    +0.000 A 
ATOM      6  C   UNL     1       3.800   6.199  17.948  0.00  0.00    +0.000 A 
ENDROOT
BRANCH   5   7
ATOM      7  N   UNL     1       2.138   6.717  19.656  0.00  0.00    +0.000 N 
ATOM      8  O   UNL     1       1.732   6.388  20.725  0.00  0.00    +0.000 OA
ATOM      9  O   UNL     1       2.150   8.008  19.380  0.00  0.00    +0.000 OA
ENDBRANCH   5   7
BRANCH   4  10
ATOM     10  N   UNL     1       0.959   3.942  19.136  0.00  0.00    +0.000 N 
ATOM     11  H   UNL     1       0.042   4.290  18.853  0.00  0.00    +0.000 HD
BRANCH  10  12
ATOM     12  C   UNL     1       0.886   2.657  19.823  0.00  0.00    +0.000 C 
BRANCH  12  13
ATOM     13  C   UNL     1       2.288   2.101  20.096  0.00  0.00    +0.000 C 
BRANCH  13  14
ATOM     14  C   UNL     1       2.718   2.422  21.534  0.00  0.00    +0.000 C 
BRANCH  14  15
ATOM     15  N   UNL     1       2.129   3.681  21.977  0.00  0.00    +0.000 NA
ATOM     16  H   UNL     1       1.132   3.720  21.663  0.00  0.00    +0.000 HD
ATOM     17  H   UNL     1       2.639   4.465  21.508  0.00  0.00    +0.000 HD
ENDBRANCH  14  15
ENDBRANCH  13  14
ENDBRANCH  12  13
ENDBRANCH  10  12
ENDBRANCH   4  10
BRANCH   1  18
ATOM     18  C   UNL     1       5.542   5.866  16.116  0.00  0.00    +0.000 C 
BRANCH  18  19
ATOM     19  P   UNL     1       6.724   4.552  15.439  0.00  0.00    +0.000 P 
ATOM     20  O   UNL     1       7.535   5.622  14.651  0.00  0.00    +0.000 OA
BRANCH  19  21
ATOM     21  O   UNL     1       5.764   4.412  14.007  0.00  0.00    +0.000 OA
BRANCH  21  23
ATOM     22  C   UNL     1       5.710   3.075  12.020  0.00  0.00    +0.000 C 
ATOM     23  C   UNL     1       6.580   3.801  13.036  0.00  0.00    +0.000 C 
ENDBRANCH  21  23
ENDBRANCH  19  21
BRANCH  19  24
ATOM     24  O   UNL     1       7.683   4.692  16.872  0.00  0.00    +0.000 OA
BRANCH  24  25
ATOM     25  C   UNL     1       7.555   5.944  17.525  0.00  0.00    +0.000 C 
ATOM     26  C   UNL     1       7.761   5.769  19.021  0.00  0.00    +0.000 C 
ENDBRANCH  24  25
ENDBRANCH  19  24
ENDBRANCH  18  19
ENDBRANCH   1  18
TORSDOF 12
ENDMDL
MODEL 8
REMARK VINA RESULT:      -5.8      1.545      1.762
REMARK  Name = 
REMARK  14 active torsions:
REMARK  status: ('A' for Active; 'I' for Inactive)
REMARK    1  A    between atoms: C_1  and  C_2
REMARK    2  A    between atoms: C_2  and  O_3
REMARK    3  A    between atoms: O_3  and  P_4
REMARK    4  A    between atoms: P_4  and  C_6
REMARK    5  A    between atoms: P_4  and  O_21
REMARK    6  A    between atoms: C_6  and  C_7
REMARK    7  A    between atoms: C_10  and  N_11
REMARK    8  A    between atoms: N_11  and  C_12
REMARK    9  A    between atoms: C_12  and  C_13
REMARK   10  A    between atoms: C_13  and  C_14
REMARK   11  A    between atoms: C_14  and  N_15
REMARK   12  A    between atoms: C_16  and  N_17
REMARK   13  A    between atoms: O_21  and  C_22
REMARK   14  A    between atoms: C_22  and  C_23
REMARK                            x       y       z     vdW  Elec       q    Type
REMARK                         _______ _______ _______ _____ _____    ______ ____
ROOT
ATOM      1  C   UNL     1       4.659   5.180  17.065  0.00  0.00    +0.000 A 
ATOM      2  C   UNL     1       3.976   6.182  17.752  0.00  0.00    +0.000 A 
ATOM      3  C   UNL     1       3.411   5.937  19.001  0.00  0.00    +0.000 A 
ATOM      4  C   UNL     1       3.503   4.673  19.629  0.00  0.00    +0.000 A 
ATOM      5  C   UNL     1       4.166   3.608  18.903  0.00  0.00    +0.000 A 
ATOM      6  C   UNL     1       4.733   3.905  17.636  0.00  0.00    +0.000 A 
ENDROOT
BRANCH   5   7
ATOM      7  N   UNL     1       4.293   2.258  19.381  0.00  0.00    +0.000 N 
ATOM      8  O   UNL     1       4.782   1.994  20.434  0.00  0.00    +0.000 OA
ATOM      9  O   UNL     1       3.792   1.262  18.676  0.00  0.00    +0.000 OA
ENDBRANCH   5   7
BRANCH   4  10
ATOM     10  N   UNL     1       2.971   4.516  20.967  0.00  0.00    +0.000 N 
ATOM     11  H   UNL     1       3.459   4.937  21.760  0.00  0.00    +0.000 HD
BRANCH  10  12
ATOM     12  C   UNL     1       1.572   4.220  21.259  0.00  0.00    +0.000 C 
BRANCH  12  13
ATOM     13  C   UNL     1       1.199   2.813  20.779  0.00  0.00    +0.000 C 
BRANCH  13  14
ATOM     14  C   UNL     1       0.564   2.878  19.383  0.00  0.00    +0.000 C 
BRANCH  14  15
ATOM     15  N   UNL     1       1.008   1.756  18.564  0.00  0.00    +0.000 NA
ATOM     16  H   UNL     1       0.354   0.952  18.702  0.00  0.00    +0.000 HD
ATOM     17  H   UNL     1       1.953   1.458  18.901  0.00  0.00    +0.000 HD
ENDBRANCH  14  15
ENDBRANCH  13  14
ENDBRANCH  12  13
ENDBRANCH  10  12
ENDBRANCH   4  10
BRANCH   1  18
ATOM     18  C   UNL     1       5.368   5.513  15.763  0.00  0.00    +0.000 C 
BRANCH  18  19
ATOM     19  P   UNL     1       7.053   4.694  15.491  0.00  0.00    +0.000 P 
ATOM     20  O   UNL     1       7.743   6.074  15.289  0.00  0.00    +0.000 OA
BRANCH  19  21
ATOM     21  O   UNL     1       6.798   4.717  13.780  0.00  0.00    +0.000 OA
BRANCH  21  23
ATOM     22  C   UNL     1       5.994   3.220  12.090  0.00  0.00    +0.000 C 
ATOM     23  C   UNL     1       5.815   3.748  13.507  0.00  0.00    +0.000 C 
ENDBRANCH  21  23
ENDBRANCH  19  21
BRANCH  19  24
ATOM     24  O   UNL     1       7.306   4.670  17.202  0.00  0.00    +0.000 OA
BRANCH  24  25
ATOM     25  C   UNL     1       7.671   5.929  17.743  0.00  0.00    +0.000 C 
ATOM     26  C   UNL     1       7.724   5.842  19.260  0.00  0.00    +0.000 C 
ENDBRANCH  24  25
ENDBRANCH  19  24
ENDBRANCH  18  19
ENDBRANCH   1  18
TORSDOF 12
ENDMDL
MODEL 9
REMARK VINA RESULT:      -5.8      2.030      2.554
REMARK  Name = 
REMARK  14 active torsions:
REMARK  status: ('A' for Active; 'I' for Inactive)
REMARK    1  A    between atoms: C_1  and  C_2
REMARK    2  A    between atoms: C_2  and  O_3
REMARK    3  A    between atoms: O_3  and  P_4
REMARK    4  A    between atoms: P_4  and  C_6
REMARK    5  A    between atoms: P_4  and  O_21
REMARK    6  A    between atoms: C_6  and  C_7
REMARK    7  A    between atoms: C_10  and  N_11
REMARK    8  A    between atoms: N_11  and  C_12
REMARK    9  A    between atoms: C_12  and  C_13
REMARK   10  A    between atoms: C_13  and  C_14
REMARK   11  A    between atoms: C_14  and  N_15
REMARK   12  A    between atoms: C_16  and  N_17
REMARK   13  A    between atoms: O_21  and  C_22
REMARK   14  A    between atoms: C_22  and  C_23
REMARK                            x       y       z     vdW  Elec       q    Type
REMARK                         _______ _______ _______ _____ _____    ______ ____
ROOT
ATOM      1  C   UNL     1       4.547   5.528  16.985  0.00  0.00    +0.000 A 
ATOM      2  C   UNL     1       4.667   4.360  17.736  0.00  0.00    +0.000 A 
ATOM      3  C   UNL     1       3.992   4.214  18.945  0.00  0.00    +0.000 A 
ATOM      4  C   UNL     1       3.159   5.231  19.465  0.00  0.00    +0.000 A 
ATOM      5  C   UNL     1       3.065   6.470  18.719  0.00  0.00    +0.000 A 
ATOM      6  C   UNL     1       3.765   6.573  17.488  0.00  0.00    +0.000 A 
ENDROOT
BRANCH   5   7
ATOM      7  N   UNL     1       2.304   7.614  19.141  0.00  0.00    +0.000 N 
ATOM      8  O   UNL     1       1.962   8.470  18.387  0.00  0.00    +0.000 OA
ATOM      9  O   UNL     1       1.896   7.706  20.392  0.00  0.00    +0.000 OA
ENDBRANCH   5   7
BRANCH   4  10
ATOM     10  N   UNL     1       2.416   4.973  20.682  0.00  0.00    +0.000 N 
ATOM     11  H   UNL     1       1.657   5.600  20.956  0.00  0.00    +0.000 HD
BRANCH  10  12
ATOM     12  C   UNL     1       2.323   3.664  21.319  0.00  0.00    +0.000 C 
BRANCH  12  13
ATOM     13  C   UNL     1       0.977   2.999  21.009  0.00  0.00    +0.000 C 
BRANCH  13  14
ATOM     14  C   UNL     1       0.829   2.776  19.497  0.00  0.00    +0.000 C 
BRANCH  14  15
ATOM     15  N   UNL     1       1.611   1.621  19.070  0.00  0.00    +0.000 NA
ATOM     16  H   UNL     1       2.608   1.911  18.945  0.00  0.00    +0.000 HD
ATOM     17  H   UNL     1       1.253   1.309  18.138  0.00  0.00    +0.000 HD
ENDBRANCH  14  15
ENDBRANCH  13  14
ENDBRANCH  12  13
ENDBRANCH  10  12
ENDBRANCH   4  10
BRANCH   1  18
ATOM     18  C   UNL     1       5.197   5.607  15.614  0.00  0.00    +0.000 C 
BRANCH  18  19
ATOM     19  P   UNL     1       6.884   4.768  15.433  0.00  0.00    +0.000 P 
ATOM     20  O   UNL     1       7.182   5.546  14.119  0.00  0.00    +0.000 OA
BRANCH  19  21
ATOM     21  O   UNL     1       6.186   3.562  14.408  0.00  0.00    +0.000 OA
BRANCH  21  23
ATOM     22  C   UNL     1       5.754   3.007  12.117  0.00  0.00    +0.000 C 
ATOM     23  C   UNL     1       6.283   4.051  13.091  0.00  0.00    +0.000 C 
ENDBRANCH  21  23
ENDBRANCH  19  21
BRANCH  19  24
ATOM     24  O   UNL     1       7.582   5.973  16.459  0.00  0.00    +0.000 OA
BRANCH  24  25
ATOM     25  C   UNL     1       7.779   5.542  17.796  0.00  0.00    +0.000 C 
ATOM     26  C   UNL     1       7.953   6.747  18.706  0.00  0.00    +0.000 C 
ENDBRANCH  24  25
ENDBRANCH  19  24
ENDBRANCH  18  19
ENDBRANCH   1  18
TORSDOF 12
ENDMDL
