MODEL 1
REMARK VINA RESULT:      -6.9      0.000      0.000
REMARK  Name = 
REMARK  3 active torsions:
REMARK  status: ('A' for Active; 'I' for Inactive)
REMARK    1  A    between atoms: C_1  and  O_2
REMARK    2  A    between atoms: O_2  and  C_3
REMARK    3  A    between atoms: C_10  and  C_11
REMARK                            x       y       z     vdW  Elec       q    Type
REMARK                         _______ _______ _______ _____ _____    ______ ____
ROOT
ATOM      1  C   UNL     1       2.720   2.753  19.035  0.00  0.00    +0.000 A 
ATOM      2  C   UNL     1       2.600   2.563  17.666  0.00  0.00    +0.000 A 
ATOM      3  C   UNL     1       3.565   3.080  16.805  0.00  0.00    +0.000 A 
ATOM      4  C   UNL     1       4.669   3.800  17.305  0.00  0.00    +0.000 A 
ATOM      5  C   UNL     1       4.796   4.001  18.697  0.00  0.00    +0.000 A 
ATOM      6  C   UNL     1       3.817   3.469  19.530  0.00  0.00    +0.000 A 
ATOM      7  N   UNL     1       5.818   4.676  19.248  0.00  0.00    +0.000 NA
ATOM      8  C   UNL     1       6.804   5.214  18.483  0.00  0.00    +0.000 A 
ATOM      9  C   UNL     1       7.906   5.955  19.173  0.00  0.00    +0.000 C 
ATOM     10  C   UNL     1       6.729   5.043  17.099  0.00  0.00    +0.000 A 
ATOM     11  N   UNL     1       7.594   5.486  16.121  0.00  0.00    +0.000 N 
ATOM     12  C   UNL     1       7.156   5.101  14.889  0.00  0.00    +0.000 A 
ATOM     13  C   UNL     1       5.989   4.403  15.073  0.00  0.00    +0.000 A 
ATOM     14 BR   UNL     1       5.013   3.670  13.643  0.00  0.00    +0.000 Br
ATOM     15  C   UNL     1       5.688   4.348  16.470  0.00  0.00    +0.000 A 
ATOM     16  H   UNL     1       8.436   6.017  16.299  0.00  0.00    +0.000 HD
ENDROOT
BRANCH   1  18
ATOM     17  C   UNL     1       1.949   2.859  21.277  0.00  0.00    +0.000 C 
ATOM     18  O   UNL     1       1.839   2.289  19.975  0.00  0.00    +0.000 OA
ENDBRANCH   1  18
TORSDOF 1
ENDMDL
MODEL 2
REMARK VINA RESULT:      -6.8      4.159      5.256
REMARK  Name = 
REMARK  3 active torsions:
REMARK  status: ('A' for Active; 'I' for Inactive)
REMARK    1  A    between atoms: C_1  and  O_2
REMARK    2  A    between atoms: O_2  and  C_3
REMARK    3  A    between atoms: C_10  and  C_11
REMARK                            x       y       z     vdW  Elec       q    Type
REMARK                         _______ _______ _______ _____ _____    ______ ____
ROOT
ATOM      1  C   UNL     1       2.340   8.381  18.513  0.00  0.00    +0.000 A 
ATOM      2  C   UNL     1       1.854   7.701  19.620  0.00  0.00    +0.000 A 
ATOM      3  C   UNL     1       2.206   6.371  19.829  0.00  0.00    +0.000 A 
ATOM      4  C   UNL     1       3.055   5.697  18.928  0.00  0.00    +0.000 A 
ATOM      5  C   UNL     1       3.553   6.382  17.797  0.00  0.00    +0.000 A 
ATOM      6  C   UNL     1       3.184   7.712  17.618  0.00  0.00    +0.000 A 
ATOM      7  N   UNL     1       4.365   5.808  16.894  0.00  0.00    +0.000 NA
ATOM      8  C   UNL     1       4.760   4.514  17.020  0.00  0.00    +0.000 A 
ATOM      9  C   UNL     1       5.663   3.948  15.969  0.00  0.00    +0.000 C 
ATOM     10  C   UNL     1       4.299   3.791  18.122  0.00  0.00    +0.000 A 
ATOM     11  N   UNL     1       4.555   2.481  18.470  0.00  0.00    +0.000 N 
ATOM     12  C   UNL     1       3.911   2.163  19.629  0.00  0.00    +0.000 A 
ATOM     13  C   UNL     1       3.226   3.282  20.033  0.00  0.00    +0.000 A 
ATOM     14 BR   UNL     1       2.184   3.318  21.596  0.00  0.00    +0.000 Br
ATOM     15  C   UNL     1       3.452   4.337  19.095  0.00  0.00    +0.000 A 
ATOM     16  H   UNL     1       5.141   1.851  17.939  0.00  0.00    +0.000 HD
ENDROOT
BRANCH   1  18
ATOM     17  C   UNL     1       0.733  10.127  18.451  0.00  0.00    +0.000 C 
ATOM     18  O   UNL     1       2.067   9.688  18.207  0.00  0.00    +0.000 OA
ENDBRANCH   1  18
TORSDOF 1
ENDMDL
MODEL 3
REMARK VINA RESULT:      -6.8      3.385      5.454
REMARK  Name = 
REMARK  3 active torsions:
REMARK  status: ('A' for Active; 'I' for Inactive)
REMARK    1  A    between atoms: C_1  and  O_2
REMARK    2  A    between atoms: O_2  and  C_3
REMARK    3  A    between atoms: C_10  and  C_11
REMARK                            x       y       z     vdW  Elec       q    Type
REMARK                         _______ _______ _______ _____ _____    ______ ____
ROOT
ATOM      1  C   UNL     1       5.924   4.978  15.576  0.00  0.00    +0.000 A 
ATOM      2  C   UNL     1       5.343   6.237  15.565  0.00  0.00    +0.000 A 
ATOM      3  C   UNL     1       4.464   6.606  16.580  0.00  0.00    +0.000 A 
ATOM      4  C   UNL     1       4.153   5.715  17.627  0.00  0.00    +0.000 A 
ATOM      5  C   UNL     1       4.738   4.429  17.643  0.00  0.00    +0.000 A 
ATOM      6  C   UNL     1       5.614   4.093  16.616  0.00  0.00    +0.000 A 
ATOM      7  N   UNL     1       4.490   3.526  18.605  0.00  0.00    +0.000 NA
ATOM      8  C   UNL     1       3.646   3.801  19.634  0.00  0.00    +0.000 A 
ATOM      9  C   UNL     1       3.420   2.739  20.664  0.00  0.00    +0.000 C 
ATOM     10  C   UNL     1       3.041   5.059  19.668  0.00  0.00    +0.000 A 
ATOM     11  N   UNL     1       2.159   5.574  20.595  0.00  0.00    +0.000 N 
ATOM     12  C   UNL     1       1.808   6.848  20.260  0.00  0.00    +0.000 A 
ATOM     13  C   UNL     1       2.469   7.159  19.098  0.00  0.00    +0.000 A 
ATOM     14 BR   UNL     1       2.293   8.828  18.251  0.00  0.00    +0.000 Br
ATOM     15  C   UNL     1       3.263   6.041  18.694  0.00  0.00    +0.000 A 
ATOM     16  H   UNL     1       1.827   5.074  21.408  0.00  0.00    +0.000 HD
ENDROOT
BRANCH   1  18
ATOM     17  C   UNL     1       6.232   3.817  13.528  0.00  0.00    +0.000 C 
ATOM     18  O   UNL     1       6.804   4.507  14.637  0.00  0.00    +0.000 OA
ENDBRANCH   1  18
TORSDOF 1
ENDMDL
MODEL 4
REMARK VINA RESULT:      -6.7      3.705      5.649
REMARK  Name = 
REMARK  3 active torsions:
REMARK  status: ('A' for Active; 'I' for Inactive)
REMARK    1  A    between atoms: C_1  and  O_2
REMARK    2  A    between atoms: O_2  and  C_3
REMARK    3  A    between atoms: C_10  and  C_11
REMARK                            x       y       z     vdW  Elec       q    Type
REMARK                         _______ _______ _______ _____ _____    ______ ____
ROOT
ATOM      1  C   UNL     1       5.966   5.290  15.664  0.00  0.00    +0.000 A 
ATOM      2  C   UNL     1       5.933   4.161  16.470  0.00  0.00    +0.000 A 
ATOM      3  C   UNL     1       5.101   4.127  17.586  0.00  0.00    +0.000 A 
ATOM      4  C   UNL     1       4.286   5.229  17.914  0.00  0.00    +0.000 A 
ATOM      5  C   UNL     1       4.315   6.383  17.101  0.00  0.00    +0.000 A 
ATOM      6  C   UNL     1       5.155   6.385  15.991  0.00  0.00    +0.000 A 
ATOM      7  N   UNL     1       3.569   7.472  17.349  0.00  0.00    +0.000 NA
ATOM      8  C   UNL     1       2.729   7.525  18.416  0.00  0.00    +0.000 A 
ATOM      9  C   UNL     1       1.934   8.776  18.625  0.00  0.00    +0.000 C 
ATOM     10  C   UNL     1       2.658   6.409  19.252  0.00  0.00    +0.000 A 
ATOM     11  N   UNL     1       1.892   6.218  20.383  0.00  0.00    +0.000 N 
ATOM     12  C   UNL     1       2.118   4.979  20.906  0.00  0.00    +0.000 A 
ATOM     13  C   UNL     1       3.046   4.363  20.105  0.00  0.00    +0.000 A 
ATOM     14 BR   UNL     1       3.672   2.622  20.438  0.00  0.00    +0.000 Br
ATOM     15  C   UNL     1       3.412   5.247  19.042  0.00  0.00    +0.000 A 
ATOM     16  H   UNL     1       1.252   6.902  20.763  0.00  0.00    +0.000 HD
ENDROOT
BRANCH   1  18
ATOM     17  C   UNL     1       6.644   4.396  13.573  0.00  0.00    +0.000 C 
ATOM     18  O   UNL     1       6.738   5.437  14.543  0.00  0.00    +0.000 OA
ENDBRANCH   1  18
TORSDOF 1
ENDMDL
MODEL 5
REMARK VINA RESULT:      -6.7      3.513      5.598
REMARK  Name = 
REMARK  3 active torsions:
REMARK  status: ('A' for Active; 'I' for Inactive)
REMARK    1  A    between atoms: C_1  and  O_2
REMARK    2  A    between atoms: O_2  and  C_3
REMARK    3  A    between atoms: C_10  and  C_11
REMARK                            x       y       z     vdW  Elec       q    Type
REMARK                         _______ _______ _______ _____ _____    ______ ____
ROOT
ATOM      1  C   UNL     1       5.400   5.461  15.822  0.00  0.00    +0.000 A 
ATOM      2  C   UNL     1       5.079   4.136  16.081  0.00  0.00    +0.000 A 
ATOM      3  C   UNL     1       4.164   3.825  17.083  0.00  0.00    +0.000 A 
ATOM      4  C   UNL     1       3.552   4.841  17.844  0.00  0.00    +0.000 A 
ATOM      5  C   UNL     1       3.875   6.192  17.589  0.00  0.00    +0.000 A 
ATOM      6  C   UNL     1       4.792   6.470  16.580  0.00  0.00    +0.000 A 
ATOM      7  N   UNL     1       3.335   7.214  18.273  0.00  0.00    +0.000 NA
ATOM      8  C   UNL     1       2.432   7.003  19.266  0.00  0.00    +0.000 A 
ATOM      9  C   UNL     1       1.880   8.195  19.982  0.00  0.00    +0.000 C 
ATOM     10  C   UNL     1       2.075   5.685  19.558  0.00  0.00    +0.000 A 
ATOM     11  N   UNL     1       1.191   5.215  20.508  0.00  0.00    +0.000 N 
ATOM     12  C   UNL     1       1.127   3.854  20.464  0.00  0.00    +0.000 A 
ATOM     13  C   UNL     1       1.984   3.439  19.475  0.00  0.00    +0.000 A 
ATOM     14 BR   UNL     1       2.230   1.625  19.048  0.00  0.00    +0.000 Br
ATOM     15  C   UNL     1       2.604   4.580  18.879  0.00  0.00    +0.000 A 
ATOM     16  H   UNL     1       0.666   5.802  21.141  0.00  0.00    +0.000 HD
ENDROOT
BRANCH   1  18
ATOM     17  C   UNL     1       6.981   4.868  14.154  0.00  0.00    +0.000 C 
ATOM     18  O   UNL     1       6.279   5.887  14.863  0.00  0.00    +0.000 OA
ENDBRANCH   1  18
TORSDOF 1
ENDMDL
MODEL 6
REMARK VINA RESULT:      -6.6      3.414      5.498
REMARK  Name = 
REMARK  3 active torsions:
REMARK  status: ('A' for Active; 'I' for Inactive)
REMARK    1  A    between atoms: C_1  and  O_2
REMARK    2  A    between atoms: O_2  and  C_3
REMARK    3  A    between atoms: C_10  and  C_11
REMARK                            x       y       z     vdW  Elec       q    Type
REMARK                         _______ _______ _______ _____ _____    ______ ____
ROOT
ATOM      1  C   UNL     1       6.600   5.205  15.243  0.00  0.00    +0.000 A 
ATOM      2  C   UNL     1       6.323   3.904  15.638  0.00  0.00    +0.000 A 
ATOM      3  C   UNL     1       5.290   3.656  16.538  0.00  0.00    +0.000 A 
ATOM      4  C   UNL     1       4.515   4.712  17.059  0.00  0.00    +0.000 A 
ATOM      5  C   UNL     1       4.793   6.039  16.664  0.00  0.00    +0.000 A 
ATOM      6  C   UNL     1       5.830   6.253  15.761  0.00  0.00    +0.000 A 
ATOM      7  N   UNL     1       4.100   7.097  17.117  0.00  0.00    +0.000 NA
ATOM      8  C   UNL     1       3.075   6.946  17.997  0.00  0.00    +0.000 A 
ATOM      9  C   UNL     1       2.355   8.176  18.456  0.00  0.00    +0.000 C 
ATOM     10  C   UNL     1       2.756   5.655  18.419  0.00  0.00    +0.000 A 
ATOM     11  N   UNL     1       1.772   5.245  19.294  0.00  0.00    +0.000 N 
ATOM     12  C   UNL     1       1.794   3.889  19.433  0.00  0.00    +0.000 A 
ATOM     13  C   UNL     1       2.809   3.416  18.639  0.00  0.00    +0.000 A 
ATOM     14 BR   UNL     1       3.220   1.587  18.507  0.00  0.00    +0.000 Br
ATOM     15  C   UNL     1       3.443   4.515  17.980  0.00  0.00    +0.000 A 
ATOM     16  H   UNL     1       1.126   5.866  19.761  0.00  0.00    +0.000 HD
ENDROOT
BRANCH   1  18
ATOM     17  C   UNL     1       7.513   4.991  13.062  0.00  0.00    +0.000 C 
ATOM     18  O   UNL     1       7.585   5.569  14.363  0.00  0.00    +0.000 OA
ENDBRANCH   1  18
TORSDOF 1
ENDMDL
MODEL 7
REMARK VINA RESULT:      -6.6      3.447      5.717
REMARK  Name = 
REMARK  3 active torsions:
REMARK  status: ('A' for Active; 'I' for Inactive)
REMARK    1  A    between atoms: C_1  and  O_2
REMARK    2  A    between atoms: O_2  and  C_3
REMARK    3  A    between atoms: C_10  and  C_11
REMARK                            x       y       z     vdW  Elec       q    Type
REMARK                         _______ _______ _______ _____ _____    ______ ____
ROOT
ATOM      1  C   UNL     1       5.675   5.554  15.533  0.00  0.00    +0.000 A 
ATOM      2  C   UNL     1       5.115   6.684  16.111  0.00  0.00    +0.000 A 
ATOM      3  C   UNL     1       4.234   6.554  17.182  0.00  0.00    +0.000 A 
ATOM      4  C   UNL     1       3.899   5.283  17.692  0.00  0.00    +0.000 A 
ATOM      5  C   UNL     1       4.463   4.127  17.107  0.00  0.00    +0.000 A 
ATOM      6  C   UNL     1       5.342   4.293  16.040  0.00  0.00    +0.000 A 
ATOM      7  N   UNL     1       4.192   2.884  17.536  0.00  0.00    +0.000 NA
ATOM      8  C   UNL     1       3.344   2.664  18.575  0.00  0.00    +0.000 A 
ATOM      9  C   UNL     1       3.092   1.248  18.991  0.00  0.00    +0.000 C 
ATOM     10  C   UNL     1       2.761   3.772  19.192  0.00  0.00    +0.000 A 
ATOM     11  N   UNL     1       1.880   3.811  20.253  0.00  0.00    +0.000 N 
ATOM     12  C   UNL     1       1.553   5.101  20.551  0.00  0.00    +0.000 A 
ATOM     13  C   UNL     1       2.228   5.905  19.668  0.00  0.00    +0.000 A 
ATOM     14 BR   UNL     1       2.087   7.780  19.697  0.00  0.00    +0.000 Br
ATOM     15  C   UNL     1       3.007   5.091  18.788  0.00  0.00    +0.000 A 
ATOM     16  H   UNL     1       1.532   2.996  20.740  0.00  0.00    +0.000 HD
ENDROOT
BRANCH   1  18
ATOM     17  C   UNL     1       6.624   4.361  13.713  0.00  0.00    +0.000 C 
ATOM     18  O   UNL     1       6.554   5.560  14.482  0.00  0.00    +0.000 OA
ENDBRANCH   1  18
TORSDOF 1
ENDMDL
MODEL 8
REMARK VINA RESULT:      -6.4      4.354      5.272
REMARK  Name = 
REMARK  3 active torsions:
REMARK  status: ('A' for Active; 'I' for Inactive)
REMARK    1  A    between atoms: C_1  and  O_2
REMARK    2  A    between atoms: O_2  and  C_3
REMARK    3  A    between atoms: C_10  and  C_11
REMARK                            x       y       z     vdW  Elec       q    Type
REMARK                         _______ _______ _______ _____ _____    ______ ____
ROOT
ATOM      1  C   UNL     1       1.393   9.238  19.159  0.00  0.00    +0.000 A 
ATOM      2  C   UNL     1       2.228   9.144  18.055  0.00  0.00    +0.000 A 
ATOM      3  C   UNL     1       2.950   7.976  17.827  0.00  0.00    +0.000 A 
ATOM      4  C   UNL     1       2.846   6.879  18.706  0.00  0.00    +0.000 A 
ATOM      5  C   UNL     1       2.001   6.968  19.834  0.00  0.00    +0.000 A 
ATOM      6  C   UNL     1       1.291   8.148  20.031  0.00  0.00    +0.000 A 
ATOM      7  N   UNL     1       1.851   5.966  20.716  0.00  0.00    +0.000 NA
ATOM      8  C   UNL     1       2.517   4.790  20.570  0.00  0.00    +0.000 A 
ATOM      9  C   UNL     1       2.297   3.725  21.599  0.00  0.00    +0.000 C 
ATOM     10  C   UNL     1       3.364   4.647  19.471  0.00  0.00    +0.000 A 
ATOM     11  N   UNL     1       4.139   3.566  19.106  0.00  0.00    +0.000 N 
ATOM     12  C   UNL     1       4.820   3.836  17.956  0.00  0.00    +0.000 A 
ATOM     13  C   UNL     1       4.485   5.111  17.575  0.00  0.00    +0.000 A 
ATOM     14 BR   UNL     1       5.187   5.922  16.032  0.00  0.00    +0.000 Br
ATOM     15  C   UNL     1       3.559   5.657  18.518  0.00  0.00    +0.000 A 
ATOM     16  H   UNL     1       4.187   2.697  19.620  0.00  0.00    +0.000 HD
ENDROOT
BRANCH   1  18
ATOM     17  C   UNL     1      -0.206  10.200  20.627  0.00  0.00    +0.000 C 
ATOM     18  O   UNL     1       0.633  10.331  19.482  0.00  0.00    +0.000 OA
ENDBRANCH   1  18
TORSDOF 1
ENDMDL
MODEL 9
REMARK VINA RESULT:      -6.4      3.804      5.188
REMARK  Name = 
REMARK  3 active torsions:
REMARK  status: ('A' for Active; 'I' for Inactive)
REMARK    1  A    between atoms: C_1  and  O_2
REMARK    2  A    between atoms: O_2  and  C_3
REMARK    3  A    between atoms: C_10  and  C_11
REMARK                            x       y       z     vdW  Elec       q    Type
REMARK                         _______ _______ _______ _____ _____    ______ ____
ROOT
ATOM      1  C   UNL     1       1.848   8.235  19.447  0.00  0.00    +0.000 A 
ATOM      2  C   UNL     1       2.612   7.998  18.313  0.00  0.00    +0.000 A 
ATOM      3  C   UNL     1       3.074   6.713  18.042  0.00  0.00    +0.000 A 
ATOM      4  C   UNL     1       2.776   5.640  18.907  0.00  0.00    +0.000 A 
ATOM      5  C   UNL     1       2.001   5.874  20.064  0.00  0.00    +0.000 A 
ATOM      6  C   UNL     1       1.553   7.169  20.305  0.00  0.00    +0.000 A 
ATOM      7  N   UNL     1       1.677   4.904  20.935  0.00  0.00    +0.000 NA
ATOM      8  C   UNL     1       2.085   3.621  20.749  0.00  0.00    +0.000 A 
ATOM      9  C   UNL     1       1.684   2.600  21.767  0.00  0.00    +0.000 C 
ATOM     10  C   UNL     1       2.852   3.334  19.619  0.00  0.00    +0.000 A 
ATOM     11  N   UNL     1       3.378   2.126  19.210  0.00  0.00    +0.000 N 
ATOM     12  C   UNL     1       4.065   2.278  18.042  0.00  0.00    +0.000 A 
ATOM     13  C   UNL     1       3.985   3.602  17.693  0.00  0.00    +0.000 A 
ATOM     14 BR   UNL     1       4.790   4.288  16.139  0.00  0.00    +0.000 Br
ATOM     15  C   UNL     1       3.219   4.303  18.676  0.00  0.00    +0.000 A 
ATOM     16  H   UNL     1       3.265   1.254  19.709  0.00  0.00    +0.000 HD
ENDROOT
BRANCH   1  18
ATOM     17  C   UNL     1       0.684  10.195  18.786  0.00  0.00    +0.000 C 
ATOM     18  O   UNL     1       1.337   9.452  19.812  0.00  0.00    +0.000 OA
ENDBRANCH   1  18
TORSDOF 1
ENDMDL
