MODEL 1
REMARK VINA RESULT:      -8.4      0.000      0.000
REMARK  Name = 
REMARK  4 active torsions:
REMARK  status: ('A' for Active; 'I' for Inactive)
REMARK    1  A    between atoms: C_2  and  O_3
REMARK    2  A    between atoms: C_2  and  C_4
REMARK    3  A    between atoms: N_7  and  C_8
REMARK    4  A    between atoms: C_8  and  C_9
REMARK                            x       y       z     vdW  Elec       q    Type
REMARK                         _______ _______ _______ _____ _____    ______ ____
ROOT
ATOM      1  C   UNL     1       4.926   3.643  18.358  0.00  0.00    +0.000 A 
ATOM      2  N   UNL     1       4.640   3.663  17.083  0.00  0.00    +0.000 NA
ATOM      3  C   UNL     1       5.693   4.098  16.274  0.00  0.00    +0.000 A 
ATOM      4  C   UNL     1       6.863   4.590  16.774  0.00  0.00    +0.000 A 
ATOM      5  O   UNL     1       7.704   4.959  15.776  0.00  0.00    +0.000 OA
ATOM      6  C   UNL     1       7.062   4.626  14.610  0.00  0.00    +0.000 A 
ATOM      7  C   UNL     1       7.587   4.796  13.329  0.00  0.00    +0.000 A 
ATOM      8  C   UNL     1       6.798   4.338  12.267  0.00  0.00    +0.000 A 
ATOM      9  C   UNL     1       5.551   3.753  12.498  0.00  0.00    +0.000 A 
ATOM     10 BR   UNL     1       4.552   3.100  11.027  0.00  0.00    +0.000 Br
ATOM     11  C   UNL     1       5.030   3.620  13.794  0.00  0.00    +0.000 A 
ATOM     12  C   UNL     1       5.809   4.068  14.873  0.00  0.00    +0.000 A 
ATOM     13  C   UNL     1       7.157   4.637  18.165  0.00  0.00    +0.000 A 
ATOM     14  O   UNL     1       8.157   5.104  18.698  0.00  0.00    +0.000 OA
ATOM     15  N   UNL     1       6.132   4.075  18.905  0.00  0.00    +0.000 N 
ATOM     16  H   UNL     1       6.298   4.037  19.900  0.00  0.00    +0.000 HD
ENDROOT
BRANCH   1  17
ATOM     17  C   UNL     1       3.879   3.194  19.390  0.00  0.00    +0.000 C 
BRANCH  17  21
ATOM     18  C   UNL     1       2.864   6.250  18.574  0.00  0.00    +0.000 C 
ATOM     19  C   UNL     1       1.789   5.202  18.345  0.00  0.00    +0.000 C 
ATOM     20  C   UNL     1       1.771   4.469  19.674  0.00  0.00    +0.000 C 
ATOM     21  N   UNL     1       3.192   4.327  20.044  0.00  0.00    +0.000 NA
ATOM     22  C   UNL     1       3.793   5.623  19.626  0.00  0.00    +0.000 C 
BRANCH  18  24
ATOM     23  O   UNL     1       1.830   8.448  18.347  0.00  0.00    +0.000 OA
ATOM     24  C   UNL     1       2.227   7.540  19.059  0.00  0.00    +0.000 C 
BRANCH  24  25
ATOM     25  O   UNL     1       2.173   7.624  20.410  0.00  0.00    +0.000 OA
ATOM     26  H   UNL     1       2.794   8.264  20.806  0.00  0.00    +0.000 HD
ENDBRANCH  24  25
ENDBRANCH  18  24
ENDBRANCH  17  21
ENDBRANCH   1  17
TORSDOF 4
ENDMDL
MODEL 2
REMARK VINA RESULT:      -8.3      2.151      2.804
REMARK  Name = 
REMARK  4 active torsions:
REMARK  status: ('A' for Active; 'I' for Inactive)
REMARK    1  A    between atoms: C_2  and  O_3
REMARK    2  A    between atoms: C_2  and  C_4
REMARK    3  A    between atoms: N_7  and  C_8
REMARK    4  A    between atoms: C_8  and  C_9
REMARK                            x       y       z     vdW  Elec       q    Type
REMARK                         _______ _______ _______ _____ _____    ______ ____
ROOT
ATOM      1  C   UNL     1       4.601   5.752  17.671  0.00  0.00    +0.000 A 
ATOM      2  N   UNL     1       4.444   5.275  16.465  0.00  0.00    +0.000 NA
ATOM      3  C   UNL     1       5.607   5.301  15.690  0.00  0.00    +0.000 A 
ATOM      4  C   UNL     1       6.763   5.896  16.101  0.00  0.00    +0.000 A 
ATOM      5  O   UNL     1       7.729   5.797  15.154  0.00  0.00    +0.000 OA
ATOM      6  C   UNL     1       7.175   5.056  14.140  0.00  0.00    +0.000 A 
ATOM      7  C   UNL     1       7.837   4.676  12.972  0.00  0.00    +0.000 A 
ATOM      8  C   UNL     1       7.116   3.870  12.083  0.00  0.00    +0.000 A 
ATOM      9  C   UNL     1       5.803   3.485  12.364  0.00  0.00    +0.000 A 
ATOM     10 BR   UNL     1       4.896   2.347  11.152  0.00  0.00    +0.000 Br
ATOM     11  C   UNL     1       5.148   3.905  13.532  0.00  0.00    +0.000 A 
ATOM     12  C   UNL     1       5.856   4.709  14.439  0.00  0.00    +0.000 A 
ATOM     13  C   UNL     1       6.923   6.481  17.388  0.00  0.00    +0.000 A 
ATOM     14  O   UNL     1       7.906   7.074  17.819  0.00  0.00    +0.000 OA
ATOM     15  N   UNL     1       5.783   6.309  18.154  0.00  0.00    +0.000 N 
ATOM     16  H   UNL     1       5.846   6.664  19.096  0.00  0.00    +0.000 HD
ENDROOT
BRANCH   1  17
ATOM     17  C   UNL     1       3.421   5.802  18.654  0.00  0.00    +0.000 C 
BRANCH  17  21
ATOM     18  C   UNL     1       1.916   3.449  20.453  0.00  0.00    +0.000 C 
ATOM     19  C   UNL     1       2.870   2.870  19.424  0.00  0.00    +0.000 C 
ATOM     20  C   UNL     1       4.137   3.662  19.684  0.00  0.00    +0.000 C 
ATOM     21  N   UNL     1       3.678   5.047  19.899  0.00  0.00    +0.000 NA
ATOM     22  C   UNL     1       2.425   4.880  20.685  0.00  0.00    +0.000 C 
BRANCH  18  24
ATOM     23  O   UNL     1       2.946   2.079  22.189  0.00  0.00    +0.000 OA
ATOM     24  C   UNL     1       1.953   2.609  21.717  0.00  0.00    +0.000 C 
BRANCH  24  25
ATOM     25  O   UNL     1       0.731   2.453  22.281  0.00  0.00    +0.000 OA
ATOM     26  H   UNL     1       0.701   2.607  23.243  0.00  0.00    +0.000 HD
ENDBRANCH  24  25
ENDBRANCH  18  24
ENDBRANCH  17  21
ENDBRANCH   1  17
TORSDOF 4
ENDMDL
MODEL 3
REMARK VINA RESULT:      -8.2      2.212      2.781
REMARK  Name = 
REMARK  4 active torsions:
REMARK  status: ('A' for Active; 'I' for Inactive)
REMARK    1  A    between atoms: C_2  and  O_3
REMARK    2  A    between atoms: C_2  and  C_4
REMARK    3  A    between atoms: N_7  and  C_8
REMARK    4  A    between atoms: C_8  and  C_9
REMARK                            x       y       z     vdW  Elec       q    Type
REMARK                         _______ _______ _______ _____ _____    ______ ____
ROOT
ATOM      1  C   UNL     1       4.398   5.548  17.544  0.00  0.00    +0.000 A 
ATOM      2  N   UNL     1       4.338   5.047  16.339  0.00  0.00    +0.000 NA
ATOM      3  C   UNL     1       5.525   5.175  15.613  0.00  0.00    +0.000 A 
ATOM      4  C   UNL     1       6.603   5.878  16.065  0.00  0.00    +0.000 A 
ATOM      5  O   UNL     1       7.613   5.860  15.160  0.00  0.00    +0.000 OA
ATOM      6  C   UNL     1       7.174   5.063  14.133  0.00  0.00    +0.000 A 
ATOM      7  C   UNL     1       7.917   4.735  12.999  0.00  0.00    +0.000 A 
ATOM      8  C   UNL     1       7.313   3.858  12.091  0.00  0.00    +0.000 A 
ATOM      9  C   UNL     1       6.030   3.356  12.321  0.00  0.00    +0.000 A 
ATOM     10 BR   UNL     1       5.284   2.128  11.087  0.00  0.00    +0.000 Br
ATOM     11  C   UNL     1       5.289   3.723  13.455  0.00  0.00    +0.000 A 
ATOM     12  C   UNL     1       5.881   4.597  14.381  0.00  0.00    +0.000 A 
ATOM     13  C   UNL     1       6.653   6.486  17.350  0.00  0.00    +0.000 A 
ATOM     14  O   UNL     1       7.558   7.171  17.814  0.00  0.00    +0.000 OA
ATOM     15  N   UNL     1       5.502   6.216  18.069  0.00  0.00    +0.000 N 
ATOM     16  H   UNL     1       5.492   6.583  19.009  0.00  0.00    +0.000 HD
ENDROOT
BRANCH   1  17
ATOM     17  C   UNL     1       3.178   5.496  18.477  0.00  0.00    +0.000 C 
BRANCH  17  21
ATOM     18  C   UNL     1       2.273   4.018  21.312  0.00  0.00    +0.000 C 
ATOM     19  C   UNL     1       1.081   4.438  20.471  0.00  0.00    +0.000 C 
ATOM     20  C   UNL     1       1.429   3.857  19.113  0.00  0.00    +0.000 C 
ATOM     21  N   UNL     1       2.869   4.129  18.945  0.00  0.00    +0.000 NA
ATOM     22  C   UNL     1       3.428   3.895  20.305  0.00  0.00    +0.000 C 
BRANCH  18  24
ATOM     23  O   UNL     1       0.894   2.384  22.485  0.00  0.00    +0.000 OA
ATOM     24  C   UNL     1       1.971   2.704  22.010  0.00  0.00    +0.000 C 
BRANCH  24  25
ATOM     25  O   UNL     1       3.056   1.899  22.106  0.00  0.00    +0.000 OA
ATOM     26  H   UNL     1       2.858   0.944  22.109  0.00  0.00    +0.000 HD
ENDBRANCH  24  25
ENDBRANCH  18  24
ENDBRANCH  17  21
ENDBRANCH   1  17
TORSDOF 4
ENDMDL
MODEL 4
REMARK VINA RESULT:      -7.8      2.257      2.658
REMARK  Name = 
REMARK  4 active torsions:
REMARK  status: ('A' for Active; 'I' for Inactive)
REMARK    1  A    between atoms: C_2  and  O_3
REMARK    2  A    between atoms: C_2  and  C_4
REMARK    3  A    between atoms: N_7  and  C_8
REMARK    4  A    between atoms: C_8  and  C_9
REMARK                            x       y       z     vdW  Elec       q    Type
REMARK                         _______ _______ _______ _____ _____    ______ ____
ROOT
ATOM      1  C   UNL     1       5.698   4.740  18.315  0.00  0.00    +0.000 A 
ATOM      2  N   UNL     1       5.443   4.300  17.112  0.00  0.00    +0.000 NA
ATOM      3  C   UNL     1       6.265   4.846  16.123  0.00  0.00    +0.000 A 
ATOM      4  C   UNL     1       7.159   5.847  16.367  0.00  0.00    +0.000 A 
ATOM      5  O   UNL     1       7.813   6.205  15.234  0.00  0.00    +0.000 OA
ATOM      6  C   UNL     1       7.358   5.352  14.260  0.00  0.00    +0.000 A 
ATOM      7  C   UNL     1       7.799   5.339  12.937  0.00  0.00    +0.000 A 
ATOM      8  C   UNL     1       7.253   4.351  12.109  0.00  0.00    +0.000 A 
ATOM      9  C   UNL     1       6.314   3.441  12.599  0.00  0.00    +0.000 A 
ATOM     10 BR   UNL     1       5.652   2.088  11.449  0.00  0.00    +0.000 Br
ATOM     11  C   UNL     1       5.863   3.492  13.927  0.00  0.00    +0.000 A 
ATOM     12  C   UNL     1       6.403   4.473  14.775  0.00  0.00    +0.000 A 
ATOM     13  C   UNL     1       7.395   6.382  17.664  0.00  0.00    +0.000 A 
ATOM     14  O   UNL     1       8.140   7.309  17.962  0.00  0.00    +0.000 OA
ATOM     15  N   UNL     1       6.647   5.714  18.617  0.00  0.00    +0.000 N 
ATOM     16  H   UNL     1       6.801   6.017  19.567  0.00  0.00    +0.000 HD
ENDROOT
BRANCH   1  17
ATOM     17  C   UNL     1       4.883   4.245  19.521  0.00  0.00    +0.000 C 
BRANCH  17  21
ATOM     18  C   UNL     1       2.166   2.337  19.389  0.00  0.00    +0.000 C 
ATOM     19  C   UNL     1       2.469   2.818  20.798  0.00  0.00    +0.000 C 
ATOM     20  C   UNL     1       2.647   4.310  20.592  0.00  0.00    +0.000 C 
ATOM     21  N   UNL     1       3.427   4.429  19.345  0.00  0.00    +0.000 NA
ATOM     22  C   UNL     1       2.859   3.361  18.477  0.00  0.00    +0.000 C 
BRANCH  18  24
ATOM     23  O   UNL     1       0.102   1.893  18.168  0.00  0.00    +0.000 OA
ATOM     24  C   UNL     1       0.664   2.292  19.175  0.00  0.00    +0.000 C 
BRANCH  24  25
ATOM     25  O   UNL     1      -0.032   2.795  20.223  0.00  0.00    +0.000 OA
ATOM     26  H   UNL     1      -0.234   2.150  20.926  0.00  0.00    +0.000 HD
ENDBRANCH  24  25
ENDBRANCH  18  24
ENDBRANCH  17  21
ENDBRANCH   1  17
TORSDOF 4
ENDMDL
MODEL 5
REMARK VINA RESULT:      -7.8      3.039      7.074
REMARK  Name = 
REMARK  4 active torsions:
REMARK  status: ('A' for Active; 'I' for Inactive)
REMARK    1  A    between atoms: C_2  and  O_3
REMARK    2  A    between atoms: C_2  and  C_4
REMARK    3  A    between atoms: N_7  and  C_8
REMARK    4  A    between atoms: C_8  and  C_9
REMARK                            x       y       z     vdW  Elec       q    Type
REMARK                         _______ _______ _______ _____ _____    ______ ____
ROOT
ATOM      1  C   UNL     1       4.498   4.158  17.431  0.00  0.00    +0.000 A 
ATOM      2  N   UNL     1       3.838   5.286  17.403  0.00  0.00    +0.000 NA
ATOM      3  C   UNL     1       3.162   5.576  18.591  0.00  0.00    +0.000 A 
ATOM      4  C   UNL     1       3.081   4.701  19.635  0.00  0.00    +0.000 A 
ATOM      5  O   UNL     1       2.352   5.222  20.653  0.00  0.00    +0.000 OA
ATOM      6  C   UNL     1       2.021   6.493  20.258  0.00  0.00    +0.000 A 
ATOM      7  C   UNL     1       1.301   7.409  21.025  0.00  0.00    +0.000 A 
ATOM      8  C   UNL     1       1.115   8.679  20.466  0.00  0.00    +0.000 A 
ATOM      9  C   UNL     1       1.624   8.990  19.202  0.00  0.00    +0.000 A 
ATOM     10 BR   UNL     1       1.392  10.742  18.520  0.00  0.00    +0.000 Br
ATOM     11  C   UNL     1       2.320   8.043  18.436  0.00  0.00    +0.000 A 
ATOM     12  C   UNL     1       2.522   6.765  18.983  0.00  0.00    +0.000 A 
ATOM     13  C   UNL     1       3.739   3.440  19.647  0.00  0.00    +0.000 A 
ATOM     14  O   UNL     1       3.680   2.580  20.518  0.00  0.00    +0.000 OA
ATOM     15  N   UNL     1       4.495   3.266  18.502  0.00  0.00    +0.000 N 
ATOM     16  H   UNL     1       5.023   2.407  18.467  0.00  0.00    +0.000 HD
ENDROOT
BRANCH   1  17
ATOM     17  C   UNL     1       5.294   3.684  16.205  0.00  0.00    +0.000 C 
BRANCH  17  21
ATOM     18  C   UNL     1       7.461   4.321  13.768  0.00  0.00    +0.000 C 
ATOM     19  C   UNL     1       6.208   3.627  13.263  0.00  0.00    +0.000 C 
ATOM     20  C   UNL     1       5.107   4.482  13.864  0.00  0.00    +0.000 C 
ATOM     21  N   UNL     1       5.562   4.769  15.238  0.00  0.00    +0.000 NA
ATOM     22  C   UNL     1       7.025   4.990  15.081  0.00  0.00    +0.000 C 
BRANCH  18  24
ATOM     23  O   UNL     1       7.532   5.419  11.591  0.00  0.00    +0.000 OA
ATOM     24  C   UNL     1       7.942   5.326  12.737  0.00  0.00    +0.000 C 
BRANCH  24  25
ATOM     25  O   UNL     1       8.938   6.118  13.201  0.00  0.00    +0.000 OA
ATOM     26  H   UNL     1       9.272   5.879  14.085  0.00  0.00    +0.000 HD
ENDBRANCH  24  25
ENDBRANCH  18  24
ENDBRANCH  17  21
ENDBRANCH   1  17
TORSDOF 4
ENDMDL
MODEL 6
REMARK VINA RESULT:      -7.7      2.151      2.634
REMARK  Name = 
REMARK  4 active torsions:
REMARK  status: ('A' for Active; 'I' for Inactive)
REMARK    1  A    between atoms: C_2  and  O_3
REMARK    2  A    between atoms: C_2  and  C_4
REMARK    3  A    between atoms: N_7  and  C_8
REMARK    4  A    between atoms: C_8  and  C_9
REMARK                            x       y       z     vdW  Elec       q    Type
REMARK                         _______ _______ _______ _____ _____    ______ ____
ROOT
ATOM      1  C   UNL     1       5.949   4.604  17.924  0.00  0.00    +0.000 A 
ATOM      2  N   UNL     1       5.674   4.062  16.768  0.00  0.00    +0.000 NA
ATOM      3  C   UNL     1       6.359   4.637  15.694  0.00  0.00    +0.000 A 
ATOM      4  C   UNL     1       7.137   5.751  15.818  0.00  0.00    +0.000 A 
ATOM      5  O   UNL     1       7.669   6.111  14.623  0.00  0.00    +0.000 OA
ATOM      6  C   UNL     1       7.262   5.150  13.733  0.00  0.00    +0.000 A 
ATOM      7  C   UNL     1       7.615   5.105  12.385  0.00  0.00    +0.000 A 
ATOM      8  C   UNL     1       7.143   4.008  11.654  0.00  0.00    +0.000 A 
ATOM      9  C   UNL     1       6.355   3.026  12.259  0.00  0.00    +0.000 A 
ATOM     10 BR   UNL     1       5.792   1.535  11.236  0.00  0.00    +0.000 Br
ATOM     11  C   UNL     1       5.987   3.108  13.611  0.00  0.00    +0.000 A 
ATOM     12  C   UNL     1       6.456   4.198  14.362  0.00  0.00    +0.000 A 
ATOM     13  C   UNL     1       7.388   6.391  17.063  0.00  0.00    +0.000 A 
ATOM     14  O   UNL     1       8.032   7.417  17.256  0.00  0.00    +0.000 OA
ATOM     15  N   UNL     1       6.789   5.702  18.103  0.00  0.00    +0.000 N 
ATOM     16  H   UNL     1       6.965   6.080  19.021  0.00  0.00    +0.000 HD
ENDROOT
BRANCH   1  17
ATOM     17  C   UNL     1       5.279   4.095  19.209  0.00  0.00    +0.000 C 
BRANCH  17  21
ATOM     18  C   UNL     1       2.607   3.383  21.051  0.00  0.00    +0.000 C 
ATOM     19  C   UNL     1       2.623   4.829  20.587  0.00  0.00    +0.000 C 
ATOM     20  C   UNL     1       2.872   4.682  19.098  0.00  0.00    +0.000 C 
ATOM     21  N   UNL     1       3.895   3.625  18.990  0.00  0.00    +0.000 NA
ATOM     22  C   UNL     1       3.495   2.645  20.037  0.00  0.00    +0.000 C 
BRANCH  18  24
ATOM     23  O   UNL     1       0.421   2.860  20.104  0.00  0.00    +0.000 OA
ATOM     24  C   UNL     1       1.181   2.862  21.058  0.00  0.00    +0.000 C 
BRANCH  24  25
ATOM     25  O   UNL     1       0.789   2.420  22.278  0.00  0.00    +0.000 OA
ATOM     26  H   UNL     1      -0.170   2.475  22.443  0.00  0.00    +0.000 HD
ENDBRANCH  24  25
ENDBRANCH  18  24
ENDBRANCH  17  21
ENDBRANCH   1  17
TORSDOF 4
ENDMDL
MODEL 7
REMARK VINA RESULT:      -7.7      3.063      7.197
REMARK  Name = 
REMARK  4 active torsions:
REMARK  status: ('A' for Active; 'I' for Inactive)
REMARK    1  A    between atoms: C_2  and  O_3
REMARK    2  A    between atoms: C_2  and  C_4
REMARK    3  A    between atoms: N_7  and  C_8
REMARK    4  A    between atoms: C_8  and  C_9
REMARK                            x       y       z     vdW  Elec       q    Type
REMARK                         _______ _______ _______ _____ _____    ______ ____
ROOT
ATOM      1  C   UNL     1       4.120   4.362  18.085  0.00  0.00    +0.000 A 
ATOM      2  N   UNL     1       3.534   5.523  17.961  0.00  0.00    +0.000 NA
ATOM      3  C   UNL     1       2.782   5.900  19.076  0.00  0.00    +0.000 A 
ATOM      4  C   UNL     1       2.563   5.076  20.141  0.00  0.00    +0.000 A 
ATOM      5  O   UNL     1       1.787   5.679  21.075  0.00  0.00    +0.000 OA
ATOM      6  C   UNL     1       1.566   6.950  20.606  0.00  0.00    +0.000 A 
ATOM      7  C   UNL     1       0.841   7.936  21.276  0.00  0.00    +0.000 A 
ATOM      8  C   UNL     1       0.778   9.190  20.656  0.00  0.00    +0.000 A 
ATOM      9  C   UNL     1       1.406   9.418  19.430  0.00  0.00    +0.000 A 
ATOM     10 BR   UNL     1       1.335  11.150  18.666  0.00  0.00    +0.000 Br
ATOM     11  C   UNL     1       2.104   8.402  18.760  0.00  0.00    +0.000 A 
ATOM     12  C   UNL     1       2.184   7.138  19.368  0.00  0.00    +0.000 A 
ATOM     13  C   UNL     1       3.142   3.781  20.255  0.00  0.00    +0.000 A 
ATOM     14  O   UNL     1       2.961   2.963  21.149  0.00  0.00    +0.000 OA
ATOM     15  N   UNL     1       3.977   3.517  19.184  0.00  0.00    +0.000 N 
ATOM     16  H   UNL     1       4.454   2.629  19.226  0.00  0.00    +0.000 HD
ENDROOT
BRANCH   1  17
ATOM     17  C   UNL     1       4.984   3.793  16.948  0.00  0.00    +0.000 C 
BRANCH  17  21
ATOM     18  C   UNL     1       6.754   4.095  14.153  0.00  0.00    +0.000 C 
ATOM     19  C   UNL     1       5.321   4.568  13.985  0.00  0.00    +0.000 C 
ATOM     20  C   UNL     1       5.156   5.508  15.165  0.00  0.00    +0.000 C 
ATOM     21  N   UNL     1       5.818   4.820  16.290  0.00  0.00    +0.000 NA
ATOM     22  C   UNL     1       7.020   4.205  15.663  0.00  0.00    +0.000 C 
BRANCH  18  24
ATOM     23  O   UNL     1       8.451   5.809  13.788  0.00  0.00    +0.000 OA
ATOM     24  C   UNL     1       7.684   4.975  13.336  0.00  0.00    +0.000 C 
BRANCH  24  25
ATOM     25  O   UNL     1       7.554   4.780  12.002  0.00  0.00    +0.000 OA
ATOM     26  H   UNL     1       6.670   4.484  11.716  0.00  0.00    +0.000 HD
ENDBRANCH  24  25
ENDBRANCH  18  24
ENDBRANCH  17  21
ENDBRANCH   1  17
TORSDOF 4
ENDMDL
MODEL 8
REMARK VINA RESULT:      -7.7      3.278      6.804
REMARK  Name = 
REMARK  4 active torsions:
REMARK  status: ('A' for Active; 'I' for Inactive)
REMARK    1  A    between atoms: C_2  and  O_3
REMARK    2  A    between atoms: C_2  and  C_4
REMARK    3  A    between atoms: N_7  and  C_8
REMARK    4  A    between atoms: C_8  and  C_9
REMARK                            x       y       z     vdW  Elec       q    Type
REMARK                         _______ _______ _______ _____ _____    ______ ____
ROOT
ATOM      1  C   UNL     1       3.852   4.519  17.895  0.00  0.00    +0.000 A 
ATOM      2  N   UNL     1       3.255   5.680  17.840  0.00  0.00    +0.000 NA
ATOM      3  C   UNL     1       2.566   6.018  19.007  0.00  0.00    +0.000 A 
ATOM      4  C   UNL     1       2.410   5.160  20.056  0.00  0.00    +0.000 A 
ATOM      5  O   UNL     1       1.685   5.730  21.051  0.00  0.00    +0.000 OA
ATOM      6  C   UNL     1       1.433   7.013  20.635  0.00  0.00    +0.000 A 
ATOM      7  C   UNL     1       0.744   7.974  21.374  0.00  0.00    +0.000 A 
ATOM      8  C   UNL     1       0.641   9.246  20.799  0.00  0.00    +0.000 A 
ATOM      9  C   UNL     1       1.198   9.516  19.547  0.00  0.00    +0.000 A 
ATOM     10 BR   UNL     1       1.078  11.270  18.842  0.00  0.00    +0.000 Br
ATOM     11  C   UNL     1       1.861   8.525  18.808  0.00  0.00    +0.000 A 
ATOM     12  C   UNL     1       1.980   7.243  19.371  0.00  0.00    +0.000 A 
ATOM     13  C   UNL     1       2.999   3.866  20.097  0.00  0.00    +0.000 A 
ATOM     14  O   UNL     1       2.872   3.019  20.975  0.00  0.00    +0.000 OA
ATOM     15  N   UNL     1       3.774   3.639  18.973  0.00  0.00    +0.000 N 
ATOM     16  H   UNL     1       4.256   2.753  18.961  0.00  0.00    +0.000 HD
ENDROOT
BRANCH   1  17
ATOM     17  C   UNL     1       4.653   3.990  16.695  0.00  0.00    +0.000 C 
BRANCH  17  21
ATOM     18  C   UNL     1       6.786   6.129  18.077  0.00  0.00    +0.000 C 
ATOM     19  C   UNL     1       7.382   4.742  17.912  0.00  0.00    +0.000 C 
ATOM     20  C   UNL     1       7.080   4.438  16.456  0.00  0.00    +0.000 C 
ATOM     21  N   UNL     1       5.704   4.927  16.247  0.00  0.00    +0.000 NA
ATOM     22  C   UNL     1       5.660   6.189  17.034  0.00  0.00    +0.000 C 
BRANCH  18  24
ATOM     23  O   UNL     1       8.091   7.720  16.768  0.00  0.00    +0.000 OA
ATOM     24  C   UNL     1       7.856   7.179  17.836  0.00  0.00    +0.000 C 
BRANCH  24  25
ATOM     25  O   UNL     1       8.591   7.444  18.943  0.00  0.00    +0.000 OA
ATOM     26  H   UNL     1       8.162   7.204  19.785  0.00  0.00    +0.000 HD
ENDBRANCH  24  25
ENDBRANCH  18  24
ENDBRANCH  17  21
ENDBRANCH   1  17
TORSDOF 4
ENDMDL
MODEL 9
REMARK VINA RESULT:      -7.6      5.458      8.679
REMARK  Name = 
REMARK  4 active torsions:
REMARK  status: ('A' for Active; 'I' for Inactive)
REMARK    1  A    between atoms: C_2  and  O_3
REMARK    2  A    between atoms: C_2  and  C_4
REMARK    3  A    between atoms: N_7  and  C_8
REMARK    4  A    between atoms: C_8  and  C_9
REMARK                            x       y       z     vdW  Elec       q    Type
REMARK                         _______ _______ _______ _____ _____    ______ ____
ROOT
ATOM      1  C   UNL     1       1.809   7.145  20.154  0.00  0.00    +0.000 A 
ATOM      2  N   UNL     1       1.188   7.996  20.927  0.00  0.00    +0.000 NA
ATOM      3  C   UNL     1       0.916   9.223  20.317  0.00  0.00    +0.000 A 
ATOM      4  C   UNL     1       1.376   9.556  19.076  0.00  0.00    +0.000 A 
ATOM      5  O   UNL     1       0.986  10.808  18.730  0.00  0.00    +0.000 OA
ATOM      6  C   UNL     1       0.200  11.249  19.765  0.00  0.00    +0.000 A 
ATOM      7  C   UNL     1      -0.448  12.483  19.809  0.00  0.00    +0.000 A 
ATOM      8  C   UNL     1      -1.254  12.723  20.929  0.00  0.00    +0.000 A 
ATOM      9  C   UNL     1      -1.381  11.769  21.941  0.00  0.00    +0.000 A 
ATOM     10 BR   UNL     1      -2.529  12.124  23.405  0.00  0.00    +0.000 Br
ATOM     11  C   UNL     1      -0.695  10.546  21.889  0.00  0.00    +0.000 A 
ATOM     12  C   UNL     1       0.113  10.284  20.771  0.00  0.00    +0.000 A 
ATOM     13  C   UNL     1       2.112   8.660  18.252  0.00  0.00    +0.000 A 
ATOM     14  O   UNL     1       2.600   8.893  17.152  0.00  0.00    +0.000 OA
ATOM     15  N   UNL     1       2.238   7.423  18.857  0.00  0.00    +0.000 N 
ATOM     16  H   UNL     1       2.714   6.725  18.305  0.00  0.00    +0.000 HD
ENDROOT
BRANCH   1  17
ATOM     17  C   UNL     1       2.189   5.749  20.669  0.00  0.00    +0.000 C 
BRANCH  17  21
ATOM     18  C   UNL     1       3.542   3.002  19.380  0.00  0.00    +0.000 C 
ATOM     19  C   UNL     1       2.792   2.727  20.671  0.00  0.00    +0.000 C 
ATOM     20  C   UNL     1       1.454   3.394  20.410  0.00  0.00    +0.000 C 
ATOM     21  N   UNL     1       1.792   4.666  19.744  0.00  0.00    +0.000 NA
ATOM     22  C   UNL     1       2.919   4.300  18.843  0.00  0.00    +0.000 C 
BRANCH  18  24
ATOM     23  O   UNL     1       2.520   1.758  17.547  0.00  0.00    +0.000 OA
ATOM     24  C   UNL     1       3.364   1.835  18.425  0.00  0.00    +0.000 C 
BRANCH  24  25
ATOM     25  O   UNL     1       4.230   0.821  18.667  0.00  0.00    +0.000 OA
ATOM     26  H   UNL     1       4.079   0.346  19.505  0.00  0.00    +0.000 HD
ENDBRANCH  24  25
ENDBRANCH  18  24
ENDBRANCH  17  21
ENDBRANCH   1  17
TORSDOF 4
ENDMDL
