MODEL 1
REMARK VINA RESULT:      -7.9      0.000      0.000
REMARK  Name = 
REMARK  5 active torsions:
REMARK  status: ('A' for Active; 'I' for Inactive)
REMARK    1  A    between atoms: C_1  and  N_2
REMARK    2  A    between atoms: C_3  and  C_5
REMARK    3  A    between atoms: C_14  and  C_16
REMARK    4  A    between atoms: C_16  and  O_17
REMARK    5  A    between atoms: O_17  and  C_18
REMARK                            x       y       z     vdW  Elec       q    Type
REMARK                         _______ _______ _______ _____ _____    ______ ____
ROOT
ATOM      1  C   UNL     1       4.038   5.581  19.391  0.00  0.00    +0.000 C 
ATOM      2  C   UNL     1       5.330   4.761  19.253  0.00  0.00    +0.000 C 
ATOM      3  C   UNL     1       5.635   4.912  17.794  0.00  0.00    +0.000 A 
ATOM      4  C   UNL     1       6.607   4.242  17.069  0.00  0.00    +0.000 A 
ATOM      5  C   UNL     1       6.775   4.571  15.723  0.00  0.00    +0.000 A 
ATOM      6  C   UNL     1       5.985   5.570  15.136  0.00  0.00    +0.000 A 
ATOM      7  C   UNL     1       5.013   6.250  15.881  0.00  0.00    +0.000 A 
ATOM      8  C   UNL     1       4.844   5.906  17.212  0.00  0.00    +0.000 A 
ATOM      9  N   UNL     1       3.920   6.404  18.157  0.00  0.00    +0.000 N 
ATOM     10  C   UNL     1       3.088   7.502  17.987  0.00  0.00    +0.000 C 
ATOM     11  O   UNL     1       3.050   8.181  16.957  0.00  0.00    +0.000 OA
ENDROOT
BRANCH   1  14
ATOM     12  C   UNL     1       1.414   3.380  21.127  0.00  0.00    +0.000 C 
ATOM     13  N   UNL     1       2.481   4.306  20.848  0.00  0.00    +0.000 N 
ATOM     14  C   UNL     1       2.843   4.616  19.555  0.00  0.00    +0.000 C 
ATOM     15  O   UNL     1       2.211   4.218  18.579  0.00  0.00    +0.000 OA
ATOM     16  H   UNL     1       3.012   4.699  21.619  0.00  0.00    +0.000 HD
ENDBRANCH   1  14
BRANCH  10  17
ATOM     17  C   UNL     1       2.133   7.835  19.144  0.00  0.00    +0.000 C 
BRANCH  17  18
ATOM     18  O   UNL     1       1.335   8.986  18.895  0.00  0.00    +0.000 OA
BRANCH  18  19
ATOM     19  C   UNL     1       0.684   9.510  19.984  0.00  0.00    +0.000 A 
ATOM     20  C   UNL     1      -0.151  10.603  19.720  0.00  0.00    +0.000 A 
ATOM     21  C   UNL     1      -0.855  11.235  20.755  0.00  0.00    +0.000 A 
ATOM     22  C   UNL     1      -0.720  10.774  22.065  0.00  0.00    +0.000 A 
ATOM     23 CL   UNL     1      -1.577  11.550  23.337  0.00  0.00    +0.000 Cl
ATOM     24  C   UNL     1       0.108   9.689  22.326  0.00  0.00    +0.000 A 
ATOM     25  F   UNL     1       0.258   9.224  23.576  0.00  0.00    +0.000 F 
ATOM     26  C   UNL     1       0.806   9.054  21.299  0.00  0.00    +0.000 A 
ENDBRANCH  18  19
ENDBRANCH  17  18
ENDBRANCH  10  17
TORSDOF 4
ENDMDL
MODEL 2
REMARK VINA RESULT:      -7.6      2.455      4.389
REMARK  Name = 
REMARK  5 active torsions:
REMARK  status: ('A' for Active; 'I' for Inactive)
REMARK    1  A    between atoms: C_1  and  N_2
REMARK    2  A    between atoms: C_3  and  C_5
REMARK    3  A    between atoms: C_14  and  C_16
REMARK    4  A    between atoms: C_16  and  O_17
REMARK    5  A    between atoms: O_17  and  C_18
REMARK                            x       y       z     vdW  Elec       q    Type
REMARK                         _______ _______ _______ _____ _____    ______ ____
ROOT
ATOM      1  C   UNL     1       3.275   5.236  17.488  0.00  0.00    +0.000 C 
ATOM      2  C   UNL     1       2.912   3.744  17.431  0.00  0.00    +0.000 C 
ATOM      3  C   UNL     1       2.459   3.485  18.835  0.00  0.00    +0.000 A 
ATOM      4  C   UNL     1       2.168   2.255  19.405  0.00  0.00    +0.000 A 
ATOM      5  C   UNL     1       1.699   2.230  20.720  0.00  0.00    +0.000 A 
ATOM      6  C   UNL     1       1.513   3.426  21.427  0.00  0.00    +0.000 A 
ATOM      7  C   UNL     1       1.799   4.663  20.836  0.00  0.00    +0.000 A 
ATOM      8  C   UNL     1       2.278   4.678  19.538  0.00  0.00    +0.000 A 
ATOM      9  N   UNL     1       2.675   5.774  18.739  0.00  0.00    +0.000 N 
ATOM     10  C   UNL     1       2.487   7.115  19.042  0.00  0.00    +0.000 C 
ATOM     11  O   UNL     1       1.949   7.516  20.078  0.00  0.00    +0.000 OA
ENDROOT
BRANCH   1  14
ATOM     12  C   UNL     1       6.841   5.553  16.101  0.00  0.00    +0.000 C 
ATOM     13  N   UNL     1       5.410   5.464  16.239  0.00  0.00    +0.000 N 
ATOM     14  C   UNL     1       4.811   5.384  17.478  0.00  0.00    +0.000 C 
ATOM     15  O   UNL     1       5.444   5.502  18.526  0.00  0.00    +0.000 OA
ATOM     16  H   UNL     1       4.833   5.404  15.406  0.00  0.00    +0.000 HD
ENDBRANCH   1  14
BRANCH  10  17
ATOM     17  C   UNL     1       3.039   8.138  18.036  0.00  0.00    +0.000 C 
BRANCH  17  18
ATOM     18  O   UNL     1       2.021   8.805  17.302  0.00  0.00    +0.000 OA
BRANCH  18  19
ATOM     19  C   UNL     1       1.511   9.940  17.882  0.00  0.00    +0.000 A 
ATOM     20  C   UNL     1       0.142   9.905  18.177  0.00  0.00    +0.000 A 
ATOM     21  C   UNL     1      -0.496  11.012  18.755  0.00  0.00    +0.000 A 
ATOM     22  C   UNL     1       0.238  12.165  19.035  0.00  0.00    +0.000 A 
ATOM     23 CL   UNL     1      -0.543  13.526  19.737  0.00  0.00    +0.000 Cl
ATOM     24  C   UNL     1       1.596  12.199  18.742  0.00  0.00    +0.000 A 
ATOM     25  F   UNL     1       2.327  13.295  18.999  0.00  0.00    +0.000 F 
ATOM     26  C   UNL     1       2.236  11.099  18.172  0.00  0.00    +0.000 A 
ENDBRANCH  18  19
ENDBRANCH  17  18
ENDBRANCH  10  17
TORSDOF 4
ENDMDL
MODEL 3
REMARK VINA RESULT:      -7.6      2.422      4.155
REMARK  Name = 
REMARK  5 active torsions:
REMARK  status: ('A' for Active; 'I' for Inactive)
REMARK    1  A    between atoms: C_1  and  N_2
REMARK    2  A    between atoms: C_3  and  C_5
REMARK    3  A    between atoms: C_14  and  C_16
REMARK    4  A    between atoms: C_16  and  O_17
REMARK    5  A    between atoms: O_17  and  C_18
REMARK                            x       y       z     vdW  Elec       q    Type
REMARK                         _______ _______ _______ _____ _____    ______ ____
ROOT
ATOM      1  C   UNL     1       3.345   5.275  17.519  0.00  0.00    +0.000 C 
ATOM      2  C   UNL     1       3.010   3.777  17.452  0.00  0.00    +0.000 C 
ATOM      3  C   UNL     1       2.535   3.506  18.846  0.00  0.00    +0.000 A 
ATOM      4  C   UNL     1       2.255   2.271  19.408  0.00  0.00    +0.000 A 
ATOM      5  C   UNL     1       1.762   2.234  20.714  0.00  0.00    +0.000 A 
ATOM      6  C   UNL     1       1.542   3.425  21.420  0.00  0.00    +0.000 A 
ATOM      7  C   UNL     1       1.818   4.668  20.838  0.00  0.00    +0.000 A 
ATOM      8  C   UNL     1       2.321   4.694  19.549  0.00  0.00    +0.000 A 
ATOM      9  N   UNL     1       2.713   5.798  18.760  0.00  0.00    +0.000 N 
ATOM     10  C   UNL     1       2.498   7.136  19.062  0.00  0.00    +0.000 C 
ATOM     11  O   UNL     1       1.934   7.525  20.089  0.00  0.00    +0.000 OA
ENDROOT
BRANCH   1  14
ATOM     12  C   UNL     1       6.897   5.659  18.928  0.00  0.00    +0.000 C 
ATOM     13  N   UNL     1       5.479   5.455  18.780  0.00  0.00    +0.000 N 
ATOM     14  C   UNL     1       4.880   5.448  17.538  0.00  0.00    +0.000 C 
ATOM     15  O   UNL     1       5.526   5.497  16.493  0.00  0.00    +0.000 OA
ATOM     16  H   UNL     1       4.900   5.367  19.609  0.00  0.00    +0.000 HD
ENDBRANCH   1  14
BRANCH  10  17
ATOM     17  C   UNL     1       3.051   8.170  18.069  0.00  0.00    +0.000 C 
BRANCH  17  18
ATOM     18  O   UNL     1       2.038   8.798  17.294  0.00  0.00    +0.000 OA
BRANCH  18  19
ATOM     19  C   UNL     1       1.417   9.874  17.878  0.00  0.00    +0.000 A 
ATOM     20  C   UNL     1       2.231  10.992  18.104  0.00  0.00    +0.000 A 
ATOM     21  C   UNL     1       1.714  12.145  18.711  0.00  0.00    +0.000 A 
ATOM     22  C   UNL     1       0.375  12.180  19.100  0.00  0.00    +0.000 A 
ATOM     23 CL   UNL     1      -0.261  13.591  19.851  0.00  0.00    +0.000 Cl
ATOM     24  C   UNL     1      -0.432  11.071  18.876  0.00  0.00    +0.000 A 
ATOM     25  F   UNL     1      -1.723  11.076  19.242  0.00  0.00    +0.000 F 
ATOM     26  C   UNL     1       0.077   9.924  18.268  0.00  0.00    +0.000 A 
ENDBRANCH  18  19
ENDBRANCH  17  18
ENDBRANCH  10  17
TORSDOF 4
ENDMDL
MODEL 4
REMARK VINA RESULT:      -7.6      0.947      1.348
REMARK  Name = 
REMARK  5 active torsions:
REMARK  status: ('A' for Active; 'I' for Inactive)
REMARK    1  A    between atoms: C_1  and  N_2
REMARK    2  A    between atoms: C_3  and  C_5
REMARK    3  A    between atoms: C_14  and  C_16
REMARK    4  A    between atoms: C_16  and  O_17
REMARK    5  A    between atoms: O_17  and  C_18
REMARK                            x       y       z     vdW  Elec       q    Type
REMARK                         _______ _______ _______ _____ _____    ______ ____
ROOT
ATOM      1  C   UNL     1       4.121   5.669  19.336  0.00  0.00    +0.000 C 
ATOM      2  C   UNL     1       5.428   4.864  19.274  0.00  0.00    +0.000 C 
ATOM      3  C   UNL     1       5.766   4.940  17.817  0.00  0.00    +0.000 A 
ATOM      4  C   UNL     1       6.766   4.246  17.154  0.00  0.00    +0.000 A 
ATOM      5  C   UNL     1       6.962   4.504  15.795  0.00  0.00    +0.000 A 
ATOM      6  C   UNL     1       6.172   5.457  15.136  0.00  0.00    +0.000 A 
ATOM      7  C   UNL     1       5.173   6.161  15.819  0.00  0.00    +0.000 A 
ATOM      8  C   UNL     1       4.976   5.888  17.162  0.00  0.00    +0.000 A 
ATOM      9  N   UNL     1       4.022   6.422  18.057  0.00  0.00    +0.000 N 
ATOM     10  C   UNL     1       3.178   7.495  17.806  0.00  0.00    +0.000 C 
ATOM     11  O   UNL     1       3.156   8.116  16.740  0.00  0.00    +0.000 OA
ENDROOT
BRANCH   1  14
ATOM     12  C   UNL     1       1.452   3.568  21.127  0.00  0.00    +0.000 C 
ATOM     13  N   UNL     1       2.515   4.491  20.821  0.00  0.00    +0.000 N 
ATOM     14  C   UNL     1       2.937   4.697  19.524  0.00  0.00    +0.000 C 
ATOM     15  O   UNL     1       2.362   4.202  18.557  0.00  0.00    +0.000 OA
ATOM     16  H   UNL     1       3.000   4.959  21.580  0.00  0.00    +0.000 HD
ENDBRANCH   1  14
BRANCH  10  17
ATOM     17  C   UNL     1       2.190   7.876  18.920  0.00  0.00    +0.000 C 
BRANCH  17  18
ATOM     18  O   UNL     1       1.458   9.061  18.635  0.00  0.00    +0.000 OA
BRANCH  18  19
ATOM     19  C   UNL     1       0.751   9.595  19.684  0.00  0.00    +0.000 A 
ATOM     20  C   UNL     1       0.947   8.972  20.924  0.00  0.00    +0.000 A 
ATOM     21  C   UNL     1       0.266   9.417  22.066  0.00  0.00    +0.000 A 
ATOM     22  C   UNL     1      -0.620  10.490  21.969  0.00  0.00    +0.000 A 
ATOM     23 CL   UNL     1      -1.462  11.034  23.366  0.00  0.00    +0.000 Cl
ATOM     24  C   UNL     1      -0.813  11.108  20.738  0.00  0.00    +0.000 A 
ATOM     25  F   UNL     1      -1.661  12.141  20.615  0.00  0.00    +0.000 F 
ATOM     26  C   UNL     1      -0.135  10.672  19.601  0.00  0.00    +0.000 A 
ENDBRANCH  18  19
ENDBRANCH  17  18
ENDBRANCH  10  17
TORSDOF 4
ENDMDL
MODEL 5
REMARK VINA RESULT:      -7.5      3.857      8.391
REMARK  Name = 
REMARK  5 active torsions:
REMARK  status: ('A' for Active; 'I' for Inactive)
REMARK    1  A    between atoms: C_1  and  N_2
REMARK    2  A    between atoms: C_3  and  C_5
REMARK    3  A    between atoms: C_14  and  C_16
REMARK    4  A    between atoms: C_16  and  O_17
REMARK    5  A    between atoms: O_17  and  C_18
REMARK                            x       y       z     vdW  Elec       q    Type
REMARK                         _______ _______ _______ _____ _____    ______ ____
ROOT
ATOM      1  C   UNL     1      -0.711  11.414  18.551  0.00  0.00    +0.000 C 
ATOM      2  C   UNL     1      -1.407  12.609  19.220  0.00  0.00    +0.000 C 
ATOM      3  C   UNL     1      -1.505  12.150  20.642  0.00  0.00    +0.000 A 
ATOM      4  C   UNL     1      -2.199  12.765  21.672  0.00  0.00    +0.000 A 
ATOM      5  C   UNL     1      -2.117  12.209  22.950  0.00  0.00    +0.000 A 
ATOM      6  C   UNL     1      -1.332  11.070  23.176  0.00  0.00    +0.000 A 
ATOM      7  C   UNL     1      -0.625  10.464  22.129  0.00  0.00    +0.000 A 
ATOM      8  C   UNL     1      -0.725  11.013  20.862  0.00  0.00    +0.000 A 
ATOM      9  N   UNL     1      -0.153  10.577  19.647  0.00  0.00    +0.000 N 
ATOM     10  C   UNL     1       0.802   9.580  19.505  0.00  0.00    +0.000 C 
ATOM     11  O   UNL     1       1.266   8.934  20.449  0.00  0.00    +0.000 OA
ENDROOT
BRANCH   1  14
ATOM     12  C   UNL     1      -2.901  10.472  15.541  0.00  0.00    +0.000 C 
ATOM     13  N   UNL     1      -1.931  11.083  16.412  0.00  0.00    +0.000 N 
ATOM     14  C   UNL     1      -1.743  10.638  17.703  0.00  0.00    +0.000 C 
ATOM     15  O   UNL     1      -2.299   9.634  18.143  0.00  0.00    +0.000 OA
ATOM     16  H   UNL     1      -1.411  11.892  16.086  0.00  0.00    +0.000 HD
ENDBRANCH   1  14
BRANCH  10  17
ATOM     17  C   UNL     1       1.251   9.246  18.073  0.00  0.00    +0.000 C 
BRANCH  17  18
ATOM     18  O   UNL     1       2.630   8.911  17.984  0.00  0.00    +0.000 OA
BRANCH  18  19
ATOM     19  C   UNL     1       2.914   7.574  17.859  0.00  0.00    +0.000 A 
ATOM     20  C   UNL     1       4.178   7.272  17.334  0.00  0.00    +0.000 A 
ATOM     21  C   UNL     1       4.575   5.941  17.142  0.00  0.00    +0.000 A 
ATOM     22  C   UNL     1       3.703   4.904  17.473  0.00  0.00    +0.000 A 
ATOM     23 CL   UNL     1       4.185   3.271  17.234  0.00  0.00    +0.000 Cl
ATOM     24  C   UNL     1       2.450   5.205  17.994  0.00  0.00    +0.000 A 
ATOM     25  F   UNL     1       1.589   4.228  18.320  0.00  0.00    +0.000 F 
ATOM     26  C   UNL     1       2.052   6.527  18.191  0.00  0.00    +0.000 A 
ENDBRANCH  18  19
ENDBRANCH  17  18
ENDBRANCH  10  17
TORSDOF 4
ENDMDL
MODEL 6
REMARK VINA RESULT:      -7.5      2.447      4.045
REMARK  Name = 
REMARK  5 active torsions:
REMARK  status: ('A' for Active; 'I' for Inactive)
REMARK    1  A    between atoms: C_1  and  N_2
REMARK    2  A    between atoms: C_3  and  C_5
REMARK    3  A    between atoms: C_14  and  C_16
REMARK    4  A    between atoms: C_16  and  O_17
REMARK    5  A    between atoms: O_17  and  C_18
REMARK                            x       y       z     vdW  Elec       q    Type
REMARK                         _______ _______ _______ _____ _____    ______ ____
ROOT
ATOM      1  C   UNL     1       3.425   5.554  17.588  0.00  0.00    +0.000 C 
ATOM      2  C   UNL     1       3.222   4.035  17.472  0.00  0.00    +0.000 C 
ATOM      3  C   UNL     1       2.703   3.690  18.834  0.00  0.00    +0.000 A 
ATOM      4  C   UNL     1       2.501   2.422  19.354  0.00  0.00    +0.000 A 
ATOM      5  C   UNL     1       1.948   2.310  20.631  0.00  0.00    +0.000 A 
ATOM      6  C   UNL     1       1.592   3.461  21.350  0.00  0.00    +0.000 A 
ATOM      7  C   UNL     1       1.790   4.737  20.809  0.00  0.00    +0.000 A 
ATOM      8  C   UNL     1       2.353   4.838  19.548  0.00  0.00    +0.000 A 
ATOM      9  N   UNL     1       2.689   5.991  18.804  0.00  0.00    +0.000 N 
ATOM     10  C   UNL     1       2.345   7.297  19.123  0.00  0.00    +0.000 C 
ATOM     11  O   UNL     1       1.699   7.612  20.127  0.00  0.00    +0.000 OA
ENDROOT
BRANCH   1  14
ATOM     12  C   UNL     1       6.982   5.615  19.032  0.00  0.00    +0.000 C 
ATOM     13  N   UNL     1       5.584   5.357  18.801  0.00  0.00    +0.000 N 
ATOM     14  C   UNL     1       4.936   5.856  17.691  0.00  0.00    +0.000 C 
ATOM     15  O   UNL     1       5.529   6.441  16.787  0.00  0.00    +0.000 OA
ATOM     16  H   UNL     1       5.053   4.843  19.496  0.00  0.00    +0.000 HD
ENDBRANCH   1  14
BRANCH  10  17
ATOM     17  C   UNL     1       2.857   8.399  18.182  0.00  0.00    +0.000 C 
BRANCH  17  18
ATOM     18  O   UNL     1       1.831   8.971  17.381  0.00  0.00    +0.000 OA
BRANCH  18  19
ATOM     19  C   UNL     1       1.042   9.910  17.998  0.00  0.00    +0.000 A 
ATOM     20  C   UNL     1      -0.340   9.711  17.880  0.00  0.00    +0.000 A 
ATOM     21  C   UNL     1      -1.247  10.614  18.452  0.00  0.00    +0.000 A 
ATOM     22  C   UNL     1      -0.770  11.727  19.145  0.00  0.00    +0.000 A 
ATOM     23 CL   UNL     1      -1.880  12.840  19.843  0.00  0.00    +0.000 Cl
ATOM     24  C   UNL     1       0.601  11.924  19.262  0.00  0.00    +0.000 A 
ATOM     25  F   UNL     1       1.088  12.987  19.921  0.00  0.00    +0.000 F 
ATOM     26  C   UNL     1       1.506  11.026  18.698  0.00  0.00    +0.000 A 
ENDBRANCH  18  19
ENDBRANCH  17  18
ENDBRANCH  10  17
TORSDOF 4
ENDMDL
MODEL 7
REMARK VINA RESULT:      -7.5      2.000      2.315
REMARK  Name = 
REMARK  5 active torsions:
REMARK  status: ('A' for Active; 'I' for Inactive)
REMARK    1  A    between atoms: C_1  and  N_2
REMARK    2  A    between atoms: C_3  and  C_5
REMARK    3  A    between atoms: C_14  and  C_16
REMARK    4  A    between atoms: C_16  and  O_17
REMARK    5  A    between atoms: O_17  and  C_18
REMARK                            x       y       z     vdW  Elec       q    Type
REMARK                         _______ _______ _______ _____ _____    ______ ____
ROOT
ATOM      1  C   UNL     1       3.884   5.626  19.422  0.00  0.00    +0.000 C 
ATOM      2  C   UNL     1       5.182   4.811  19.307  0.00  0.00    +0.000 C 
ATOM      3  C   UNL     1       5.529   4.989  17.861  0.00  0.00    +0.000 A 
ATOM      4  C   UNL     1       6.524   4.333  17.154  0.00  0.00    +0.000 A 
ATOM      5  C   UNL     1       6.730   4.687  15.819  0.00  0.00    +0.000 A 
ATOM      6  C   UNL     1       5.956   5.696  15.228  0.00  0.00    +0.000 A 
ATOM      7  C   UNL     1       4.961   6.360  15.956  0.00  0.00    +0.000 A 
ATOM      8  C   UNL     1       4.753   5.992  17.274  0.00  0.00    +0.000 A 
ATOM      9  N   UNL     1       3.801   6.471  18.200  0.00  0.00    +0.000 N 
ATOM     10  C   UNL     1       2.972   7.571  18.025  0.00  0.00    +0.000 C 
ATOM     11  O   UNL     1       2.963   8.268  17.007  0.00  0.00    +0.000 OA
ENDROOT
BRANCH   1  14
ATOM     12  C   UNL     1       1.304   3.278  21.026  0.00  0.00    +0.000 C 
ATOM     13  N   UNL     1       2.369   4.221  20.802  0.00  0.00    +0.000 N 
ATOM     14  C   UNL     1       2.687   4.657  19.533  0.00  0.00    +0.000 C 
ATOM     15  O   UNL     1       2.016   4.361  18.546  0.00  0.00    +0.000 OA
ATOM     16  H   UNL     1       2.931   4.532  21.587  0.00  0.00    +0.000 HD
ENDBRANCH   1  14
BRANCH  10  17
ATOM     17  C   UNL     1       1.982   7.881  19.159  0.00  0.00    +0.000 C 
BRANCH  17  18
ATOM     18  O   UNL     1       1.837   9.274  19.407  0.00  0.00    +0.000 OA
BRANCH  18  19
ATOM     19  C   UNL     1       0.613   9.813  19.095  0.00  0.00    +0.000 A 
ATOM     20  C   UNL     1       0.043  10.627  20.082  0.00  0.00    +0.000 A 
ATOM     21  C   UNL     1      -1.213  11.220  19.887  0.00  0.00    +0.000 A 
ATOM     22  C   UNL     1      -1.907  10.993  18.698  0.00  0.00    +0.000 A 
ATOM     23 CL   UNL     1      -3.450  11.713  18.458  0.00  0.00    +0.000 Cl
ATOM     24  C   UNL     1      -1.340  10.185  17.719  0.00  0.00    +0.000 A 
ATOM     25  F   UNL     1      -1.986   9.948  16.566  0.00  0.00    +0.000 F 
ATOM     26  C   UNL     1      -0.090   9.598  17.907  0.00  0.00    +0.000 A 
ENDBRANCH  18  19
ENDBRANCH  17  18
ENDBRANCH  10  17
TORSDOF 4
ENDMDL
MODEL 8
REMARK VINA RESULT:      -7.4      1.179      1.258
REMARK  Name = 
REMARK  5 active torsions:
REMARK  status: ('A' for Active; 'I' for Inactive)
REMARK    1  A    between atoms: C_1  and  N_2
REMARK    2  A    between atoms: C_3  and  C_5
REMARK    3  A    between atoms: C_14  and  C_16
REMARK    4  A    between atoms: C_16  and  O_17
REMARK    5  A    between atoms: O_17  and  C_18
REMARK                            x       y       z     vdW  Elec       q    Type
REMARK                         _______ _______ _______ _____ _____    ______ ____
ROOT
ATOM      1  C   UNL     1       3.420   4.605  18.734  0.00  0.00    +0.000 C 
ATOM      2  C   UNL     1       4.616   3.708  18.379  0.00  0.00    +0.000 C 
ATOM      3  C   UNL     1       5.156   4.387  17.158  0.00  0.00    +0.000 A 
ATOM      4  C   UNL     1       6.146   3.916  16.310  0.00  0.00    +0.000 A 
ATOM      5  C   UNL     1       6.555   4.731  15.253  0.00  0.00    +0.000 A 
ATOM      6  C   UNL     1       5.985   6.000  15.079  0.00  0.00    +0.000 A 
ATOM      7  C   UNL     1       4.994   6.471  15.949  0.00  0.00    +0.000 A 
ATOM      8  C   UNL     1       4.584   5.649  16.985  0.00  0.00    +0.000 A 
ATOM      9  N   UNL     1       3.588   5.866  17.963  0.00  0.00    +0.000 N 
ATOM     10  C   UNL     1       2.924   7.062  18.201  0.00  0.00    +0.000 C 
ATOM     11  O   UNL     1       3.123   8.097  17.559  0.00  0.00    +0.000 OA
ENDROOT
BRANCH   1  14
ATOM     12  C   UNL     1       0.451   2.187  19.026  0.00  0.00    +0.000 C 
ATOM     13  N   UNL     1       1.635   2.966  19.283  0.00  0.00    +0.000 N 
ATOM     14  C   UNL     1       2.112   3.874  18.361  0.00  0.00    +0.000 C 
ATOM     15  O   UNL     1       1.499   4.154  17.333  0.00  0.00    +0.000 OA
ATOM     16  H   UNL     1       2.159   2.806  20.137  0.00  0.00    +0.000 HD
ENDBRANCH   1  14
BRANCH  10  17
ATOM     17  C   UNL     1       1.846   7.051  19.296  0.00  0.00    +0.000 C 
BRANCH  17  18
ATOM     18  O   UNL     1       2.188   7.846  20.424  0.00  0.00    +0.000 OA
BRANCH  18  19
ATOM     19  C   UNL     1       1.251   8.774  20.808  0.00  0.00    +0.000 A 
ATOM     20  C   UNL     1       0.772   9.607  19.789  0.00  0.00    +0.000 A 
ATOM     21  C   UNL     1      -0.174  10.605  20.063  0.00  0.00    +0.000 A 
ATOM     22  C   UNL     1      -0.642  10.775  21.366  0.00  0.00    +0.000 A 
ATOM     23 CL   UNL     1      -1.797  12.002  21.707  0.00  0.00    +0.000 Cl
ATOM     24  C   UNL     1      -0.166   9.948  22.377  0.00  0.00    +0.000 A 
ATOM     25  F   UNL     1      -0.597  10.090  23.640  0.00  0.00    +0.000 F 
ATOM     26  C   UNL     1       0.771   8.951  22.108  0.00  0.00    +0.000 A 
ENDBRANCH  18  19
ENDBRANCH  17  18
ENDBRANCH  10  17
TORSDOF 4
ENDMDL
MODEL 9
REMARK VINA RESULT:      -7.4      2.425      4.036
REMARK  Name = 
REMARK  5 active torsions:
REMARK  status: ('A' for Active; 'I' for Inactive)
REMARK    1  A    between atoms: C_1  and  N_2
REMARK    2  A    between atoms: C_3  and  C_5
REMARK    3  A    between atoms: C_14  and  C_16
REMARK    4  A    between atoms: C_16  and  O_17
REMARK    5  A    between atoms: O_17  and  C_18
REMARK                            x       y       z     vdW  Elec       q    Type
REMARK                         _______ _______ _______ _____ _____    ______ ____
ROOT
ATOM      1  C   UNL     1       4.305   5.670  17.132  0.00  0.00    +0.000 C 
ATOM      2  C   UNL     1       4.415   4.211  16.661  0.00  0.00    +0.000 C 
ATOM      3  C   UNL     1       3.650   3.487  17.725  0.00  0.00    +0.000 A 
ATOM      4  C   UNL     1       3.559   2.116  17.902  0.00  0.00    +0.000 A 
ATOM      5  C   UNL     1       2.740   1.633  18.925  0.00  0.00    +0.000 A 
ATOM      6  C   UNL     1       2.017   2.524  19.731  0.00  0.00    +0.000 A 
ATOM      7  C   UNL     1       2.107   3.907  19.535  0.00  0.00    +0.000 A 
ATOM      8  C   UNL     1       2.934   4.377  18.529  0.00  0.00    +0.000 A 
ATOM      9  N   UNL     1       3.227   5.708  18.156  0.00  0.00    +0.000 N 
ATOM     10  C   UNL     1       2.586   6.847  18.622  0.00  0.00    +0.000 C 
ATOM     11  O   UNL     1       1.668   6.829  19.447  0.00  0.00    +0.000 OA
ENDROOT
BRANCH   1  14
ATOM     12  C   UNL     1       7.631   7.567  17.428  0.00  0.00    +0.000 C 
ATOM     13  N   UNL     1       6.332   7.102  17.013  0.00  0.00    +0.000 N 
ATOM     14  C   UNL     1       5.665   6.117  17.711  0.00  0.00    +0.000 C 
ATOM     15  O   UNL     1       6.079   5.668  18.777  0.00  0.00    +0.000 OA
ATOM     16  H   UNL     1       5.922   7.469  16.160  0.00  0.00    +0.000 HD
ENDBRANCH   1  14
BRANCH  10  17
ATOM     17  C   UNL     1       3.105   8.197  18.103  0.00  0.00    +0.000 C 
BRANCH  17  18
ATOM     18  O   UNL     1       2.158   8.887  17.297  0.00  0.00    +0.000 OA
BRANCH  18  19
ATOM     19  C   UNL     1       1.506   9.933  17.902  0.00  0.00    +0.000 A 
ATOM     20  C   UNL     1       2.267  11.096  18.082  0.00  0.00    +0.000 A 
ATOM     21  C   UNL     1       1.715  12.225  18.704  0.00  0.00    +0.000 A 
ATOM     22  C   UNL     1       0.395  12.191  19.155  0.00  0.00    +0.000 A 
ATOM     23 CL   UNL     1      -0.282  13.572  19.924  0.00  0.00    +0.000 Cl
ATOM     24  C   UNL     1      -0.358  11.037  18.976  0.00  0.00    +0.000 A 
ATOM     25  F   UNL     1      -1.630  10.975  19.401  0.00  0.00    +0.000 F 
ATOM     26  C   UNL     1       0.184   9.914  18.353  0.00  0.00    +0.000 A 
ENDBRANCH  18  19
ENDBRANCH  17  18
ENDBRANCH  10  17
TORSDOF 4
ENDMDL
