MODEL 1
REMARK VINA RESULT:      -7.9      0.000      0.000
REMARK  Name = 
REMARK  6 active torsions:
REMARK  status: ('A' for Active; 'I' for Inactive)
REMARK    1  A    between atoms: C_2  and  C_3
REMARK    2  A    between atoms: C_4  and  C_5
REMARK    3  A    between atoms: C_8  and  O_9
REMARK    4  A    between atoms: C_10  and  O_11
REMARK    5  A    between atoms: N_13  and  C_14
REMARK    6  A    between atoms: C_14  and  C_15
REMARK                            x       y       z     vdW  Elec       q    Type
REMARK                         _______ _______ _______ _____ _____    ______ ____
ROOT
ATOM      1  O   UNL     1       7.491   6.730  16.313  0.00  0.00    +0.000 OA
ATOM      2  C   UNL     1       7.670   7.183  17.434  0.00  0.00    +0.000 C 
ATOM      3  N   UNL     1       7.580   6.457  18.596  0.00  0.00    +0.000 N 
ATOM      4  H   UNL     1       7.750   6.899  19.488  0.00  0.00    +0.000 HD
ENDROOT
BRANCH   2   5
ATOM      5  C   UNL     1       8.012   8.605  17.682  0.00  0.00    +0.000 C 
ATOM      6  C   UNL     1       8.767   8.973  18.731  0.00  0.00    +0.000 C 
BRANCH   6   7
ATOM      7  C   UNL     1       9.148  10.371  18.992  0.00  0.00    +0.000 A 
ATOM      8  C   UNL     1       9.665  10.731  20.248  0.00  0.00    +0.000 A 
ATOM      9  C   UNL     1      10.030  12.057  20.527  0.00  0.00    +0.000 A 
ATOM     10  C   UNL     1       9.884  13.021  19.538  0.00  0.00    +0.000 A 
ATOM     11  C   UNL     1       9.399  12.667  18.284  0.00  0.00    +0.000 A 
ATOM     12  C   UNL     1       9.043  11.356  18.000  0.00  0.00    +0.000 A 
BRANCH  10  13
ATOM     13  O   UNL     1      10.203  14.333  19.747  0.00  0.00    +0.000 OA
ATOM     14  H   UNL     1       9.457  14.880  19.448  0.00  0.00    +0.000 HD
ENDBRANCH  10  13
BRANCH  11  15
ATOM     15  O   UNL     1       9.265  13.612  17.307  0.00  0.00    +0.000 OA
ATOM     16  H   UNL     1       9.580  13.167  16.493  0.00  0.00    +0.000 HD
ENDBRANCH  11  15
ENDBRANCH   6   7
ENDBRANCH   2   5
BRANCH   3  17
ATOM     17  C   UNL     1       7.240   5.051  18.610  0.00  0.00    +0.000 C 
BRANCH  17  18
ATOM     18  C   UNL     1       5.764   4.850  18.366  0.00  0.00    +0.000 A 
ATOM     19  C   UNL     1       4.810   5.316  19.282  0.00  0.00    +0.000 A 
ATOM     20  C   UNL     1       3.445   5.136  19.037  0.00  0.00    +0.000 A 
ATOM     21  C   UNL     1       3.028   4.491  17.874  0.00  0.00    +0.000 A 
ATOM     22 CL   UNL     1       1.348   4.270  17.574  0.00  0.00    +0.000 Cl
ATOM     23  C   UNL     1       3.963   4.027  16.951  0.00  0.00    +0.000 A 
ATOM     24  C   UNL     1       5.326   4.209  17.196  0.00  0.00    +0.000 A 
ENDBRANCH  17  18
ENDBRANCH   3  17
TORSDOF 6
ENDMDL
MODEL 2
REMARK VINA RESULT:      -7.8      1.210      1.210
REMARK  Name = 
REMARK  6 active torsions:
REMARK  status: ('A' for Active; 'I' for Inactive)
REMARK    1  A    between atoms: C_2  and  C_3
REMARK    2  A    between atoms: C_4  and  C_5
REMARK    3  A    between atoms: C_8  and  O_9
REMARK    4  A    between atoms: C_10  and  O_11
REMARK    5  A    between atoms: N_13  and  C_14
REMARK    6  A    between atoms: C_14  and  C_15
REMARK                            x       y       z     vdW  Elec       q    Type
REMARK                         _______ _______ _______ _____ _____    ______ ____
ROOT
ATOM      1  O   UNL     1       8.111   6.561  18.740  0.00  0.00    +0.000 OA
ATOM      2  C   UNL     1       7.810   7.374  17.879  0.00  0.00    +0.000 C 
ATOM      3  N   UNL     1       7.200   7.065  16.688  0.00  0.00    +0.000 N 
ATOM      4  H   UNL     1       6.974   7.794  16.026  0.00  0.00    +0.000 HD
ENDROOT
BRANCH   2   5
ATOM      5  C   UNL     1       8.075   8.828  18.016  0.00  0.00    +0.000 C 
ATOM      6  C   UNL     1       8.993   9.295  18.879  0.00  0.00    +0.000 C 
BRANCH   6   7
ATOM      7  C   UNL     1       9.301  10.728  19.022  0.00  0.00    +0.000 A 
ATOM      8  C   UNL     1       9.357  11.306  20.302  0.00  0.00    +0.000 A 
ATOM      9  C   UNL     1       9.642  12.670  20.466  0.00  0.00    +0.000 A 
ATOM     10  C   UNL     1       9.881  13.452  19.344  0.00  0.00    +0.000 A 
ATOM     11  C   UNL     1       9.854  12.881  18.076  0.00  0.00    +0.000 A 
ATOM     12  C   UNL     1       9.579  11.531  17.907  0.00  0.00    +0.000 A 
BRANCH  10  13
ATOM     13  O   UNL     1      10.147  14.790  19.431  0.00  0.00    +0.000 OA
ATOM     14  H   UNL     1      10.587  14.958  20.281  0.00  0.00    +0.000 HD
ENDBRANCH  10  13
BRANCH  11  15
ATOM     15  O   UNL     1      10.099  13.647  16.973  0.00  0.00    +0.000 OA
ATOM     16  H   UNL     1       9.288  13.558  16.430  0.00  0.00    +0.000 HD
ENDBRANCH  11  15
ENDBRANCH   6   7
ENDBRANCH   2   5
BRANCH   3  17
ATOM     17  C   UNL     1       6.859   5.709  16.319  0.00  0.00    +0.000 C 
BRANCH  17  18
ATOM     18  C   UNL     1       5.480   5.345  16.812  0.00  0.00    +0.000 A 
ATOM     19  C   UNL     1       4.630   6.316  17.363  0.00  0.00    +0.000 A 
ATOM     20  C   UNL     1       3.349   5.969  17.802  0.00  0.00    +0.000 A 
ATOM     21  C   UNL     1       2.911   4.650  17.693  0.00  0.00    +0.000 A 
ATOM     22 CL   UNL     1       1.335   4.224  18.236  0.00  0.00    +0.000 Cl
ATOM     23  C   UNL     1       3.741   3.675  17.144  0.00  0.00    +0.000 A 
ATOM     24  C   UNL     1       5.020   4.023  16.703  0.00  0.00    +0.000 A 
ENDBRANCH  17  18
ENDBRANCH   3  17
TORSDOF 6
ENDMDL
MODEL 3
REMARK VINA RESULT:      -7.8      1.571      1.799
REMARK  Name = 
REMARK  6 active torsions:
REMARK  status: ('A' for Active; 'I' for Inactive)
REMARK    1  A    between atoms: C_2  and  C_3
REMARK    2  A    between atoms: C_4  and  C_5
REMARK    3  A    between atoms: C_8  and  O_9
REMARK    4  A    between atoms: C_10  and  O_11
REMARK    5  A    between atoms: N_13  and  C_14
REMARK    6  A    between atoms: C_14  and  C_15
REMARK                            x       y       z     vdW  Elec       q    Type
REMARK                         _______ _______ _______ _____ _____    ______ ____
ROOT
ATOM      1  O   UNL     1       8.182   6.978  18.713  0.00  0.00    +0.000 OA
ATOM      2  C   UNL     1       7.806   7.828  17.919  0.00  0.00    +0.000 C 
ATOM      3  N   UNL     1       6.855   7.629  16.949  0.00  0.00    +0.000 N 
ATOM      4  H   UNL     1       6.589   8.383  16.332  0.00  0.00    +0.000 HD
ENDROOT
BRANCH   2   5
ATOM      5  C   UNL     1       8.346   9.210  17.904  0.00  0.00    +0.000 C 
ATOM      6  C   UNL     1       9.027   9.710  18.949  0.00  0.00    +0.000 C 
BRANCH   6   7
ATOM      7  C   UNL     1       9.599  11.066  18.958  0.00  0.00    +0.000 A 
ATOM      8  C   UNL     1      10.652  11.374  19.836  0.00  0.00    +0.000 A 
ATOM      9  C   UNL     1      11.212  12.661  19.870  0.00  0.00    +0.000 A 
ATOM     10  C   UNL     1      10.720  13.636  19.013  0.00  0.00    +0.000 A 
ATOM     11  C   UNL     1       9.697  13.331  18.121  0.00  0.00    +0.000 A 
ATOM     12  C   UNL     1       9.143  12.059  18.079  0.00  0.00    +0.000 A 
BRANCH  10  13
ATOM     13  O   UNL     1      11.207  14.913  19.005  0.00  0.00    +0.000 OA
ATOM     14  H   UNL     1      12.000  14.940  19.566  0.00  0.00    +0.000 HD
ENDBRANCH  10  13
BRANCH  11  15
ATOM     15  O   UNL     1       9.219  14.286  17.271  0.00  0.00    +0.000 OA
ATOM     16  H   UNL     1       9.560  14.020  16.391  0.00  0.00    +0.000 HD
ENDBRANCH  11  15
ENDBRANCH   6   7
ENDBRANCH   2   5
BRANCH   3  17
ATOM     17  C   UNL     1       6.198   6.354  16.756  0.00  0.00    +0.000 C 
BRANCH  17  18
ATOM     18  C   UNL     1       5.041   6.193  17.711  0.00  0.00    +0.000 A 
ATOM     19  C   UNL     1       3.885   6.978  17.585  0.00  0.00    +0.000 A 
ATOM     20  C   UNL     1       2.814   6.809  18.468  0.00  0.00    +0.000 A 
ATOM     21  C   UNL     1       2.892   5.854  19.479  0.00  0.00    +0.000 A 
ATOM     22 CL   UNL     1       1.574   5.647  20.566  0.00  0.00    +0.000 Cl
ATOM     23  C   UNL     1       4.031   5.063  19.615  0.00  0.00    +0.000 A 
ATOM     24  C   UNL     1       5.100   5.231  18.732  0.00  0.00    +0.000 A 
ENDBRANCH  17  18
ENDBRANCH   3  17
TORSDOF 6
ENDMDL
MODEL 4
REMARK VINA RESULT:      -7.7      1.204      1.451
REMARK  Name = 
REMARK  6 active torsions:
REMARK  status: ('A' for Active; 'I' for Inactive)
REMARK    1  A    between atoms: C_2  and  C_3
REMARK    2  A    between atoms: C_4  and  C_5
REMARK    3  A    between atoms: C_8  and  O_9
REMARK    4  A    between atoms: C_10  and  O_11
REMARK    5  A    between atoms: N_13  and  C_14
REMARK    6  A    between atoms: C_14  and  C_15
REMARK                            x       y       z     vdW  Elec       q    Type
REMARK                         _______ _______ _______ _____ _____    ______ ____
ROOT
ATOM      1  O   UNL     1       8.028   6.564  18.683  0.00  0.00    +0.000 OA
ATOM      2  C   UNL     1       7.743   7.401  17.839  0.00  0.00    +0.000 C 
ATOM      3  N   UNL     1       7.077   7.138  16.667  0.00  0.00    +0.000 N 
ATOM      4  H   UNL     1       6.868   7.884  16.020  0.00  0.00    +0.000 HD
ENDROOT
BRANCH   2   5
ATOM      5  C   UNL     1       8.092   8.836  17.978  0.00  0.00    +0.000 C 
ATOM      6  C   UNL     1       8.937   9.264  18.933  0.00  0.00    +0.000 C 
BRANCH   6   7
ATOM      7  C   UNL     1       9.327  10.675  19.083  0.00  0.00    +0.000 A 
ATOM      8  C   UNL     1       9.670  11.174  20.352  0.00  0.00    +0.000 A 
ATOM      9  C   UNL     1      10.039  12.517  20.525  0.00  0.00    +0.000 A 
ATOM     10  C   UNL     1      10.073  13.357  19.420  0.00  0.00    +0.000 A 
ATOM     11  C   UNL     1       9.761  12.864  18.157  0.00  0.00    +0.000 A 
ATOM     12  C   UNL     1       9.402  11.536  17.978  0.00  0.00    +0.000 A 
BRANCH  10  13
ATOM     13  O   UNL     1      10.406  14.679  19.520  0.00  0.00    +0.000 OA
ATOM     14  H   UNL     1      10.654  14.998  18.636  0.00  0.00    +0.000 HD
ENDBRANCH  10  13
BRANCH  11  15
ATOM     15  O   UNL     1       9.805  13.687  17.069  0.00  0.00    +0.000 OA
ATOM     16  H   UNL     1       9.315  13.199  16.375  0.00  0.00    +0.000 HD
ENDBRANCH  11  15
ENDBRANCH   6   7
ENDBRANCH   2   5
BRANCH   3  17
ATOM     17  C   UNL     1       6.649   5.806  16.299  0.00  0.00    +0.000 C 
BRANCH  17  18
ATOM     18  C   UNL     1       5.338   5.457  16.962  0.00  0.00    +0.000 A 
ATOM     19  C   UNL     1       5.018   4.128  17.275  0.00  0.00    +0.000 A 
ATOM     20  C   UNL     1       3.807   3.820  17.902  0.00  0.00    +0.000 A 
ATOM     21  C   UNL     1       2.911   4.839  18.219  0.00  0.00    +0.000 A 
ATOM     22 CL   UNL     1       1.420   4.458  18.990  0.00  0.00    +0.000 Cl
ATOM     23  C   UNL     1       3.216   6.164  17.920  0.00  0.00    +0.000 A 
ATOM     24  C   UNL     1       4.427   6.472  17.295  0.00  0.00    +0.000 A 
ENDBRANCH  17  18
ENDBRANCH   3  17
TORSDOF 6
ENDMDL
MODEL 5
REMARK VINA RESULT:      -7.7      1.347      1.552
REMARK  Name = 
REMARK  6 active torsions:
REMARK  status: ('A' for Active; 'I' for Inactive)
REMARK    1  A    between atoms: C_2  and  C_3
REMARK    2  A    between atoms: C_4  and  C_5
REMARK    3  A    between atoms: C_8  and  O_9
REMARK    4  A    between atoms: C_10  and  O_11
REMARK    5  A    between atoms: N_13  and  C_14
REMARK    6  A    between atoms: C_14  and  C_15
REMARK                            x       y       z     vdW  Elec       q    Type
REMARK                         _______ _______ _______ _____ _____    ______ ____
ROOT
ATOM      1  O   UNL     1       7.739   5.715  17.418  0.00  0.00    +0.000 OA
ATOM      2  C   UNL     1       7.380   6.882  17.462  0.00  0.00    +0.000 C 
ATOM      3  N   UNL     1       6.213   7.365  16.925  0.00  0.00    +0.000 N 
ATOM      4  H   UNL     1       5.979   8.344  17.008  0.00  0.00    +0.000 HD
ENDROOT
BRANCH   2   5
ATOM      5  C   UNL     1       8.183   7.946  18.114  0.00  0.00    +0.000 C 
ATOM      6  C   UNL     1       8.042   9.239  17.777  0.00  0.00    +0.000 C 
BRANCH   6   7
ATOM      7  C   UNL     1       8.801  10.323  18.422  0.00  0.00    +0.000 A 
ATOM      8  C   UNL     1       9.316  10.141  19.717  0.00  0.00    +0.000 A 
ATOM      9  C   UNL     1      10.037  11.160  20.357  0.00  0.00    +0.000 A 
ATOM     10  C   UNL     1      10.251  12.360  19.691  0.00  0.00    +0.000 A 
ATOM     11  C   UNL     1       9.769  12.537  18.399  0.00  0.00    +0.000 A 
ATOM     12  C   UNL     1       9.060  11.531  17.758  0.00  0.00    +0.000 A 
BRANCH  10  13
ATOM     13  O   UNL     1      10.930  13.400  20.262  0.00  0.00    +0.000 OA
ATOM     14  H   UNL     1      11.314  13.089  21.099  0.00  0.00    +0.000 HD
ENDBRANCH  10  13
BRANCH  11  15
ATOM     15  O   UNL     1       9.987  13.712  17.740  0.00  0.00    +0.000 OA
ATOM     16  H   UNL     1      10.868  14.006  18.051  0.00  0.00    +0.000 HD
ENDBRANCH  11  15
ENDBRANCH   6   7
ENDBRANCH   2   5
BRANCH   3  17
ATOM     17  C   UNL     1       5.274   6.520  16.221  0.00  0.00    +0.000 C 
BRANCH  17  18
ATOM     18  C   UNL     1       4.262   5.928  17.172  0.00  0.00    +0.000 A 
ATOM     19  C   UNL     1       3.459   6.751  17.977  0.00  0.00    +0.000 A 
ATOM     20  C   UNL     1       2.515   6.190  18.843  0.00  0.00    +0.000 A 
ATOM     21  C   UNL     1       2.368   4.806  18.907  0.00  0.00    +0.000 A 
ATOM     22 CL   UNL     1       1.207   4.118  19.974  0.00  0.00    +0.000 Cl
ATOM     23  C   UNL     1       3.153   3.976  18.111  0.00  0.00    +0.000 A 
ATOM     24  C   UNL     1       4.095   4.536  17.245  0.00  0.00    +0.000 A 
ENDBRANCH  17  18
ENDBRANCH   3  17
TORSDOF 6
ENDMDL
MODEL 6
REMARK VINA RESULT:      -7.7      1.611      2.352
REMARK  Name = 
REMARK  6 active torsions:
REMARK  status: ('A' for Active; 'I' for Inactive)
REMARK    1  A    between atoms: C_2  and  C_3
REMARK    2  A    between atoms: C_4  and  C_5
REMARK    3  A    between atoms: C_8  and  O_9
REMARK    4  A    between atoms: C_10  and  O_11
REMARK    5  A    between atoms: N_13  and  C_14
REMARK    6  A    between atoms: C_14  and  C_15
REMARK                            x       y       z     vdW  Elec       q    Type
REMARK                         _______ _______ _______ _____ _____    ______ ____
ROOT
ATOM      1  O   UNL     1       7.758   5.716  17.382  0.00  0.00    +0.000 OA
ATOM      2  C   UNL     1       7.396   6.876  17.519  0.00  0.00    +0.000 C 
ATOM      3  N   UNL     1       6.213   7.388  17.046  0.00  0.00    +0.000 N 
ATOM      4  H   UNL     1       5.977   8.357  17.204  0.00  0.00    +0.000 HD
ENDROOT
BRANCH   2   5
ATOM      5  C   UNL     1       8.210   7.896  18.225  0.00  0.00    +0.000 C 
ATOM      6  C   UNL     1       8.250   9.173  17.809  0.00  0.00    +0.000 C 
BRANCH   6   7
ATOM      7  C   UNL     1       9.024  10.216  18.501  0.00  0.00    +0.000 A 
ATOM      8  C   UNL     1       9.801  11.120  17.755  0.00  0.00    +0.000 A 
ATOM      9  C   UNL     1      10.554  12.120  18.390  0.00  0.00    +0.000 A 
ATOM     10  C   UNL     1      10.519  12.218  19.775  0.00  0.00    +0.000 A 
ATOM     11  C   UNL     1       9.732  11.345  20.517  0.00  0.00    +0.000 A 
ATOM     12  C   UNL     1       8.979  10.358  19.895  0.00  0.00    +0.000 A 
BRANCH  10  13
ATOM     13  O   UNL     1      11.241  13.157  20.457  0.00  0.00    +0.000 OA
ATOM     14  H   UNL     1      12.131  12.801  20.615  0.00  0.00    +0.000 HD
ENDBRANCH  10  13
BRANCH  11  15
ATOM     15  O   UNL     1       9.688  11.447  21.878  0.00  0.00    +0.000 OA
ATOM     16  H   UNL     1      10.039  10.590  22.197  0.00  0.00    +0.000 HD
ENDBRANCH  11  15
ENDBRANCH   6   7
ENDBRANCH   2   5
BRANCH   3  17
ATOM     17  C   UNL     1       5.261   6.589  16.306  0.00  0.00    +0.000 C 
BRANCH  17  18
ATOM     18  C   UNL     1       4.223   5.995  17.228  0.00  0.00    +0.000 A 
ATOM     19  C   UNL     1       4.049   4.606  17.320  0.00  0.00    +0.000 A 
ATOM     20  C   UNL     1       3.094   4.068  18.189  0.00  0.00    +0.000 A 
ATOM     21  C   UNL     1       2.310   4.916  18.969  0.00  0.00    +0.000 A 
ATOM     22 CL   UNL     1       1.135   4.253  20.037  0.00  0.00    +0.000 Cl
ATOM     23  C   UNL     1       2.474   6.297  18.893  0.00  0.00    +0.000 A 
ATOM     24  C   UNL     1       3.430   6.834  18.026  0.00  0.00    +0.000 A 
ENDBRANCH  17  18
ENDBRANCH   3  17
TORSDOF 6
ENDMDL
MODEL 7
REMARK VINA RESULT:      -7.7      1.342      1.786
REMARK  Name = 
REMARK  6 active torsions:
REMARK  status: ('A' for Active; 'I' for Inactive)
REMARK    1  A    between atoms: C_2  and  C_3
REMARK    2  A    between atoms: C_4  and  C_5
REMARK    3  A    between atoms: C_8  and  O_9
REMARK    4  A    between atoms: C_10  and  O_11
REMARK    5  A    between atoms: N_13  and  C_14
REMARK    6  A    between atoms: C_14  and  C_15
REMARK                            x       y       z     vdW  Elec       q    Type
REMARK                         _______ _______ _______ _____ _____    ______ ____
ROOT
ATOM      1  O   UNL     1       7.787   5.768  17.402  0.00  0.00    +0.000 OA
ATOM      2  C   UNL     1       7.404   6.928  17.450  0.00  0.00    +0.000 C 
ATOM      3  N   UNL     1       6.235   7.391  16.900  0.00  0.00    +0.000 N 
ATOM      4  H   UNL     1       5.980   8.364  16.987  0.00  0.00    +0.000 HD
ENDROOT
BRANCH   2   5
ATOM      5  C   UNL     1       8.176   8.002  18.121  0.00  0.00    +0.000 C 
ATOM      6  C   UNL     1       8.049   9.290  17.757  0.00  0.00    +0.000 C 
BRANCH   6   7
ATOM      7  C   UNL     1       8.778  10.385  18.419  0.00  0.00    +0.000 A 
ATOM      8  C   UNL     1       9.321  10.189  19.700  0.00  0.00    +0.000 A 
ATOM      9  C   UNL     1      10.014  11.218  20.356  0.00  0.00    +0.000 A 
ATOM     10  C   UNL     1      10.171  12.442  19.719  0.00  0.00    +0.000 A 
ATOM     11  C   UNL     1       9.661  12.634  18.440  0.00  0.00    +0.000 A 
ATOM     12  C   UNL     1       8.980  11.618  17.783  0.00  0.00    +0.000 A 
BRANCH  10  13
ATOM     13  O   UNL     1      10.820  13.491  20.307  0.00  0.00    +0.000 OA
ATOM     14  H   UNL     1      10.898  13.307  21.258  0.00  0.00    +0.000 HD
ENDBRANCH  10  13
BRANCH  11  15
ATOM     15  O   UNL     1       9.824  13.833  17.809  0.00  0.00    +0.000 OA
ATOM     16  H   UNL     1       9.988  14.470  18.535  0.00  0.00    +0.000 HD
ENDBRANCH  11  15
ENDBRANCH   6   7
ENDBRANCH   2   5
BRANCH   3  17
ATOM     17  C   UNL     1       5.323   6.532  16.177  0.00  0.00    +0.000 C 
BRANCH  17  18
ATOM     18  C   UNL     1       4.289   5.940  17.103  0.00  0.00    +0.000 A 
ATOM     19  C   UNL     1       4.093   4.552  17.175  0.00  0.00    +0.000 A 
ATOM     20  C   UNL     1       3.141   4.016  18.048  0.00  0.00    +0.000 A 
ATOM     21  C   UNL     1       2.383   4.863  18.854  0.00  0.00    +0.000 A 
ATOM     22 CL   UNL     1       1.212   4.202  19.927  0.00  0.00    +0.000 Cl
ATOM     23  C   UNL     1       2.569   6.243  18.798  0.00  0.00    +0.000 A 
ATOM     24  C   UNL     1       3.521   6.778  17.926  0.00  0.00    +0.000 A 
ENDBRANCH  17  18
ENDBRANCH   3  17
TORSDOF 6
ENDMDL
MODEL 8
REMARK VINA RESULT:      -7.6      0.906      1.340
REMARK  Name = 
REMARK  6 active torsions:
REMARK  status: ('A' for Active; 'I' for Inactive)
REMARK    1  A    between atoms: C_2  and  C_3
REMARK    2  A    between atoms: C_4  and  C_5
REMARK    3  A    between atoms: C_8  and  O_9
REMARK    4  A    between atoms: C_10  and  O_11
REMARK    5  A    between atoms: N_13  and  C_14
REMARK    6  A    between atoms: C_14  and  C_15
REMARK                            x       y       z     vdW  Elec       q    Type
REMARK                         _______ _______ _______ _____ _____    ______ ____
ROOT
ATOM      1  O   UNL     1       6.667   7.377  16.563  0.00  0.00    +0.000 OA
ATOM      2  C   UNL     1       7.466   7.120  17.451  0.00  0.00    +0.000 C 
ATOM      3  N   UNL     1       7.787   5.853  17.875  0.00  0.00    +0.000 N 
ATOM      4  H   UNL     1       8.465   5.717  18.610  0.00  0.00    +0.000 HD
ENDROOT
BRANCH   2   5
ATOM      5  C   UNL     1       8.203   8.168  18.201  0.00  0.00    +0.000 C 
ATOM      6  C   UNL     1       8.249   9.439  17.767  0.00  0.00    +0.000 C 
BRANCH   6   7
ATOM      7  C   UNL     1       8.946  10.509  18.498  0.00  0.00    +0.000 A 
ATOM      8  C   UNL     1       9.308  10.316  19.843  0.00  0.00    +0.000 A 
ATOM      9  C   UNL     1       9.968  11.323  20.565  0.00  0.00    +0.000 A 
ATOM     10  C   UNL     1      10.272  12.521  19.933  0.00  0.00    +0.000 A 
ATOM     11  C   UNL     1       9.942  12.709  18.595  0.00  0.00    +0.000 A 
ATOM     12  C   UNL     1       9.295  11.715  17.873  0.00  0.00    +0.000 A 
BRANCH  10  13
ATOM     13  O   UNL     1      10.897  13.549  20.582  0.00  0.00    +0.000 OA
ATOM     14  H   UNL     1      11.700  13.779  20.085  0.00  0.00    +0.000 HD
ENDBRANCH  10  13
BRANCH  11  15
ATOM     15  O   UNL     1      10.250  13.883  17.970  0.00  0.00    +0.000 OA
ATOM     16  H   UNL     1      10.394  14.518  18.702  0.00  0.00    +0.000 HD
ENDBRANCH  11  15
ENDBRANCH   6   7
ENDBRANCH   2   5
BRANCH   3  17
ATOM     17  C   UNL     1       7.182   4.668  17.306  0.00  0.00    +0.000 C 
BRANCH  17  18
ATOM     18  C   UNL     1       5.745   4.532  17.744  0.00  0.00    +0.000 A 
ATOM     19  C   UNL     1       4.752   4.115  16.844  0.00  0.00    +0.000 A 
ATOM     20  C   UNL     1       3.426   3.978  17.266  0.00  0.00    +0.000 A 
ATOM     21  C   UNL     1       3.086   4.258  18.588  0.00  0.00    +0.000 A 
ATOM     22 CL   UNL     1       1.453   4.090  19.106  0.00  0.00    +0.000 Cl
ATOM     23  C   UNL     1       4.060   4.668  19.495  0.00  0.00    +0.000 A 
ATOM     24  C   UNL     1       5.385   4.802  19.073  0.00  0.00    +0.000 A 
ENDBRANCH  17  18
ENDBRANCH   3  17
TORSDOF 6
ENDMDL
MODEL 9
REMARK VINA RESULT:      -7.6      1.310      1.959
REMARK  Name = 
REMARK  6 active torsions:
REMARK  status: ('A' for Active; 'I' for Inactive)
REMARK    1  A    between atoms: C_2  and  C_3
REMARK    2  A    between atoms: C_4  and  C_5
REMARK    3  A    between atoms: C_8  and  O_9
REMARK    4  A    between atoms: C_10  and  O_11
REMARK    5  A    between atoms: N_13  and  C_14
REMARK    6  A    between atoms: C_14  and  C_15
REMARK                            x       y       z     vdW  Elec       q    Type
REMARK                         _______ _______ _______ _____ _____    ______ ____
ROOT
ATOM      1  O   UNL     1       7.840   5.990  17.985  0.00  0.00    +0.000 OA
ATOM      2  C   UNL     1       7.266   6.924  17.445  0.00  0.00    +0.000 C 
ATOM      3  N   UNL     1       6.232   6.799  16.551  0.00  0.00    +0.000 N 
ATOM      4  H   UNL     1       5.800   7.620  16.151  0.00  0.00    +0.000 HD
ENDROOT
BRANCH   2   5
ATOM      5  C   UNL     1       7.628   8.342  17.694  0.00  0.00    +0.000 C 
ATOM      6  C   UNL     1       8.545   8.681  18.616  0.00  0.00    +0.000 C 
BRANCH   6   7
ATOM      7  C   UNL     1       8.948  10.074  18.870  0.00  0.00    +0.000 A 
ATOM      8  C   UNL     1       8.869  11.024  17.836  0.00  0.00    +0.000 A 
ATOM      9  C   UNL     1       9.254  12.356  18.049  0.00  0.00    +0.000 A 
ATOM     10  C   UNL     1       9.708  12.738  19.305  0.00  0.00    +0.000 A 
ATOM     11  C   UNL     1       9.763  11.810  20.339  0.00  0.00    +0.000 A 
ATOM     12  C   UNL     1       9.378  10.492  20.137  0.00  0.00    +0.000 A 
BRANCH  10  13
ATOM     13  O   UNL     1      10.114  14.015  19.576  0.00  0.00    +0.000 OA
ATOM     14  H   UNL     1      10.861  14.227  18.992  0.00  0.00    +0.000 HD
ENDBRANCH  10  13
BRANCH  11  15
ATOM     15  O   UNL     1      10.199  12.187  21.577  0.00  0.00    +0.000 OA
ATOM     16  H   UNL     1       9.577  11.752  22.197  0.00  0.00    +0.000 HD
ENDBRANCH  11  15
ENDBRANCH   6   7
ENDBRANCH   2   5
BRANCH   3  17
ATOM     17  C   UNL     1       5.715   5.513  16.137  0.00  0.00    +0.000 C 
BRANCH  17  18
ATOM     18  C   UNL     1       4.539   5.103  16.989  0.00  0.00    +0.000 A 
ATOM     19  C   UNL     1       3.938   6.010  17.876  0.00  0.00    +0.000 A 
ATOM     20  C   UNL     1       2.840   5.622  18.649  0.00  0.00    +0.000 A 
ATOM     21  C   UNL     1       2.335   4.328  18.539  0.00  0.00    +0.000 A 
ATOM     22 CL   UNL     1       0.984   3.852  19.491  0.00  0.00    +0.000 Cl
ATOM     23  C   UNL     1       2.916   3.417  17.659  0.00  0.00    +0.000 A 
ATOM     24  C   UNL     1       4.013   3.806  16.885  0.00  0.00    +0.000 A 
ENDBRANCH  17  18
ENDBRANCH   3  17
TORSDOF 6
ENDMDL
