MODEL 1
REMARK VINA RESULT:      -8.4      0.000      0.000
REMARK  Name = 
REMARK  10 active torsions:
REMARK  status: ('A' for Active; 'I' for Inactive)
REMARK    1  A    between atoms: C_1  and  C_2
REMARK    2  A    between atoms: C_2  and  C_3
REMARK    3  A    between atoms: C_6  and  N_7
REMARK    4  A    between atoms: C_8  and  C_10
REMARK    5  A    between atoms: C_10  and  N_11
REMARK    6  A    between atoms: N_14  and  C_15
REMARK    7  A    between atoms: C_20  and  C_21
REMARK    8  A    between atoms: C_28  and  O_29
REMARK    9  A    between atoms: O_29  and  C_30
REMARK   10  A    between atoms: N_34  and  C_35
REMARK                            x       y       z     vdW  Elec       q    Type
REMARK                         _______ _______ _______ _____ _____    ______ ____
ROOT
ATOM      1  N   UNL     1       0.780  11.491  18.766  0.00  0.00    +0.000 N 
ATOM      2  C   UNL     1       1.278  12.795  18.614  0.00  0.00    +0.000 A 
ATOM      3  O   UNL     1       2.135  13.056  17.761  0.00  0.00    +0.000 OA
ATOM      4  N   UNL     1       0.941  13.671  19.639  0.00  0.00    +0.000 N 
ATOM      5  C   UNL     1       1.027  13.142  20.973  0.00  0.00    +0.000 A 
ATOM      6  O   UNL     1       1.172  13.798  22.000  0.00  0.00    +0.000 OA
ATOM      7  C   UNL     1       0.739  11.658  20.996  0.00  0.00    +0.000 A 
ATOM      8  C   UNL     1      -0.052  11.318  19.914  0.00  0.00    +0.000 A 
ATOM      9  C   UNL     1      -1.324  11.809  20.652  0.00  0.00    +0.000 A 
ATOM     10  C   UNL     1      -2.455  12.700  20.552  0.00  0.00    +0.000 A 
ATOM     11  C   UNL     1      -3.170  13.047  21.757  0.00  0.00    +0.000 A 
ATOM     12  C   UNL     1      -2.861  12.479  22.998  0.00  0.00    +0.000 A 
ATOM     13  C   UNL     1      -1.833  11.585  23.130  0.00  0.00    +0.000 A 
ATOM     14  C   UNL     1      -1.094  11.359  21.982  0.00  0.00    +0.000 A 
ATOM     15  N   UNL     1       0.147  10.777  21.901  0.00  0.00    +0.000 N 
ATOM     16  C   UNL     1       0.148   9.310  21.841  0.00  0.00    +0.000 C 
ENDROOT
BRANCH   4  17
ATOM     17  C   UNL     1       0.934  15.060  19.267  0.00  0.00    +0.000 A 
ATOM     18  C   UNL     1      -0.228  15.644  18.756  0.00  0.00    +0.000 A 
ATOM     19  C   UNL     1      -0.305  17.023  18.545  0.00  0.00    +0.000 A 
ATOM     20  C   UNL     1       0.780  17.847  18.828  0.00  0.00    +0.000 A 
ATOM     21  C   UNL     1       1.968  17.291  19.282  0.00  0.00    +0.000 A 
ATOM     22  C   UNL     1       2.078  15.902  19.481  0.00  0.00    +0.000 A 
ATOM     23  C   UNL     1       3.445  15.414  19.916  0.00  0.00    +0.000 C 
ENDBRANCH   4  17
BRANCH  11  24
ATOM     24  O   UNL     1      -4.180  13.949  21.956  0.00  0.00    +0.000 OA
ATOM     25  C   UNL     1      -5.297  13.648  22.754  0.00  0.00    +0.000 C 
ENDBRANCH  11  24
BRANCH   1  26
ATOM     26  C   UNL     1       1.944  10.532  18.531  0.00  0.00    +0.000 C 
BRANCH  26  28
ATOM     27  N   UNL     1       2.285   8.073  19.319  0.00  0.00    +0.000 N 
ATOM     28  C   UNL     1       1.705   8.955  18.388  0.00  0.00    +0.000 C 
ATOM     29  O   UNL     1       1.010   8.568  17.448  0.00  0.00    +0.000 OA
ATOM     30  H   UNL     1       2.749   8.481  20.125  0.00  0.00    +0.000 HD
BRANCH  27  34
ATOM     31  C   UNL     1       2.181   3.710  19.184  0.00  0.00    +0.000 A 
ATOM     32  C   UNL     1       1.781   4.416  20.319  0.00  0.00    +0.000 A 
ATOM     33  C   UNL     1       1.795   5.833  20.383  0.00  0.00    +0.000 A 
ATOM     34  C   UNL     1       2.223   6.618  19.310  0.00  0.00    +0.000 A 
ATOM     35  C   UNL     1       2.598   5.906  18.152  0.00  0.00    +0.000 A 
ATOM     36  C   UNL     1       2.583   4.482  18.094  0.00  0.00    +0.000 A 
BRANCH  31  38
ATOM     37  C   UNL     1       3.399   1.603  18.422  0.00  0.00    +0.000 C 
ATOM     38  C   UNL     1       2.204   2.196  19.157  0.00  0.00    +0.000 C 
ENDBRANCH  31  38
ENDBRANCH  27  34
ENDBRANCH  26  28
ENDBRANCH   1  26
TORSDOF 6
ENDMDL
MODEL 2
REMARK VINA RESULT:      -8.0      0.845      1.076
REMARK  Name = 
REMARK  10 active torsions:
REMARK  status: ('A' for Active; 'I' for Inactive)
REMARK    1  A    between atoms: C_1  and  C_2
REMARK    2  A    between atoms: C_2  and  C_3
REMARK    3  A    between atoms: C_6  and  N_7
REMARK    4  A    between atoms: C_8  and  C_10
REMARK    5  A    between atoms: C_10  and  N_11
REMARK    6  A    between atoms: N_14  and  C_15
REMARK    7  A    between atoms: C_20  and  C_21
REMARK    8  A    between atoms: C_28  and  O_29
REMARK    9  A    between atoms: O_29  and  C_30
REMARK   10  A    between atoms: N_34  and  C_35
REMARK                            x       y       z     vdW  Elec       q    Type
REMARK                         _______ _______ _______ _____ _____    ______ ____
ROOT
ATOM      1  N   UNL     1       0.768  11.890  18.639  0.00  0.00    +0.000 N 
ATOM      2  C   UNL     1       1.148  13.241  18.598  0.00  0.00    +0.000 A 
ATOM      3  O   UNL     1       1.928  13.659  17.733  0.00  0.00    +0.000 OA
ATOM      4  N   UNL     1       0.805  13.978  19.725  0.00  0.00    +0.000 N 
ATOM      5  C   UNL     1       1.014  13.329  20.990  0.00  0.00    +0.000 A 
ATOM      6  O   UNL     1       1.168  13.889  22.071  0.00  0.00    +0.000 OA
ATOM      7  C   UNL     1       0.850  11.831  20.873  0.00  0.00    +0.000 A 
ATOM      8  C   UNL     1       0.024  11.532  19.804  0.00  0.00    +0.000 A 
ATOM      9  C   UNL     1      -1.236  11.834  20.656  0.00  0.00    +0.000 A 
ATOM     10  C   UNL     1      -2.439  12.629  20.709  0.00  0.00    +0.000 A 
ATOM     11  C   UNL     1      -3.105  12.791  21.979  0.00  0.00    +0.000 A 
ATOM     12  C   UNL     1      -2.677  12.132  23.136  0.00  0.00    +0.000 A 
ATOM     13  C   UNL     1      -1.573  11.322  23.120  0.00  0.00    +0.000 A 
ATOM     14  C   UNL     1      -0.890  11.276  21.918  0.00  0.00    +0.000 A 
ATOM     15  N   UNL     1       0.388  10.815  21.712  0.00  0.00    +0.000 N 
ATOM     16  C   UNL     1       0.505   9.368  21.499  0.00  0.00    +0.000 C 
ENDROOT
BRANCH   4  17
ATOM     17  C   UNL     1       0.662  15.391  19.500  0.00  0.00    +0.000 A 
ATOM     18  C   UNL     1      -0.571  15.918  19.107  0.00  0.00    +0.000 A 
ATOM     19  C   UNL     1      -0.773  17.300  19.046  0.00  0.00    +0.000 A 
ATOM     20  C   UNL     1       0.254  18.184  19.362  0.00  0.00    +0.000 A 
ATOM     21  C   UNL     1       1.507  17.692  19.700  0.00  0.00    +0.000 A 
ATOM     22  C   UNL     1       1.743  16.305  19.748  0.00  0.00    +0.000 A 
ATOM     23  C   UNL     1       3.167  15.898  20.065  0.00  0.00    +0.000 C 
ENDBRANCH   4  17
BRANCH  11  24
ATOM     24  O   UNL     1      -4.171  13.578  22.323  0.00  0.00    +0.000 OA
ATOM     25  C   UNL     1      -4.109  14.482  23.398  0.00  0.00    +0.000 C 
ENDBRANCH  11  24
BRANCH   1  26
ATOM     26  C   UNL     1       1.990  11.064  18.245  0.00  0.00    +0.000 C 
BRANCH  26  28
ATOM     27  N   UNL     1       2.977   8.654  18.242  0.00  0.00    +0.000 N 
ATOM     28  C   UNL     1       1.876   9.489  17.975  0.00  0.00    +0.000 C 
ATOM     29  O   UNL     1       0.809   9.064  17.535  0.00  0.00    +0.000 OA
ATOM     30  H   UNL     1       3.779   9.069  18.707  0.00  0.00    +0.000 HD
BRANCH  27  34
ATOM     31  C   UNL     1       3.395   4.370  17.505  0.00  0.00    +0.000 A 
ATOM     32  C   UNL     1       2.266   4.897  18.137  0.00  0.00    +0.000 A 
ATOM     33  C   UNL     1       2.103   6.286  18.376  0.00  0.00    +0.000 A 
ATOM     34  C   UNL     1       3.072   7.220  18.003  0.00  0.00    +0.000 A 
ATOM     35  C   UNL     1       4.197   6.691  17.338  0.00  0.00    +0.000 A 
ATOM     36  C   UNL     1       4.356   5.295  17.101  0.00  0.00    +0.000 A 
BRANCH  31  38
ATOM     37  C   UNL     1       2.819   2.022  18.316  0.00  0.00    +0.000 C 
ATOM     38  C   UNL     1       3.569   2.879  17.304  0.00  0.00    +0.000 C 
ENDBRANCH  31  38
ENDBRANCH  27  34
ENDBRANCH  26  28
ENDBRANCH   1  26
TORSDOF 6
ENDMDL
MODEL 3
REMARK VINA RESULT:      -7.8      0.897      1.215
REMARK  Name = 
REMARK  10 active torsions:
REMARK  status: ('A' for Active; 'I' for Inactive)
REMARK    1  A    between atoms: C_1  and  C_2
REMARK    2  A    between atoms: C_2  and  C_3
REMARK    3  A    between atoms: C_6  and  N_7
REMARK    4  A    between atoms: C_8  and  C_10
REMARK    5  A    between atoms: C_10  and  N_11
REMARK    6  A    between atoms: N_14  and  C_15
REMARK    7  A    between atoms: C_20  and  C_21
REMARK    8  A    between atoms: C_28  and  O_29
REMARK    9  A    between atoms: O_29  and  C_30
REMARK   10  A    between atoms: N_34  and  C_35
REMARK                            x       y       z     vdW  Elec       q    Type
REMARK                         _______ _______ _______ _____ _____    ______ ____
ROOT
ATOM      1  N   UNL     1       0.421  11.452  19.725  0.00  0.00    +0.000 N 
ATOM      2  C   UNL     1       0.987  12.694  19.395  0.00  0.00    +0.000 A 
ATOM      3  O   UNL     1       1.989  12.767  18.672  0.00  0.00    +0.000 OA
ATOM      4  N   UNL     1       0.512  13.767  20.138  0.00  0.00    +0.000 N 
ATOM      5  C   UNL     1       0.344  13.534  21.546  0.00  0.00    +0.000 A 
ATOM      6  O   UNL     1       0.334  14.393  22.423  0.00  0.00    +0.000 OA
ATOM      7  C   UNL     1       0.000  12.089  21.827  0.00  0.00    +0.000 A 
ATOM      8  C   UNL     1      -0.604  11.527  20.717  0.00  0.00    +0.000 A 
ATOM      9  C   UNL     1      -1.964  12.164  21.099  0.00  0.00    +0.000 A 
ATOM     10  C   UNL     1      -3.026  13.015  20.615  0.00  0.00    +0.000 A 
ATOM     11  C   UNL     1      -3.925  13.610  21.574  0.00  0.00    +0.000 A 
ATOM     12  C   UNL     1      -3.859  13.319  22.941  0.00  0.00    +0.000 A 
ATOM     13  C   UNL     1      -2.904  12.472  23.438  0.00  0.00    +0.000 A 
ATOM     14  C   UNL     1      -1.987  12.007  22.512  0.00  0.00    +0.000 A 
ATOM     15  N   UNL     1      -0.773  11.420  22.777  0.00  0.00    +0.000 N 
ATOM     16  C   UNL     1      -0.818   9.974  23.025  0.00  0.00    +0.000 C 
ENDROOT
BRANCH   4  17
ATOM     17  C   UNL     1       0.623  15.045  19.488  0.00  0.00    +0.000 A 
ATOM     18  C   UNL     1      -0.422  15.521  18.691  0.00  0.00    +0.000 A 
ATOM     19  C   UNL     1      -0.405  16.825  18.189  0.00  0.00    +0.000 A 
ATOM     20  C   UNL     1       0.661  17.677  18.461  0.00  0.00    +0.000 A 
ATOM     21  C   UNL     1       1.741  17.217  19.200  0.00  0.00    +0.000 A 
ATOM     22  C   UNL     1       1.758  15.900  19.699  0.00  0.00    +0.000 A 
ATOM     23  C   UNL     1       3.021  15.499  20.434  0.00  0.00    +0.000 C 
ENDBRANCH   4  17
BRANCH  11  24
ATOM     24  O   UNL     1      -4.919  14.534  21.397  0.00  0.00    +0.000 OA
ATOM     25  C   UNL     1      -4.970  15.721  22.149  0.00  0.00    +0.000 C 
ENDBRANCH  11  24
BRANCH   1  26
ATOM     26  C   UNL     1       1.570  10.464  19.906  0.00  0.00    +0.000 C 
BRANCH  26  28
ATOM     27  N   UNL     1       1.986   7.894  19.955  0.00  0.00    +0.000 N 
ATOM     28  C   UNL     1       1.533   9.012  19.231  0.00  0.00    +0.000 C 
ATOM     29  O   UNL     1       1.100   8.930  18.082  0.00  0.00    +0.000 OA
ATOM     30  H   UNL     1       2.221   8.032  20.934  0.00  0.00    +0.000 HD
BRANCH  27  34
ATOM     31  C   UNL     1       2.175   3.734  18.640  0.00  0.00    +0.000 A 
ATOM     32  C   UNL     1       2.611   4.780  17.824  0.00  0.00    +0.000 A 
ATOM     33  C   UNL     1       2.570   6.137  18.234  0.00  0.00    +0.000 A 
ATOM     34  C   UNL     1       2.078   6.519  19.484  0.00  0.00    +0.000 A 
ATOM     35  C   UNL     1       1.667   5.460  20.320  0.00  0.00    +0.000 A 
ATOM     36  C   UNL     1       1.710   4.098  19.903  0.00  0.00    +0.000 A 
BRANCH  31  38
ATOM     37  C   UNL     1       3.518   1.587  18.346  0.00  0.00    +0.000 C 
ATOM     38  C   UNL     1       2.183   2.297  18.162  0.00  0.00    +0.000 C 
ENDBRANCH  31  38
ENDBRANCH  27  34
ENDBRANCH  26  28
ENDBRANCH   1  26
TORSDOF 6
ENDMDL
MODEL 4
REMARK VINA RESULT:      -7.6      0.477      1.387
REMARK  Name = 
REMARK  10 active torsions:
REMARK  status: ('A' for Active; 'I' for Inactive)
REMARK    1  A    between atoms: C_1  and  C_2
REMARK    2  A    between atoms: C_2  and  C_3
REMARK    3  A    between atoms: C_6  and  N_7
REMARK    4  A    between atoms: C_8  and  C_10
REMARK    5  A    between atoms: C_10  and  N_11
REMARK    6  A    between atoms: N_14  and  C_15
REMARK    7  A    between atoms: C_20  and  C_21
REMARK    8  A    between atoms: C_28  and  O_29
REMARK    9  A    between atoms: O_29  and  C_30
REMARK   10  A    between atoms: N_34  and  C_35
REMARK                            x       y       z     vdW  Elec       q    Type
REMARK                         _______ _______ _______ _____ _____    ______ ____
ROOT
ATOM      1  N   UNL     1       0.854  11.509  18.651  0.00  0.00    +0.000 N 
ATOM      2  C   UNL     1       1.351  12.818  18.551  0.00  0.00    +0.000 A 
ATOM      3  O   UNL     1       2.166  13.128  17.673  0.00  0.00    +0.000 OA
ATOM      4  N   UNL     1       1.071  13.632  19.642  0.00  0.00    +0.000 N 
ATOM      5  C   UNL     1       1.221  13.025  20.936  0.00  0.00    +0.000 A 
ATOM      6  O   UNL     1       1.422  13.618  21.992  0.00  0.00    +0.000 OA
ATOM      7  C   UNL     1       0.927  11.543  20.886  0.00  0.00    +0.000 A 
ATOM      8  C   UNL     1       0.081  11.270  19.827  0.00  0.00    +0.000 A 
ATOM      9  C   UNL     1      -1.149  11.718  20.657  0.00  0.00    +0.000 A 
ATOM     10  C   UNL     1      -2.279  12.617  20.667  0.00  0.00    +0.000 A 
ATOM     11  C   UNL     1      -2.931  12.893  21.925  0.00  0.00    +0.000 A 
ATOM     12  C   UNL     1      -2.563  12.252  23.113  0.00  0.00    +0.000 A 
ATOM     13  C   UNL     1      -1.534  11.349  23.140  0.00  0.00    +0.000 A 
ATOM     14  C   UNL     1      -0.855  11.190  21.944  0.00  0.00    +0.000 A 
ATOM     15  N   UNL     1       0.377  10.611  21.766  0.00  0.00    +0.000 N 
ATOM     16  C   UNL     1       0.368   9.150  21.619  0.00  0.00    +0.000 C 
ENDROOT
BRANCH   4  17
ATOM     17  C   UNL     1       1.053  15.041  19.354  0.00  0.00    +0.000 A 
ATOM     18  C   UNL     1       2.205  15.677  18.885  0.00  0.00    +0.000 A 
ATOM     19  C   UNL     1       2.164  17.002  18.443  0.00  0.00    +0.000 A 
ATOM     20  C   UNL     1       0.975  17.724  18.472  0.00  0.00    +0.000 A 
ATOM     21  C   UNL     1      -0.174  17.141  18.985  0.00  0.00    +0.000 A 
ATOM     22  C   UNL     1      -0.154  15.814  19.458  0.00  0.00    +0.000 A 
ATOM     23  C   UNL     1      -1.455  15.316  20.053  0.00  0.00    +0.000 C 
ENDBRANCH   4  17
BRANCH  11  24
ATOM     24  O   UNL     1      -3.925  13.784  22.228  0.00  0.00    +0.000 OA
ATOM     25  C   UNL     1      -5.281  13.413  22.222  0.00  0.00    +0.000 C 
ENDBRANCH  11  24
BRANCH   1  26
ATOM     26  C   UNL     1       2.000  10.563  18.301  0.00  0.00    +0.000 C 
BRANCH  26  28
ATOM     27  N   UNL     1       2.553   8.103  18.953  0.00  0.00    +0.000 N 
ATOM     28  C   UNL     1       1.768   8.982  18.185  0.00  0.00    +0.000 C 
ATOM     29  O   UNL     1       0.893   8.592  17.413  0.00  0.00    +0.000 OA
ATOM     30  H   UNL     1       3.173   8.511  19.646  0.00  0.00    +0.000 HD
BRANCH  27  34
ATOM     31  C   UNL     1       2.361   3.740  18.994  0.00  0.00    +0.000 A 
ATOM     32  C   UNL     1       2.899   4.439  17.911  0.00  0.00    +0.000 A 
ATOM     33  C   UNL     1       2.983   5.855  17.880  0.00  0.00    +0.000 A 
ATOM     34  C   UNL     1       2.519   6.647  18.933  0.00  0.00    +0.000 A 
ATOM     35  C   UNL     1       2.004   5.940  20.039  0.00  0.00    +0.000 A 
ATOM     36  C   UNL     1       1.922   4.518  20.065  0.00  0.00    +0.000 A 
BRANCH  31  38
ATOM     37  C   UNL     1       3.467   1.510  18.444  0.00  0.00    +0.000 C 
ATOM     38  C   UNL     1       2.239   2.231  18.983  0.00  0.00    +0.000 C 
ENDBRANCH  31  38
ENDBRANCH  27  34
ENDBRANCH  26  28
ENDBRANCH   1  26
TORSDOF 6
ENDMDL
MODEL 5
REMARK VINA RESULT:      -7.3      2.141      4.970
REMARK  Name = 
REMARK  10 active torsions:
REMARK  status: ('A' for Active; 'I' for Inactive)
REMARK    1  A    between atoms: C_1  and  C_2
REMARK    2  A    between atoms: C_2  and  C_3
REMARK    3  A    between atoms: C_6  and  N_7
REMARK    4  A    between atoms: C_8  and  C_10
REMARK    5  A    between atoms: C_10  and  N_11
REMARK    6  A    between atoms: N_14  and  C_15
REMARK    7  A    between atoms: C_20  and  C_21
REMARK    8  A    between atoms: C_28  and  O_29
REMARK    9  A    between atoms: O_29  and  C_30
REMARK   10  A    between atoms: N_34  and  C_35
REMARK                            x       y       z     vdW  Elec       q    Type
REMARK                         _______ _______ _______ _____ _____    ______ ____
ROOT
ATOM      1  N   UNL     1       0.324  11.207  21.813  0.00  0.00    +0.000 N 
ATOM      2  C   UNL     1      -0.803  11.696  22.493  0.00  0.00    +0.000 A 
ATOM      3  O   UNL     1      -1.527  10.942  23.155  0.00  0.00    +0.000 OA
ATOM      4  N   UNL     1      -1.175  12.990  22.151  0.00  0.00    +0.000 N 
ATOM      5  C   UNL     1      -1.128  13.310  20.750  0.00  0.00    +0.000 A 
ATOM      6  O   UNL     1      -1.763  14.199  20.192  0.00  0.00    +0.000 OA
ATOM      7  C   UNL     1      -0.050  12.521  20.042  0.00  0.00    +0.000 A 
ATOM      8  C   UNL     1       0.935  12.161  20.944  0.00  0.00    +0.000 A 
ATOM      9  C   UNL     1       1.580  13.568  20.845  0.00  0.00    +0.000 A 
ATOM     10  C   UNL     1       1.998  14.711  21.621  0.00  0.00    +0.000 A 
ATOM     11  C   UNL     1       2.210  15.966  20.942  0.00  0.00    +0.000 A 
ATOM     12  C   UNL     1       2.112  16.089  19.551  0.00  0.00    +0.000 A 
ATOM     13  C   UNL     1       1.773  15.017  18.769  0.00  0.00    +0.000 A 
ATOM     14  C   UNL     1       1.466  13.857  19.457  0.00  0.00    +0.000 A 
ATOM     15  N   UNL     1       0.806  12.756  18.966  0.00  0.00    +0.000 N 
ATOM     16  C   UNL     1       1.653  11.776  18.275  0.00  0.00    +0.000 C 
ENDROOT
BRANCH   4  17
ATOM     17  C   UNL     1      -1.912  13.694  23.165  0.00  0.00    +0.000 A 
ATOM     18  C   UNL     1      -1.235  14.441  24.133  0.00  0.00    +0.000 A 
ATOM     19  C   UNL     1      -1.933  15.263  25.023  0.00  0.00    +0.000 A 
ATOM     20  C   UNL     1      -3.321  15.346  24.974  0.00  0.00    +0.000 A 
ATOM     21  C   UNL     1      -4.026  14.573  24.063  0.00  0.00    +0.000 A 
ATOM     22  C   UNL     1      -3.348  13.721  23.171  0.00  0.00    +0.000 A 
ATOM     23  C   UNL     1      -4.234  12.882  22.271  0.00  0.00    +0.000 C 
ENDBRANCH   4  17
BRANCH  11  24
ATOM     24  O   UNL     1       2.483  17.209  21.447  0.00  0.00    +0.000 OA
ATOM     25  C   UNL     1       1.464  18.141  21.713  0.00  0.00    +0.000 C 
ENDBRANCH  11  24
BRANCH   1  26
ATOM     26  C   UNL     1      -0.036   9.824  21.276  0.00  0.00    +0.000 C 
BRANCH  26  28
ATOM     27  N   UNL     1       1.414   8.529  19.543  0.00  0.00    +0.000 N 
ATOM     28  C   UNL     1       1.098   8.760  20.895  0.00  0.00    +0.000 C 
ATOM     29  O   UNL     1       1.660   8.173  21.819  0.00  0.00    +0.000 OA
ATOM     30  H   UNL     1       0.983   9.135  18.851  0.00  0.00    +0.000 HD
BRANCH  27  34
ATOM     31  C   UNL     1       4.332   5.736  17.885  0.00  0.00    +0.000 A 
ATOM     32  C   UNL     1       3.583   5.423  19.022  0.00  0.00    +0.000 A 
ATOM     33  C   UNL     1       2.622   6.309  19.571  0.00  0.00    +0.000 A 
ATOM     34  C   UNL     1       2.368   7.564  19.014  0.00  0.00    +0.000 A 
ATOM     35  C   UNL     1       3.101   7.868  17.849  0.00  0.00    +0.000 A 
ATOM     36  C   UNL     1       4.066   6.974  17.301  0.00  0.00    +0.000 A 
BRANCH  31  38
ATOM     37  C   UNL     1       5.267   4.514  15.852  0.00  0.00    +0.000 C 
ATOM     38  C   UNL     1       5.387   4.794  17.345  0.00  0.00    +0.000 C 
ENDBRANCH  31  38
ENDBRANCH  27  34
ENDBRANCH  26  28
ENDBRANCH   1  26
TORSDOF 6
ENDMDL
MODEL 6
REMARK VINA RESULT:      -7.2      2.852      5.819
REMARK  Name = 
REMARK  10 active torsions:
REMARK  status: ('A' for Active; 'I' for Inactive)
REMARK    1  A    between atoms: C_1  and  C_2
REMARK    2  A    between atoms: C_2  and  C_3
REMARK    3  A    between atoms: C_6  and  N_7
REMARK    4  A    between atoms: C_8  and  C_10
REMARK    5  A    between atoms: C_10  and  N_11
REMARK    6  A    between atoms: N_14  and  C_15
REMARK    7  A    between atoms: C_20  and  C_21
REMARK    8  A    between atoms: C_28  and  O_29
REMARK    9  A    between atoms: O_29  and  C_30
REMARK   10  A    between atoms: N_34  and  C_35
REMARK                            x       y       z     vdW  Elec       q    Type
REMARK                         _______ _______ _______ _____ _____    ______ ____
ROOT
ATOM      1  N   UNL     1      -2.133  12.850  21.033  0.00  0.00    +0.000 N 
ATOM      2  C   UNL     1      -3.521  12.976  21.203  0.00  0.00    +0.000 A 
ATOM      3  O   UNL     1      -4.308  12.227  20.611  0.00  0.00    +0.000 OA
ATOM      4  N   UNL     1      -3.925  14.137  21.850  0.00  0.00    +0.000 N 
ATOM      5  C   UNL     1      -3.252  15.345  21.458  0.00  0.00    +0.000 A 
ATOM      6  O   UNL     1      -3.689  16.485  21.577  0.00  0.00    +0.000 OA
ATOM      7  C   UNL     1      -1.830  15.065  21.026  0.00  0.00    +0.000 A 
ATOM      8  C   UNL     1      -1.377  13.905  21.628  0.00  0.00    +0.000 A 
ATOM      9  C   UNL     1      -1.070  14.672  22.940  0.00  0.00    +0.000 A 
ATOM     10  C   UNL     1      -1.337  14.700  24.358  0.00  0.00    +0.000 A 
ATOM     11  C   UNL     1      -1.074  15.918  25.086  0.00  0.00    +0.000 A 
ATOM     12  C   UNL     1      -0.487  17.037  24.484  0.00  0.00    +0.000 A 
ATOM     13  C   UNL     1      -0.165  17.035  23.153  0.00  0.00    +0.000 A 
ATOM     14  C   UNL     1      -0.532  15.897  22.457  0.00  0.00    +0.000 A 
ATOM     15  N   UNL     1      -0.619  15.756  21.093  0.00  0.00    +0.000 N 
ATOM     16  C   UNL     1       0.637  15.410  20.418  0.00  0.00    +0.000 C 
ENDROOT
BRANCH   4  17
ATOM     17  C   UNL     1      -5.195  14.043  22.518  0.00  0.00    +0.000 A 
ATOM     18  C   UNL     1      -6.324  14.659  21.972  0.00  0.00    +0.000 A 
ATOM     19  C   UNL     1      -7.593  14.442  22.514  0.00  0.00    +0.000 A 
ATOM     20  C   UNL     1      -7.762  13.616  23.621  0.00  0.00    +0.000 A 
ATOM     21  C   UNL     1      -6.655  13.036  24.223  0.00  0.00    +0.000 A 
ATOM     22  C   UNL     1      -5.363  13.257  23.710  0.00  0.00    +0.000 A 
ATOM     23  C   UNL     1      -4.233  12.621  24.494  0.00  0.00    +0.000 C 
ENDBRANCH   4  17
BRANCH  11  24
ATOM     24  O   UNL     1      -1.348  16.247  26.386  0.00  0.00    +0.000 OA
ATOM     25  C   UNL     1      -0.359  16.753  27.248  0.00  0.00    +0.000 C 
ENDBRANCH  11  24
BRANCH   1  26
ATOM     26  C   UNL     1      -1.888  12.481  19.572  0.00  0.00    +0.000 C 
BRANCH  26  28
ATOM     27  N   UNL     1       0.171  10.887  19.536  0.00  0.00    +0.000 N 
ATOM     28  C   UNL     1      -1.170  11.106  19.171  0.00  0.00    +0.000 C 
ATOM     29  O   UNL     1      -1.834  10.280  18.547  0.00  0.00    +0.000 OA
ATOM     30  H   UNL     1       0.610  11.571  20.145  0.00  0.00    +0.000 HD
BRANCH  27  34
ATOM     31  C   UNL     1       2.589   7.357  18.660  0.00  0.00    +0.000 A 
ATOM     32  C   UNL     1       2.368   8.349  17.702  0.00  0.00    +0.000 A 
ATOM     33  C   UNL     1       1.597   9.509  17.967  0.00  0.00    +0.000 A 
ATOM     34  C   UNL     1       0.995   9.731  19.208  0.00  0.00    +0.000 A 
ATOM     35  C   UNL     1       1.243   8.745  20.184  0.00  0.00    +0.000 A 
ATOM     36  C   UNL     1       2.019   7.580  19.913  0.00  0.00    +0.000 A 
BRANCH  31  38
ATOM     37  C   UNL     1       3.036   4.911  19.224  0.00  0.00    +0.000 C 
ATOM     38  C   UNL     1       3.376   6.104  18.339  0.00  0.00    +0.000 C 
ENDBRANCH  31  38
ENDBRANCH  27  34
ENDBRANCH  26  28
ENDBRANCH   1  26
TORSDOF 6
ENDMDL
MODEL 7
REMARK VINA RESULT:      -7.2      2.119      3.951
REMARK  Name = 
REMARK  10 active torsions:
REMARK  status: ('A' for Active; 'I' for Inactive)
REMARK    1  A    between atoms: C_1  and  C_2
REMARK    2  A    between atoms: C_2  and  C_3
REMARK    3  A    between atoms: C_6  and  N_7
REMARK    4  A    between atoms: C_8  and  C_10
REMARK    5  A    between atoms: C_10  and  N_11
REMARK    6  A    between atoms: N_14  and  C_15
REMARK    7  A    between atoms: C_20  and  C_21
REMARK    8  A    between atoms: C_28  and  O_29
REMARK    9  A    between atoms: O_29  and  C_30
REMARK   10  A    between atoms: N_34  and  C_35
REMARK                            x       y       z     vdW  Elec       q    Type
REMARK                         _______ _______ _______ _____ _____    ______ ____
ROOT
ATOM      1  N   UNL     1       0.334  10.732  19.511  0.00  0.00    +0.000 N 
ATOM      2  C   UNL     1      -0.809  10.850  18.704  0.00  0.00    +0.000 A 
ATOM      3  O   UNL     1      -0.983  10.106  17.730  0.00  0.00    +0.000 OA
ATOM      4  N   UNL     1      -1.559  11.999  18.919  0.00  0.00    +0.000 N 
ATOM      5  C   UNL     1      -0.813  13.215  19.092  0.00  0.00    +0.000 A 
ATOM      6  O   UNL     1      -1.232  14.352  18.895  0.00  0.00    +0.000 OA
ATOM      7  C   UNL     1       0.533  12.949  19.726  0.00  0.00    +0.000 A 
ATOM      8  C   UNL     1       0.479  11.782  20.467  0.00  0.00    +0.000 A 
ATOM      9  C   UNL     1      -0.187  12.530  21.650  0.00  0.00    +0.000 A 
ATOM     10  C   UNL     1      -1.338  12.537  22.521  0.00  0.00    +0.000 A 
ATOM     11  C   UNL     1      -1.650  13.745  23.246  0.00  0.00    +0.000 A 
ATOM     12  C   UNL     1      -0.826  14.875  23.204  0.00  0.00    +0.000 A 
ATOM     13  C   UNL     1       0.308  14.894  22.436  0.00  0.00    +0.000 A 
ATOM     14  C   UNL     1       0.520  13.765  21.665  0.00  0.00    +0.000 A 
ATOM     15  N   UNL     1       1.374  13.644  20.596  0.00  0.00    +0.000 N 
ATOM     16  C   UNL     1       2.763  13.314  20.939  0.00  0.00    +0.000 C 
ENDROOT
BRANCH   4  17
ATOM     17  C   UNL     1      -2.947  11.889  18.559  0.00  0.00    +0.000 A 
ATOM     18  C   UNL     1      -3.309  11.393  17.304  0.00  0.00    +0.000 A 
ATOM     19  C   UNL     1      -4.646  11.123  16.998  0.00  0.00    +0.000 A 
ATOM     20  C   UNL     1      -5.650  11.355  17.932  0.00  0.00    +0.000 A 
ATOM     21  C   UNL     1      -5.330  11.902  19.166  0.00  0.00    +0.000 A 
ATOM     22  C   UNL     1      -3.994  12.203  19.491  0.00  0.00    +0.000 A 
ATOM     23  C   UNL     1      -3.784  12.855  20.843  0.00  0.00    +0.000 C 
ENDBRANCH   4  17
BRANCH  11  24
ATOM     24  O   UNL     1      -2.732  14.053  24.026  0.00  0.00    +0.000 OA
ATOM     25  C   UNL     1      -3.688  13.086  24.382  0.00  0.00    +0.000 C 
ENDBRANCH  11  24
BRANCH   1  26
ATOM     26  C   UNL     1       1.503  10.386  18.592  0.00  0.00    +0.000 C 
BRANCH  26  28
ATOM     27  N   UNL     1       1.971   7.999  19.521  0.00  0.00    +0.000 N 
ATOM     28  C   UNL     1       2.007   8.876  18.421  0.00  0.00    +0.000 C 
ATOM     29  O   UNL     1       2.415   8.535  17.311  0.00  0.00    +0.000 OA
ATOM     30  H   UNL     1       1.516   8.327  20.368  0.00  0.00    +0.000 HD
BRANCH  27  34
ATOM     31  C   UNL     1       3.263   3.832  19.716  0.00  0.00    +0.000 A 
ATOM     32  C   UNL     1       3.836   4.734  18.818  0.00  0.00    +0.000 A 
ATOM     33  C   UNL     1       3.441   6.094  18.744  0.00  0.00    +0.000 A 
ATOM     34  C   UNL     1       2.439   6.620  19.563  0.00  0.00    +0.000 A 
ATOM     35  C   UNL     1       1.882   5.717  20.492  0.00  0.00    +0.000 A 
ATOM     36  C   UNL     1       2.283   4.351  20.561  0.00  0.00    +0.000 A 
BRANCH  31  38
ATOM     37  C   UNL     1       3.486   1.651  18.415  0.00  0.00    +0.000 C 
ATOM     38  C   UNL     1       3.667   2.373  19.743  0.00  0.00    +0.000 C 
ENDBRANCH  31  38
ENDBRANCH  27  34
ENDBRANCH  26  28
ENDBRANCH   1  26
TORSDOF 6
ENDMDL
MODEL 8
REMARK VINA RESULT:      -7.1      1.694      2.068
REMARK  Name = 
REMARK  10 active torsions:
REMARK  status: ('A' for Active; 'I' for Inactive)
REMARK    1  A    between atoms: C_1  and  C_2
REMARK    2  A    between atoms: C_2  and  C_3
REMARK    3  A    between atoms: C_6  and  N_7
REMARK    4  A    between atoms: C_8  and  C_10
REMARK    5  A    between atoms: C_10  and  N_11
REMARK    6  A    between atoms: N_14  and  C_15
REMARK    7  A    between atoms: C_20  and  C_21
REMARK    8  A    between atoms: C_28  and  O_29
REMARK    9  A    between atoms: O_29  and  C_30
REMARK   10  A    between atoms: N_34  and  C_35
REMARK                            x       y       z     vdW  Elec       q    Type
REMARK                         _______ _______ _______ _____ _____    ______ ____
ROOT
ATOM      1  N   UNL     1       0.589  10.831  19.585  0.00  0.00    +0.000 N 
ATOM      2  C   UNL     1       1.227  12.028  19.222  0.00  0.00    +0.000 A 
ATOM      3  O   UNL     1       2.235  12.022  18.505  0.00  0.00    +0.000 OA
ATOM      4  N   UNL     1       0.809  13.148  19.929  0.00  0.00    +0.000 N 
ATOM      5  C   UNL     1       0.621  12.968  21.343  0.00  0.00    +0.000 A 
ATOM      6  O   UNL     1       0.656  13.852  22.193  0.00  0.00    +0.000 OA
ATOM      7  C   UNL     1       0.195  11.554  21.665  0.00  0.00    +0.000 A 
ATOM      8  C   UNL     1      -0.435  10.994  20.567  0.00  0.00    +0.000 A 
ATOM      9  C   UNL     1      -1.759  11.718  20.921  0.00  0.00    +0.000 A 
ATOM     10  C   UNL     1      -2.768  12.612  20.405  0.00  0.00    +0.000 A 
ATOM     11  C   UNL     1      -3.637  13.286  21.339  0.00  0.00    +0.000 A 
ATOM     12  C   UNL     1      -3.594  13.034  22.715  0.00  0.00    +0.000 A 
ATOM     13  C   UNL     1      -2.691  12.150  23.243  0.00  0.00    +0.000 A 
ATOM     14  C   UNL     1      -1.797  11.605  22.338  0.00  0.00    +0.000 A 
ATOM     15  N   UNL     1      -0.620  10.959  22.628  0.00  0.00    +0.000 N 
ATOM     16  C   UNL     1      -0.748   9.526  22.920  0.00  0.00    +0.000 C 
ENDROOT
BRANCH   4  17
ATOM     17  C   UNL     1       0.996  14.398  19.243  0.00  0.00    +0.000 A 
ATOM     18  C   UNL     1      -0.067  14.984  18.550  0.00  0.00    +0.000 A 
ATOM     19  C   UNL     1       0.047  16.272  18.020  0.00  0.00    +0.000 A 
ATOM     20  C   UNL     1       1.226  16.997  18.157  0.00  0.00    +0.000 A 
ATOM     21  C   UNL     1       2.319  16.421  18.788  0.00  0.00    +0.000 A 
ATOM     22  C   UNL     1       2.238  15.117  19.312  0.00  0.00    +0.000 A 
ATOM     23  C   UNL     1       3.518  14.578  19.919  0.00  0.00    +0.000 C 
ENDBRANCH   4  17
BRANCH  11  24
ATOM     24  O   UNL     1      -4.576  14.260  21.128  0.00  0.00    +0.000 OA
ATOM     25  C   UNL     1      -4.265  15.626  21.242  0.00  0.00    +0.000 C 
ENDBRANCH  11  24
BRANCH   1  26
ATOM     26  C   UNL     1       1.680   9.785  19.804  0.00  0.00    +0.000 C 
BRANCH  26  28
ATOM     27  N   UNL     1       2.965   7.700  18.921  0.00  0.00    +0.000 N 
ATOM     28  C   UNL     1       2.121   8.788  18.631  0.00  0.00    +0.000 C 
ATOM     29  O   UNL     1       1.696   9.017  17.500  0.00  0.00    +0.000 OA
ATOM     30  H   UNL     1       3.179   7.518  19.897  0.00  0.00    +0.000 HD
BRANCH  27  34
ATOM     31  C   UNL     1       4.705   4.885  16.071  0.00  0.00    +0.000 A 
ATOM     32  C   UNL     1       3.705   4.497  16.966  0.00  0.00    +0.000 A 
ATOM     33  C   UNL     1       3.117   5.396  17.892  0.00  0.00    +0.000 A 
ATOM     34  C   UNL     1       3.510   6.733  17.977  0.00  0.00    +0.000 A 
ATOM     35  C   UNL     1       4.498   7.132  17.054  0.00  0.00    +0.000 A 
ATOM     36  C   UNL     1       5.086   6.225  16.125  0.00  0.00    +0.000 A 
BRANCH  31  38
ATOM     37  C   UNL     1       6.483   4.480  14.290  0.00  0.00    +0.000 C 
ATOM     38  C   UNL     1       5.352   3.896  15.125  0.00  0.00    +0.000 C 
ENDBRANCH  31  38
ENDBRANCH  27  34
ENDBRANCH  26  28
ENDBRANCH   1  26
TORSDOF 6
ENDMDL
MODEL 9
REMARK VINA RESULT:      -7.1      2.004      3.190
REMARK  Name = 
REMARK  10 active torsions:
REMARK  status: ('A' for Active; 'I' for Inactive)
REMARK    1  A    between atoms: C_1  and  C_2
REMARK    2  A    between atoms: C_2  and  C_3
REMARK    3  A    between atoms: C_6  and  N_7
REMARK    4  A    between atoms: C_8  and  C_10
REMARK    5  A    between atoms: C_10  and  N_11
REMARK    6  A    between atoms: N_14  and  C_15
REMARK    7  A    between atoms: C_20  and  C_21
REMARK    8  A    between atoms: C_28  and  O_29
REMARK    9  A    between atoms: O_29  and  C_30
REMARK   10  A    between atoms: N_34  and  C_35
REMARK                            x       y       z     vdW  Elec       q    Type
REMARK                         _______ _______ _______ _____ _____    ______ ____
ROOT
ATOM      1  N   UNL     1      -0.784  11.657  21.525  0.00  0.00    +0.000 N 
ATOM      2  C   UNL     1       0.397  12.389  21.324  0.00  0.00    +0.000 A 
ATOM      3  O   UNL     1       1.476  11.819  21.124  0.00  0.00    +0.000 OA
ATOM      4  N   UNL     1       0.302  13.742  21.628  0.00  0.00    +0.000 N 
ATOM      5  C   UNL     1      -0.416  14.069  22.830  0.00  0.00    +0.000 A 
ATOM      6  O   UNL     1      -0.288  15.096  23.489  0.00  0.00    +0.000 OA
ATOM      7  C   UNL     1      -1.503  13.058  23.114  0.00  0.00    +0.000 A 
ATOM      8  C   UNL     1      -1.897  12.452  21.934  0.00  0.00    +0.000 A 
ATOM      9  C   UNL     1      -2.798  13.662  21.580  0.00  0.00    +0.000 A 
ATOM     10  C   UNL     1      -3.066  14.655  20.566  0.00  0.00    +0.000 A 
ATOM     11  C   UNL     1      -3.810  15.835  20.934  0.00  0.00    +0.000 A 
ATOM     12  C   UNL     1      -4.355  16.007  22.212  0.00  0.00    +0.000 A 
ATOM     13  C   UNL     1      -4.175  15.064  23.189  0.00  0.00    +0.000 A 
ATOM     14  C   UNL     1      -3.364  13.999  22.842  0.00  0.00    +0.000 A 
ATOM     15  N   UNL     1      -2.770  13.101  23.695  0.00  0.00    +0.000 N 
ATOM     16  C   UNL     1      -3.607  11.959  24.084  0.00  0.00    +0.000 C 
ENDROOT
BRANCH   4  17
ATOM     17  C   UNL     1       1.242  14.582  20.937  0.00  0.00    +0.000 A 
ATOM     18  C   UNL     1       2.369  15.071  21.602  0.00  0.00    +0.000 A 
ATOM     19  C   UNL     1       3.375  15.747  20.907  0.00  0.00    +0.000 A 
ATOM     20  C   UNL     1       3.272  15.962  19.536  0.00  0.00    +0.000 A 
ATOM     21  C   UNL     1       2.138  15.540  18.857  0.00  0.00    +0.000 A 
ATOM     22  C   UNL     1       1.101  14.876  19.537  0.00  0.00    +0.000 A 
ATOM     23  C   UNL     1      -0.110  14.525  18.696  0.00  0.00    +0.000 C 
ENDBRANCH   4  17
BRANCH  11  24
ATOM     24  O   UNL     1      -4.088  16.964  20.213  0.00  0.00    +0.000 OA
ATOM     25  C   UNL     1      -3.710  18.242  20.660  0.00  0.00    +0.000 C 
ENDBRANCH  11  24
BRANCH   1  26
ATOM     26  C   UNL     1      -0.414  10.413  22.329  0.00  0.00    +0.000 C 
BRANCH  26  28
ATOM     27  N   UNL     1       1.224   8.873  21.014  0.00  0.00    +0.000 N 
ATOM     28  C   UNL     1      -0.043   9.034  21.603  0.00  0.00    +0.000 C 
ATOM     29  O   UNL     1      -0.901   8.151  21.589  0.00  0.00    +0.000 OA
ATOM     30  H   UNL     1       1.910   9.607  21.168  0.00  0.00    +0.000 HD
BRANCH  27  34
ATOM     31  C   UNL     1       2.738   5.500  18.690  0.00  0.00    +0.000 A 
ATOM     32  C   UNL     1       2.243   5.333  19.985  0.00  0.00    +0.000 A 
ATOM     33  C   UNL     1       1.736   6.411  20.755  0.00  0.00    +0.000 A 
ATOM     34  C   UNL     1       1.708   7.720  20.268  0.00  0.00    +0.000 A 
ATOM     35  C   UNL     1       2.180   7.883  18.949  0.00  0.00    +0.000 A 
ATOM     36  C   UNL     1       2.688   6.797  18.180  0.00  0.00    +0.000 A 
BRANCH  31  38
ATOM     37  C   UNL     1       2.285   3.330  17.431  0.00  0.00    +0.000 C 
ATOM     38  C   UNL     1       3.319   4.342  17.907  0.00  0.00    +0.000 C 
ENDBRANCH  31  38
ENDBRANCH  27  34
ENDBRANCH  26  28
ENDBRANCH   1  26
TORSDOF 6
ENDMDL
