MODEL 1
REMARK VINA RESULT:      -8.3      0.000      0.000
REMARK  Name = 
REMARK  8 active torsions:
REMARK  status: ('A' for Active; 'I' for Inactive)
REMARK    1  A    between atoms: C_1  and  O_2
REMARK    2  A    between atoms: O_2  and  C_3
REMARK    3  A    between atoms: C_6  and  C_7
REMARK    4  A    between atoms: N_8  and  N_9
REMARK    5  A    between atoms: N_9  and  C_10
REMARK    6  A    between atoms: N_18  and  C_19
REMARK    7  A    between atoms: C_23  and  O_24
REMARK    8  A    between atoms: O_24  and  C_25
REMARK                            x       y       z     vdW  Elec       q    Type
REMARK                         _______ _______ _______ _____ _____    ______ ____
ROOT
ATOM      1  C   UNL     1       7.524   7.198  17.913  0.00  0.00    +0.000 A 
ATOM      2  N   UNL     1       8.198   6.624  18.944  0.00  0.00    +0.000 NA
ATOM      3  C   UNL     1       7.686   5.540  19.545  0.00  0.00    +0.000 A 
ATOM      4  N   UNL     1       6.532   4.917  19.267  0.00  0.00    +0.000 NA
ATOM      5  C   UNL     1       5.870   5.496  18.246  0.00  0.00    +0.000 A 
ATOM      6  C   UNL     1       6.306   6.606  17.536  0.00  0.00    +0.000 A 
ATOM      7  C   UNL     1       5.324   6.809  16.558  0.00  0.00    +0.000 A 
ATOM      8  N   UNL     1       4.333   5.919  16.613  0.00  0.00    +0.000 NA
ATOM      9  N   UNL     1       4.639   5.134  17.694  0.00  0.00    +0.000 N 
ENDROOT
BRANCH   9  10
ATOM     10  C   UNL     1       3.700   4.147  18.133  0.00  0.00    +0.000 A 
ATOM     11  C   UNL     1       3.476   3.012  17.338  0.00  0.00    +0.000 A 
ATOM     12  C   UNL     1       2.509   2.076  17.701  0.00  0.00    +0.000 A 
ATOM     13  C   UNL     1       1.750   2.274  18.854  0.00  0.00    +0.000 A 
ATOM     14  C   UNL     1       1.966   3.392  19.662  0.00  0.00    +0.000 A 
ATOM     15  C   UNL     1       2.956   4.315  19.311  0.00  0.00    +0.000 A 
BRANCH  14  16
ATOM     16  O   UNL     1       1.136   3.482  20.746  0.00  0.00    +0.000 OA
ATOM     17  C   UNL     1       1.460   2.680  21.875  0.00  0.00    +0.000 C 
ENDBRANCH  14  16
ENDBRANCH   9  10
BRANCH   1  18
ATOM     18  N   UNL     1       8.033   8.348  17.272  0.00  0.00    +0.000 N 
ATOM     19  H   UNL     1       8.844   8.164  16.691  0.00  0.00    +0.000 HD
BRANCH  18  21
ATOM     20  C   UNL     1       9.167   9.972  18.330  0.00  0.00    +0.000 C 
ATOM     21  N   UNL     1       8.008   9.501  17.994  0.00  0.00    +0.000 NA
BRANCH  20  25
ATOM     22  C   UNL     1       9.461  13.465  20.779  0.00  0.00    +0.000 A 
ATOM     23  C   UNL     1       9.218  13.586  19.409  0.00  0.00    +0.000 A 
ATOM     24  C   UNL     1       9.123  12.451  18.602  0.00  0.00    +0.000 A 
ATOM     25  C   UNL     1       9.291  11.184  19.164  0.00  0.00    +0.000 A 
ATOM     26  C   UNL     1       9.558  11.055  20.531  0.00  0.00    +0.000 A 
ATOM     27  C   UNL     1       9.645  12.197  21.337  0.00  0.00    +0.000 A 
BRANCH  22  29
ATOM     28  C   UNL     1       8.310  15.135  21.997  0.00  0.00    +0.000 C 
ATOM     29  O   UNL     1       9.534  14.649  21.458  0.00  0.00    +0.000 OA
ENDBRANCH  22  29
ENDBRANCH  20  25
ENDBRANCH  18  21
ENDBRANCH   1  18
TORSDOF 6
ENDMDL
MODEL 2
REMARK VINA RESULT:      -8.3      0.745      1.206
REMARK  Name = 
REMARK  8 active torsions:
REMARK  status: ('A' for Active; 'I' for Inactive)
REMARK    1  A    between atoms: C_1  and  O_2
REMARK    2  A    between atoms: O_2  and  C_3
REMARK    3  A    between atoms: C_6  and  C_7
REMARK    4  A    between atoms: N_8  and  N_9
REMARK    5  A    between atoms: N_9  and  C_10
REMARK    6  A    between atoms: N_18  and  C_19
REMARK    7  A    between atoms: C_23  and  O_24
REMARK    8  A    between atoms: O_24  and  C_25
REMARK                            x       y       z     vdW  Elec       q    Type
REMARK                         _______ _______ _______ _____ _____    ______ ____
ROOT
ATOM      1  C   UNL     1       7.533   7.200  17.990  0.00  0.00    +0.000 A 
ATOM      2  N   UNL     1       8.230   6.562  18.968  0.00  0.00    +0.000 NA
ATOM      3  C   UNL     1       7.732   5.442  19.509  0.00  0.00    +0.000 A 
ATOM      4  N   UNL     1       6.572   4.836  19.217  0.00  0.00    +0.000 NA
ATOM      5  C   UNL     1       5.887   5.478  18.249  0.00  0.00    +0.000 A 
ATOM      6  C   UNL     1       6.308   6.632  17.603  0.00  0.00    +0.000 A 
ATOM      7  C   UNL     1       5.304   6.896  16.661  0.00  0.00    +0.000 A 
ATOM      8  N   UNL     1       4.315   6.002  16.682  0.00  0.00    +0.000 NA
ATOM      9  N   UNL     1       4.645   5.150  17.703  0.00  0.00    +0.000 N 
ENDROOT
BRANCH   9  10
ATOM     10  C   UNL     1       3.716   4.136  18.099  0.00  0.00    +0.000 A 
ATOM     11  C   UNL     1       3.532   3.015  17.273  0.00  0.00    +0.000 A 
ATOM     12  C   UNL     1       2.575   2.052  17.593  0.00  0.00    +0.000 A 
ATOM     13  C   UNL     1       1.788   2.209  18.732  0.00  0.00    +0.000 A 
ATOM     14  C   UNL     1       1.964   3.312  19.570  0.00  0.00    +0.000 A 
ATOM     15  C   UNL     1       2.942   4.262  19.263  0.00  0.00    +0.000 A 
BRANCH  14  16
ATOM     16  O   UNL     1       1.108   3.362  20.637  0.00  0.00    +0.000 OA
ATOM     17  C   UNL     1       1.617   2.927  21.893  0.00  0.00    +0.000 C 
ENDBRANCH  14  16
ENDBRANCH   9  10
BRANCH   1  18
ATOM     18  N   UNL     1       8.028   8.389  17.414  0.00  0.00    +0.000 N 
ATOM     19  H   UNL     1       8.688   8.232  16.660  0.00  0.00    +0.000 HD
BRANCH  18  21
ATOM     20  C   UNL     1       9.134  10.291  17.863  0.00  0.00    +0.000 C 
ATOM     21  N   UNL     1       8.264   9.422  18.269  0.00  0.00    +0.000 NA
BRANCH  20  25
ATOM     22  C   UNL     1      10.355  13.595  20.289  0.00  0.00    +0.000 A 
ATOM     23  C   UNL     1      10.241  12.318  20.846  0.00  0.00    +0.000 A 
ATOM     24  C   UNL     1       9.841  11.235  20.062  0.00  0.00    +0.000 A 
ATOM     25  C   UNL     1       9.534  11.431  18.713  0.00  0.00    +0.000 A 
ATOM     26  C   UNL     1       9.623  12.710  18.154  0.00  0.00    +0.000 A 
ATOM     27  C   UNL     1      10.032  13.791  18.944  0.00  0.00    +0.000 A 
BRANCH  22  29
ATOM     28  C   UNL     1      11.301  15.744  20.575  0.00  0.00    +0.000 C 
ATOM     29  O   UNL     1      10.754  14.569  21.161  0.00  0.00    +0.000 OA
ENDBRANCH  22  29
ENDBRANCH  20  25
ENDBRANCH  18  21
ENDBRANCH   1  18
TORSDOF 6
ENDMDL
MODEL 3
REMARK VINA RESULT:      -7.8      5.374      7.586
REMARK  Name = 
REMARK  8 active torsions:
REMARK  status: ('A' for Active; 'I' for Inactive)
REMARK    1  A    between atoms: C_1  and  O_2
REMARK    2  A    between atoms: O_2  and  C_3
REMARK    3  A    between atoms: C_6  and  C_7
REMARK    4  A    between atoms: N_8  and  N_9
REMARK    5  A    between atoms: N_9  and  C_10
REMARK    6  A    between atoms: N_18  and  C_19
REMARK    7  A    between atoms: C_23  and  O_24
REMARK    8  A    between atoms: O_24  and  C_25
REMARK                            x       y       z     vdW  Elec       q    Type
REMARK                         _______ _______ _______ _____ _____    ______ ____
ROOT
ATOM      1  C   UNL     1       3.626   5.330  18.758  0.00  0.00    +0.000 A 
ATOM      2  N   UNL     1       3.207   4.037  18.796  0.00  0.00    +0.000 NA
ATOM      3  C   UNL     1       3.611   3.184  17.845  0.00  0.00    +0.000 A 
ATOM      4  N   UNL     1       4.402   3.444  16.793  0.00  0.00    +0.000 NA
ATOM      5  C   UNL     1       4.810   4.728  16.763  0.00  0.00    +0.000 A 
ATOM      6  C   UNL     1       4.474   5.697  17.699  0.00  0.00    +0.000 A 
ATOM      7  C   UNL     1       5.157   6.846  17.280  0.00  0.00    +0.000 A 
ATOM      8  N   UNL     1       5.877   6.656  16.174  0.00  0.00    +0.000 NA
ATOM      9  N   UNL     1       5.622   5.358  15.817  0.00  0.00    +0.000 N 
ENDROOT
BRANCH   9  10
ATOM     10  C   UNL     1       6.132   4.856  14.578  0.00  0.00    +0.000 A 
ATOM     11  C   UNL     1       7.340   5.367  14.077  0.00  0.00    +0.000 A 
ATOM     12  C   UNL     1       7.818   4.956  12.833  0.00  0.00    +0.000 A 
ATOM     13  C   UNL     1       7.086   4.042  12.077  0.00  0.00    +0.000 A 
ATOM     14  C   UNL     1       5.888   3.517  12.563  0.00  0.00    +0.000 A 
ATOM     15  C   UNL     1       5.424   3.908  13.822  0.00  0.00    +0.000 A 
BRANCH  14  16
ATOM     16  O   UNL     1       5.254   2.653  11.711  0.00  0.00    +0.000 OA
ATOM     17  C   UNL     1       4.023   3.090  11.148  0.00  0.00    +0.000 C 
ENDBRANCH  14  16
ENDBRANCH   9  10
BRANCH   1  18
ATOM     18  N   UNL     1       3.204   6.252  19.740  0.00  0.00    +0.000 N 
ATOM     19  H   UNL     1       3.040   5.833  20.648  0.00  0.00    +0.000 HD
BRANCH  18  21
ATOM     20  C   UNL     1       1.923   8.024  20.250  0.00  0.00    +0.000 C 
ATOM     21  N   UNL     1       2.357   7.232  19.322  0.00  0.00    +0.000 NA
BRANCH  20  25
ATOM     22  C   UNL     1      -0.948  11.079  19.406  0.00  0.00    +0.000 A 
ATOM     23  C   UNL     1      -0.220  10.493  18.367  0.00  0.00    +0.000 A 
ATOM     24  C   UNL     1       0.721   9.497  18.635  0.00  0.00    +0.000 A 
ATOM     25  C   UNL     1       0.950   9.095  19.952  0.00  0.00    +0.000 A 
ATOM     26  C   UNL     1       0.242   9.693  20.999  0.00  0.00    +0.000 A 
ATOM     27  C   UNL     1      -0.706  10.686  20.724  0.00  0.00    +0.000 A 
BRANCH  22  29
ATOM     28  C   UNL     1      -2.858  11.620  18.119  0.00  0.00    +0.000 C 
ATOM     29  O   UNL     1      -1.836  12.041  19.014  0.00  0.00    +0.000 OA
ENDBRANCH  22  29
ENDBRANCH  20  25
ENDBRANCH  18  21
ENDBRANCH   1  18
TORSDOF 6
ENDMDL
MODEL 4
REMARK VINA RESULT:      -7.8      7.445     10.269
REMARK  Name = 
REMARK  8 active torsions:
REMARK  status: ('A' for Active; 'I' for Inactive)
REMARK    1  A    between atoms: C_1  and  O_2
REMARK    2  A    between atoms: O_2  and  C_3
REMARK    3  A    between atoms: C_6  and  C_7
REMARK    4  A    between atoms: N_8  and  N_9
REMARK    5  A    between atoms: N_9  and  C_10
REMARK    6  A    between atoms: N_18  and  C_19
REMARK    7  A    between atoms: C_23  and  O_24
REMARK    8  A    between atoms: O_24  and  C_25
REMARK                            x       y       z     vdW  Elec       q    Type
REMARK                         _______ _______ _______ _____ _____    ______ ____
ROOT
ATOM      1  C   UNL     1       1.151   8.896  20.471  0.00  0.00    +0.000 A 
ATOM      2  N   UNL     1       1.129   9.554  19.281  0.00  0.00    +0.000 NA
ATOM      3  C   UNL     1       0.542  10.756  19.203  0.00  0.00    +0.000 A 
ATOM      4  N   UNL     1      -0.074  11.433  20.183  0.00  0.00    +0.000 NA
ATOM      5  C   UNL     1      -0.050  10.771  21.357  0.00  0.00    +0.000 A 
ATOM      6  C   UNL     1       0.542   9.533  21.565  0.00  0.00    +0.000 A 
ATOM      7  C   UNL     1       0.354   9.276  22.930  0.00  0.00    +0.000 A 
ATOM      8  N   UNL     1      -0.298  10.250  23.564  0.00  0.00    +0.000 NA
ATOM      9  N   UNL     1      -0.600  11.157  22.581  0.00  0.00    +0.000 N 
ENDROOT
BRANCH   9  10
ATOM     10  C   UNL     1      -1.432  12.278  22.892  0.00  0.00    +0.000 A 
ATOM     11  C   UNL     1      -0.858  13.558  22.966  0.00  0.00    +0.000 A 
ATOM     12  C   UNL     1      -1.630  14.655  23.346  0.00  0.00    +0.000 A 
ATOM     13  C   UNL     1      -2.975  14.480  23.667  0.00  0.00    +0.000 A 
ATOM     14  C   UNL     1      -3.564  13.217  23.590  0.00  0.00    +0.000 A 
ATOM     15  C   UNL     1      -2.797  12.122  23.181  0.00  0.00    +0.000 A 
BRANCH  14  16
ATOM     16  O   UNL     1      -4.881  13.177  23.959  0.00  0.00    +0.000 OA
ATOM     17  C   UNL     1      -5.837  12.990  22.921  0.00  0.00    +0.000 C 
ENDBRANCH  14  16
ENDBRANCH   9  10
BRANCH   1  18
ATOM     18  N   UNL     1       1.750   7.623  20.577  0.00  0.00    +0.000 N 
ATOM     19  H   UNL     1       2.115   7.420  21.502  0.00  0.00    +0.000 HD
BRANCH  18  21
ATOM     20  C   UNL     1       2.816   5.954  19.518  0.00  0.00    +0.000 C 
ATOM     21  N   UNL     1       2.466   7.200  19.499  0.00  0.00    +0.000 NA
BRANCH  20  25
ATOM     22  C   UNL     1       5.175   4.302  16.356  0.00  0.00    +0.000 A 
ATOM     23  C   UNL     1       4.434   3.463  17.192  0.00  0.00    +0.000 A 
ATOM     24  C   UNL     1       3.663   3.994  18.228  0.00  0.00    +0.000 A 
ATOM     25  C   UNL     1       3.647   5.374  18.443  0.00  0.00    +0.000 A 
ATOM     26  C   UNL     1       4.404   6.218  17.626  0.00  0.00    +0.000 A 
ATOM     27  C   UNL     1       5.169   5.680  16.583  0.00  0.00    +0.000 A 
BRANCH  22  29
ATOM     28  C   UNL     1       5.815   4.228  14.080  0.00  0.00    +0.000 C 
ATOM     29  O   UNL     1       5.887   3.661  15.382  0.00  0.00    +0.000 OA
ENDBRANCH  22  29
ENDBRANCH  20  25
ENDBRANCH  18  21
ENDBRANCH   1  18
TORSDOF 6
ENDMDL
MODEL 5
REMARK VINA RESULT:      -7.8      7.524      9.927
REMARK  Name = 
REMARK  8 active torsions:
REMARK  status: ('A' for Active; 'I' for Inactive)
REMARK    1  A    between atoms: C_1  and  O_2
REMARK    2  A    between atoms: O_2  and  C_3
REMARK    3  A    between atoms: C_6  and  C_7
REMARK    4  A    between atoms: N_8  and  N_9
REMARK    5  A    between atoms: N_9  and  C_10
REMARK    6  A    between atoms: N_18  and  C_19
REMARK    7  A    between atoms: C_23  and  O_24
REMARK    8  A    between atoms: O_24  and  C_25
REMARK                            x       y       z     vdW  Elec       q    Type
REMARK                         _______ _______ _______ _____ _____    ______ ____
ROOT
ATOM      1  C   UNL     1       0.946   9.000  20.217  0.00  0.00    +0.000 A 
ATOM      2  N   UNL     1       0.729   9.672  19.056  0.00  0.00    +0.000 NA
ATOM      3  C   UNL     1       0.061  10.834  19.081  0.00  0.00    +0.000 A 
ATOM      4  N   UNL     1      -0.466  11.453  20.147  0.00  0.00    +0.000 NA
ATOM      5  C   UNL     1      -0.249  10.777  21.293  0.00  0.00    +0.000 A 
ATOM      6  C   UNL     1       0.443   9.578  21.395  0.00  0.00    +0.000 A 
ATOM      7  C   UNL     1       0.450   9.290  22.766  0.00  0.00    +0.000 A 
ATOM      8  N   UNL     1      -0.177  10.209  23.501  0.00  0.00    +0.000 NA
ATOM      9  N   UNL     1      -0.660  11.107  22.586  0.00  0.00    +0.000 N 
ENDROOT
BRANCH   9  10
ATOM     10  C   UNL     1      -1.515  12.167  23.025  0.00  0.00    +0.000 A 
ATOM     11  C   UNL     1      -0.990  13.462  23.160  0.00  0.00    +0.000 A 
ATOM     12  C   UNL     1      -1.780  14.494  23.664  0.00  0.00    +0.000 A 
ATOM     13  C   UNL     1      -3.095  14.238  24.049  0.00  0.00    +0.000 A 
ATOM     14  C   UNL     1      -3.636  12.959  23.914  0.00  0.00    +0.000 A 
ATOM     15  C   UNL     1      -2.853  11.931  23.382  0.00  0.00    +0.000 A 
BRANCH  14  16
ATOM     16  O   UNL     1      -4.926  12.835  24.355  0.00  0.00    +0.000 OA
ATOM     17  C   UNL     1      -5.958  13.123  23.419  0.00  0.00    +0.000 C 
ENDBRANCH  14  16
ENDBRANCH   9  10
BRANCH   1  18
ATOM     18  N   UNL     1       1.634   7.768  20.217  0.00  0.00    +0.000 N 
ATOM     19  H   UNL     1       1.850   7.422  21.146  0.00  0.00    +0.000 HD
BRANCH  18  21
ATOM     20  C   UNL     1       3.103   6.420  19.183  0.00  0.00    +0.000 C 
ATOM     21  N   UNL     1       2.562   7.595  19.236  0.00  0.00    +0.000 NA
BRANCH  20  25
ATOM     22  C   UNL     1       6.236   5.543  16.409  0.00  0.00    +0.000 A 
ATOM     23  C   UNL     1       5.328   6.571  16.141  0.00  0.00    +0.000 A 
ATOM     24  C   UNL     1       4.301   6.862  17.040  0.00  0.00    +0.000 A 
ATOM     25  C   UNL     1       4.168   6.108  18.209  0.00  0.00    +0.000 A 
ATOM     26  C   UNL     1       5.059   5.063  18.472  0.00  0.00    +0.000 A 
ATOM     27  C   UNL     1       6.092   4.781  17.570  0.00  0.00    +0.000 A 
BRANCH  22  29
ATOM     28  C   UNL     1       6.817   4.550  14.341  0.00  0.00    +0.000 C 
ATOM     29  O   UNL     1       7.193   5.357  15.451  0.00  0.00    +0.000 OA
ENDBRANCH  22  29
ENDBRANCH  20  25
ENDBRANCH  18  21
ENDBRANCH   1  18
TORSDOF 6
ENDMDL
MODEL 6
REMARK VINA RESULT:      -7.6      7.386     10.285
REMARK  Name = 
REMARK  8 active torsions:
REMARK  status: ('A' for Active; 'I' for Inactive)
REMARK    1  A    between atoms: C_1  and  O_2
REMARK    2  A    between atoms: O_2  and  C_3
REMARK    3  A    between atoms: C_6  and  C_7
REMARK    4  A    between atoms: N_8  and  N_9
REMARK    5  A    between atoms: N_9  and  C_10
REMARK    6  A    between atoms: N_18  and  C_19
REMARK    7  A    between atoms: C_23  and  O_24
REMARK    8  A    between atoms: O_24  and  C_25
REMARK                            x       y       z     vdW  Elec       q    Type
REMARK                         _______ _______ _______ _____ _____    ______ ____
ROOT
ATOM      1  C   UNL     1       0.958   9.042  20.234  0.00  0.00    +0.000 A 
ATOM      2  N   UNL     1       0.755   9.726  19.077  0.00  0.00    +0.000 NA
ATOM      3  C   UNL     1       0.098  10.894  19.107  0.00  0.00    +0.000 A 
ATOM      4  N   UNL     1      -0.429  11.511  20.175  0.00  0.00    +0.000 NA
ATOM      5  C   UNL     1      -0.224  10.823  21.317  0.00  0.00    +0.000 A 
ATOM      6  C   UNL     1       0.455   9.617  21.413  0.00  0.00    +0.000 A 
ATOM      7  C   UNL     1       0.451   9.317  22.782  0.00  0.00    +0.000 A 
ATOM      8  N   UNL     1      -0.170  10.238  23.521  0.00  0.00    +0.000 NA
ATOM      9  N   UNL     1      -0.639  11.148  22.610  0.00  0.00    +0.000 N 
ENDROOT
BRANCH   9  10
ATOM     10  C   UNL     1      -1.486  12.212  23.053  0.00  0.00    +0.000 A 
ATOM     11  C   UNL     1      -2.828  11.938  23.364  0.00  0.00    +0.000 A 
ATOM     12  C   UNL     1      -3.695  12.970  23.720  0.00  0.00    +0.000 A 
ATOM     13  C   UNL     1      -3.232  14.284  23.755  0.00  0.00    +0.000 A 
ATOM     14  C   UNL     1      -1.899  14.575  23.458  0.00  0.00    +0.000 A 
ATOM     15  C   UNL     1      -1.024  13.536  23.129  0.00  0.00    +0.000 A 
BRANCH  14  16
ATOM     16  O   UNL     1      -1.582  15.905  23.501  0.00  0.00    +0.000 OA
ATOM     17  C   UNL     1      -1.849  16.670  22.331  0.00  0.00    +0.000 C 
ENDBRANCH  14  16
ENDBRANCH   9  10
BRANCH   1  18
ATOM     18  N   UNL     1       1.634   7.803  20.228  0.00  0.00    +0.000 N 
ATOM     19  H   UNL     1       1.918   7.490  21.150  0.00  0.00    +0.000 HD
BRANCH  18  21
ATOM     20  C   UNL     1       2.674   6.340  18.879  0.00  0.00    +0.000 C 
ATOM     21  N   UNL     1       2.481   7.584  19.186  0.00  0.00    +0.000 NA
BRANCH  20  25
ATOM     22  C   UNL     1       5.443   5.185  15.832  0.00  0.00    +0.000 A 
ATOM     23  C   UNL     1       5.256   6.535  16.135  0.00  0.00    +0.000 A 
ATOM     24  C   UNL     1       4.352   6.921  17.127  0.00  0.00    +0.000 A 
ATOM     25  C   UNL     1       3.615   5.951  17.809  0.00  0.00    +0.000 A 
ATOM     26  C   UNL     1       3.779   4.598  17.495  0.00  0.00    +0.000 A 
ATOM     27  C   UNL     1       4.693   4.217  16.505  0.00  0.00    +0.000 A 
BRANCH  22  29
ATOM     28  C   UNL     1       6.036   3.873  13.955  0.00  0.00    +0.000 C 
ATOM     29  O   UNL     1       6.353   4.938  14.843  0.00  0.00    +0.000 OA
ENDBRANCH  22  29
ENDBRANCH  20  25
ENDBRANCH  18  21
ENDBRANCH   1  18
TORSDOF 6
ENDMDL
MODEL 7
REMARK VINA RESULT:      -7.6      7.695      9.376
REMARK  Name = 
REMARK  8 active torsions:
REMARK  status: ('A' for Active; 'I' for Inactive)
REMARK    1  A    between atoms: C_1  and  O_2
REMARK    2  A    between atoms: O_2  and  C_3
REMARK    3  A    between atoms: C_6  and  C_7
REMARK    4  A    between atoms: N_8  and  N_9
REMARK    5  A    between atoms: N_9  and  C_10
REMARK    6  A    between atoms: N_18  and  C_19
REMARK    7  A    between atoms: C_23  and  O_24
REMARK    8  A    between atoms: O_24  and  C_25
REMARK                            x       y       z     vdW  Elec       q    Type
REMARK                         _______ _______ _______ _____ _____    ______ ____
ROOT
ATOM      1  C   UNL     1       0.447  10.214  20.384  0.00  0.00    +0.000 A 
ATOM      2  N   UNL     1       0.358   9.543  21.563  0.00  0.00    +0.000 NA
ATOM      3  C   UNL     1       0.924   8.334  21.678  0.00  0.00    +0.000 A 
ATOM      4  N   UNL     1       1.589   7.647  20.738  0.00  0.00    +0.000 NA
ATOM      5  C   UNL     1       1.668   8.319  19.572  0.00  0.00    +0.000 A 
ATOM      6  C   UNL     1       1.140   9.581  19.338  0.00  0.00    +0.000 A 
ATOM      7  C   UNL     1       1.506   9.879  18.019  0.00  0.00    +0.000 A 
ATOM      8  N   UNL     1       2.209   8.908  17.436  0.00  0.00    +0.000 NA
ATOM      9  N   UNL     1       2.266   7.913  18.377  0.00  0.00    +0.000 N 
ENDROOT
BRANCH   9  10
ATOM     10  C   UNL     1       2.838   6.649  18.029  0.00  0.00    +0.000 A 
ATOM     11  C   UNL     1       4.170   6.597  17.587  0.00  0.00    +0.000 A 
ATOM     12  C   UNL     1       4.726   5.390  17.165  0.00  0.00    +0.000 A 
ATOM     13  C   UNL     1       3.952   4.231  17.167  0.00  0.00    +0.000 A 
ATOM     14  C   UNL     1       2.629   4.262  17.612  0.00  0.00    +0.000 A 
ATOM     15  C   UNL     1       2.081   5.467  18.062  0.00  0.00    +0.000 A 
BRANCH  14  16
ATOM     16  O   UNL     1       1.972   3.064  17.536  0.00  0.00    +0.000 OA
ATOM     17  C   UNL     1       2.385   2.044  18.438  0.00  0.00    +0.000 C 
ENDBRANCH  14  16
ENDBRANCH   9  10
BRANCH   1  18
ATOM     18  N   UNL     1      -0.152  11.483  20.232  0.00  0.00    +0.000 N 
ATOM     19  H   UNL     1       0.485  12.256  20.393  0.00  0.00    +0.000 HD
BRANCH  18  21
ATOM     20  C   UNL     1      -1.602  12.422  21.666  0.00  0.00    +0.000 C 
ATOM     21  N   UNL     1      -1.432  11.603  20.677  0.00  0.00    +0.000 NA
BRANCH  20  25
ATOM     22  C   UNL     1      -5.441  12.885  23.492  0.00  0.00    +0.000 A 
ATOM     23  C   UNL     1      -5.306  12.984  22.105  0.00  0.00    +0.000 A 
ATOM     24  C   UNL     1      -4.056  12.836  21.501  0.00  0.00    +0.000 A 
ATOM     25  C   UNL     1      -2.928  12.606  22.291  0.00  0.00    +0.000 A 
ATOM     26  C   UNL     1      -3.051  12.529  23.681  0.00  0.00    +0.000 A 
ATOM     27  C   UNL     1      -4.309  12.671  24.281  0.00  0.00    +0.000 A 
BRANCH  22  29
ATOM     28  C   UNL     1      -7.703  12.198  23.392  0.00  0.00    +0.000 C 
ATOM     29  O   UNL     1      -6.715  13.050  23.959  0.00  0.00    +0.000 OA
ENDBRANCH  22  29
ENDBRANCH  20  25
ENDBRANCH  18  21
ENDBRANCH   1  18
TORSDOF 6
ENDMDL
MODEL 8
REMARK VINA RESULT:      -7.5      7.797      9.379
REMARK  Name = 
REMARK  8 active torsions:
REMARK  status: ('A' for Active; 'I' for Inactive)
REMARK    1  A    between atoms: C_1  and  O_2
REMARK    2  A    between atoms: O_2  and  C_3
REMARK    3  A    between atoms: C_6  and  C_7
REMARK    4  A    between atoms: N_8  and  N_9
REMARK    5  A    between atoms: N_9  and  C_10
REMARK    6  A    between atoms: N_18  and  C_19
REMARK    7  A    between atoms: C_23  and  O_24
REMARK    8  A    between atoms: O_24  and  C_25
REMARK                            x       y       z     vdW  Elec       q    Type
REMARK                         _______ _______ _______ _____ _____    ______ ____
ROOT
ATOM      1  C   UNL     1       0.500  10.267  20.435  0.00  0.00    +0.000 A 
ATOM      2  N   UNL     1       0.452   9.624  21.632  0.00  0.00    +0.000 NA
ATOM      3  C   UNL     1       1.017   8.415  21.754  0.00  0.00    +0.000 A 
ATOM      4  N   UNL     1       1.643   7.703  20.805  0.00  0.00    +0.000 NA
ATOM      5  C   UNL     1       1.682   8.348  19.622  0.00  0.00    +0.000 A 
ATOM      6  C   UNL     1       1.151   9.607  19.379  0.00  0.00    +0.000 A 
ATOM      7  C   UNL     1       1.470   9.873  18.041  0.00  0.00    +0.000 A 
ATOM      8  N   UNL     1       2.147   8.886  17.455  0.00  0.00    +0.000 NA
ATOM      9  N   UNL     1       2.234   7.912  18.416  0.00  0.00    +0.000 N 
ENDROOT
BRANCH   9  10
ATOM     10  C   UNL     1       2.787   6.638  18.076  0.00  0.00    +0.000 A 
ATOM     11  C   UNL     1       4.133   6.556  17.684  0.00  0.00    +0.000 A 
ATOM     12  C   UNL     1       4.675   5.340  17.270  0.00  0.00    +0.000 A 
ATOM     13  C   UNL     1       3.874   4.200  17.232  0.00  0.00    +0.000 A 
ATOM     14  C   UNL     1       2.536   4.261  17.626  0.00  0.00    +0.000 A 
ATOM     15  C   UNL     1       2.001   5.474  18.068  0.00  0.00    +0.000 A 
BRANCH  14  16
ATOM     16  O   UNL     1       1.853   3.080  17.512  0.00  0.00    +0.000 OA
ATOM     17  C   UNL     1       1.732   2.289  18.689  0.00  0.00    +0.000 C 
ENDBRANCH  14  16
ENDBRANCH   9  10
BRANCH   1  18
ATOM     18  N   UNL     1      -0.098  11.535  20.276  0.00  0.00    +0.000 N 
ATOM     19  H   UNL     1       0.527  12.309  20.475  0.00  0.00    +0.000 HD
BRANCH  18  21
ATOM     20  C   UNL     1      -1.605  12.392  21.704  0.00  0.00    +0.000 C 
ATOM     21  N   UNL     1      -1.397  11.643  20.668  0.00  0.00    +0.000 NA
BRANCH  20  25
ATOM     22  C   UNL     1      -5.516  12.927  23.348  0.00  0.00    +0.000 A 
ATOM     23  C   UNL     1      -4.434  12.645  24.186  0.00  0.00    +0.000 A 
ATOM     24  C   UNL     1      -3.155  12.466  23.657  0.00  0.00    +0.000 A 
ATOM     25  C   UNL     1      -2.956  12.552  22.277  0.00  0.00    +0.000 A 
ATOM     26  C   UNL     1      -4.038  12.811  21.430  0.00  0.00    +0.000 A 
ATOM     27  C   UNL     1      -5.318  12.996  21.967  0.00  0.00    +0.000 A 
BRANCH  22  29
ATOM     28  C   UNL     1      -7.264  14.390  23.982  0.00  0.00    +0.000 C 
ATOM     29  O   UNL     1      -6.715  13.078  23.987  0.00  0.00    +0.000 OA
ENDBRANCH  22  29
ENDBRANCH  20  25
ENDBRANCH  18  21
ENDBRANCH   1  18
TORSDOF 6
ENDMDL
MODEL 9
REMARK VINA RESULT:      -7.5      5.138      6.090
REMARK  Name = 
REMARK  8 active torsions:
REMARK  status: ('A' for Active; 'I' for Inactive)
REMARK    1  A    between atoms: C_1  and  O_2
REMARK    2  A    between atoms: O_2  and  C_3
REMARK    3  A    between atoms: C_6  and  C_7
REMARK    4  A    between atoms: N_8  and  N_9
REMARK    5  A    between atoms: N_9  and  C_10
REMARK    6  A    between atoms: N_18  and  C_19
REMARK    7  A    between atoms: C_23  and  O_24
REMARK    8  A    between atoms: O_24  and  C_25
REMARK                            x       y       z     vdW  Elec       q    Type
REMARK                         _______ _______ _______ _____ _____    ______ ____
ROOT
ATOM      1  C   UNL     1       0.586  10.090  19.960  0.00  0.00    +0.000 A 
ATOM      2  N   UNL     1       0.365   9.562  21.194  0.00  0.00    +0.000 NA
ATOM      3  C   UNL     1       0.875   8.361  21.499  0.00  0.00    +0.000 A 
ATOM      4  N   UNL     1       1.600   7.554  20.711  0.00  0.00    +0.000 NA
ATOM      5  C   UNL     1       1.811   8.085  19.489  0.00  0.00    +0.000 A 
ATOM      6  C   UNL     1       1.351   9.323  19.065  0.00  0.00    +0.000 A 
ATOM      7  C   UNL     1       1.848   9.458  17.762  0.00  0.00    +0.000 A 
ATOM      8  N   UNL     1       2.569   8.409  17.362  0.00  0.00    +0.000 NA
ATOM      9  N   UNL     1       2.503   7.530  18.411  0.00  0.00    +0.000 N 
ENDROOT
BRANCH   9  10
ATOM     10  C   UNL     1       3.061   6.220  18.265  0.00  0.00    +0.000 A 
ATOM     11  C   UNL     1       2.215   5.146  17.946  0.00  0.00    +0.000 A 
ATOM     12  C   UNL     1       2.718   3.847  17.878  0.00  0.00    +0.000 A 
ATOM     13  C   UNL     1       4.067   3.612  18.140  0.00  0.00    +0.000 A 
ATOM     14  C   UNL     1       4.925   4.669  18.450  0.00  0.00    +0.000 A 
ATOM     15  C   UNL     1       4.425   5.973  18.490  0.00  0.00    +0.000 A 
BRANCH  14  16
ATOM     16  O   UNL     1       6.215   4.299  18.714  0.00  0.00    +0.000 OA
ATOM     17  C   UNL     1       7.208   4.709  17.780  0.00  0.00    +0.000 C 
ENDBRANCH  14  16
ENDBRANCH   9  10
BRANCH   1  18
ATOM     18  N   UNL     1       0.048  11.346  19.608  0.00  0.00    +0.000 N 
ATOM     19  H   UNL     1      -0.554  11.317  18.793  0.00  0.00    +0.000 HD
BRANCH  18  21
ATOM     20  C   UNL     1       1.235  13.001  18.663  0.00  0.00    +0.000 C 
ATOM     21  N   UNL     1       0.872  12.419  19.761  0.00  0.00    +0.000 NA
BRANCH  20  25
ATOM     22  C   UNL     1       3.920  16.330  18.636  0.00  0.00    +0.000 A 
ATOM     23  C   UNL     1       4.354  15.074  18.205  0.00  0.00    +0.000 A 
ATOM     24  C   UNL     1       3.485  13.981  18.212  0.00  0.00    +0.000 A 
ATOM     25  C   UNL     1       2.176  14.140  18.672  0.00  0.00    +0.000 A 
ATOM     26  C   UNL     1       1.740  15.388  19.128  0.00  0.00    +0.000 A 
ATOM     27  C   UNL     1       2.615  16.482  19.111  0.00  0.00    +0.000 A 
BRANCH  22  29
ATOM     28  C   UNL     1       6.199  16.918  18.877  0.00  0.00    +0.000 C 
ATOM     29  O   UNL     1       4.865  17.315  18.581  0.00  0.00    +0.000 OA
ENDBRANCH  22  29
ENDBRANCH  20  25
ENDBRANCH  18  21
ENDBRANCH   1  18
TORSDOF 6
ENDMDL
