MODEL 1
REMARK VINA RESULT:      -7.0      0.000      0.000
REMARK  Name = 
REMARK  5 active torsions:
REMARK  status: ('A' for Active; 'I' for Inactive)
REMARK    1  A    between atoms: C_1  and  N_2
REMARK    2  A    between atoms: C_3  and  C_5
REMARK    3  A    between atoms: C_5  and  N_6
REMARK    4  A    between atoms: C_10  and  C_11
REMARK    5  A    between atoms: C_11  and  N_12
REMARK                            x       y       z     vdW  Elec       q    Type
REMARK                         _______ _______ _______ _____ _____    ______ ____
ROOT
ATOM      1  N   UNL     1       4.975   4.964  18.198  0.00  0.00    +0.000 NA
ATOM      2  C   UNL     1       5.953   5.751  18.953  0.00  0.00    +0.000 C 
ATOM      3  C   UNL     1       7.254   6.098  18.210  0.00  0.00    +0.000 C 
ATOM      4  O   UNL     1       7.809   4.989  17.490  0.00  0.00    +0.000 OA
ATOM      5  C   UNL     1       6.860   4.385  16.578  0.00  0.00    +0.000 C 
ATOM      6  C   UNL     1       5.615   3.936  17.369  0.00  0.00    +0.000 C 
ENDROOT
BRANCH   1   7
ATOM      7  C   UNL     1       3.926   5.724  17.504  0.00  0.00    +0.000 C 
BRANCH   7  10
ATOM      8  C   UNL     1       1.645   6.630  20.498  0.00  0.00    +0.000 C 
ATOM      9  N   UNL     1       2.211   5.843  19.406  0.00  0.00    +0.000 N 
ATOM     10  C   UNL     1       3.048   6.506  18.503  0.00  0.00    +0.000 C 
ATOM     11  O   UNL     1       3.170   7.742  18.523  0.00  0.00    +0.000 OA
ATOM     12  C   UNL     1       1.928   4.488  19.236  0.00  0.00    +0.000 A 
ATOM     13  N   UNL     1       2.023   3.794  18.131  0.00  0.00    +0.000 NA
ATOM     14  C   UNL     1       1.756   2.463  18.368  0.00  0.00    +0.000 A 
ATOM     15  C   UNL     1       1.389   2.159  19.658  0.00  0.00    +0.000 A 
ATOM     16  S   UNL     1       1.365   3.591  20.595  0.00  0.00    +0.000 S 
ENDBRANCH   7  10
ENDBRANCH   1   7
BRANCH   5  17
ATOM     17  C   UNL     1       6.619   5.311  15.379  0.00  0.00    +0.000 C 
BRANCH  17  18
ATOM     18  N   UNL     1       6.816   4.748  14.062  0.00  0.00    +0.000 N 
ATOM     19  C   UNL     1       6.107   3.703  13.534  0.00  0.00    +0.000 A 
ATOM     20  C   UNL     1       6.477   3.617  12.214  0.00  0.00    +0.000 A 
ATOM     21  C   UNL     1       7.427   4.640  12.047  0.00  0.00    +0.000 A 
ATOM     22  N   UNL     1       7.636   5.335  13.171  0.00  0.00    +0.000 NA
ENDBRANCH  17  18
ENDBRANCH   5  17
TORSDOF 4
ENDMDL
MODEL 2
REMARK VINA RESULT:      -6.5      3.061      4.955
REMARK  Name = 
REMARK  5 active torsions:
REMARK  status: ('A' for Active; 'I' for Inactive)
REMARK    1  A    between atoms: C_1  and  N_2
REMARK    2  A    between atoms: C_3  and  C_5
REMARK    3  A    between atoms: C_5  and  N_6
REMARK    4  A    between atoms: C_10  and  C_11
REMARK    5  A    between atoms: C_11  and  N_12
REMARK                            x       y       z     vdW  Elec       q    Type
REMARK                         _______ _______ _______ _____ _____    ______ ____
ROOT
ATOM      1  N   UNL     1       1.700   5.285  19.783  0.00  0.00    +0.000 NA
ATOM      2  C   UNL     1       1.492   4.383  20.918  0.00  0.00    +0.000 C 
ATOM      3  C   UNL     1       2.557   3.291  21.114  0.00  0.00    +0.000 C 
ATOM      4  O   UNL     1       2.930   2.638  19.893  0.00  0.00    +0.000 OA
ATOM      5  C   UNL     1       3.354   3.569  18.868  0.00  0.00    +0.000 C 
ATOM      6  C   UNL     1       2.220   4.579  18.605  0.00  0.00    +0.000 C 
ENDROOT
BRANCH   1   7
ATOM      7  C   UNL     1       2.392   6.549  20.075  0.00  0.00    +0.000 C 
BRANCH   7  10
ATOM      8  C   UNL     1       1.782   9.806  18.074  0.00  0.00    +0.000 C 
ATOM      9  N   UNL     1       1.641   8.812  19.134  0.00  0.00    +0.000 N 
ATOM     10  C   UNL     1       2.222   7.559  18.920  0.00  0.00    +0.000 C 
ATOM     11  O   UNL     1       2.689   7.243  17.814  0.00  0.00    +0.000 OA
ATOM     12  C   UNL     1       0.942   9.071  20.313  0.00  0.00    +0.000 A 
ATOM     13  N   UNL     1       0.408   8.193  21.123  0.00  0.00    +0.000 NA
ATOM     14  C   UNL     1      -0.115   8.814  22.236  0.00  0.00    +0.000 A 
ATOM     15  C   UNL     1      -0.033  10.187  22.236  0.00  0.00    +0.000 A 
ATOM     16  S   UNL     1       0.710  10.712  20.786  0.00  0.00    +0.000 S 
ENDBRANCH   7  10
ENDBRANCH   1   7
BRANCH   5  17
ATOM     17  C   UNL     1       4.729   4.151  19.221  0.00  0.00    +0.000 C 
BRANCH  17  18
ATOM     18  N   UNL     1       5.715   4.198  18.164  0.00  0.00    +0.000 N 
ATOM     19  C   UNL     1       5.445   4.107  16.825  0.00  0.00    +0.000 A 
ATOM     20  C   UNL     1       6.624   4.386  16.177  0.00  0.00    +0.000 A 
ATOM     21  C   UNL     1       7.549   4.613  17.212  0.00  0.00    +0.000 A 
ATOM     22  N   UNL     1       6.999   4.501  18.426  0.00  0.00    +0.000 NA
ENDBRANCH  17  18
ENDBRANCH   5  17
TORSDOF 4
ENDMDL
MODEL 3
REMARK VINA RESULT:      -6.3      1.701      2.187
REMARK  Name = 
REMARK  5 active torsions:
REMARK  status: ('A' for Active; 'I' for Inactive)
REMARK    1  A    between atoms: C_1  and  N_2
REMARK    2  A    between atoms: C_3  and  C_5
REMARK    3  A    between atoms: C_5  and  N_6
REMARK    4  A    between atoms: C_10  and  C_11
REMARK    5  A    between atoms: C_11  and  N_12
REMARK                            x       y       z     vdW  Elec       q    Type
REMARK                         _______ _______ _______ _____ _____    ______ ____
ROOT
ATOM      1  N   UNL     1       5.878   4.632  18.660  0.00  0.00    +0.000 NA
ATOM      2  C   UNL     1       5.121   5.884  18.571  0.00  0.00    +0.000 C 
ATOM      3  C   UNL     1       5.161   6.598  17.209  0.00  0.00    +0.000 C 
ATOM      4  O   UNL     1       6.474   6.653  16.636  0.00  0.00    +0.000 OA
ATOM      5  C   UNL     1       7.092   5.347  16.532  0.00  0.00    +0.000 C 
ATOM      6  C   UNL     1       7.150   4.704  17.931  0.00  0.00    +0.000 C 
ENDROOT
BRANCH   1   7
ATOM      7  C   UNL     1       5.120   3.397  18.419  0.00  0.00    +0.000 C 
BRANCH   7  10
ATOM      8  C   UNL     1       1.464   4.346  17.570  0.00  0.00    +0.000 C 
ATOM      9  N   UNL     1       2.589   3.791  18.318  0.00  0.00    +0.000 N 
ATOM     10  C   UNL     1       3.813   3.683  17.650  0.00  0.00    +0.000 C 
ATOM     11  O   UNL     1       3.904   3.887  16.429  0.00  0.00    +0.000 OA
ATOM     12  C   UNL     1       2.468   3.360  19.638  0.00  0.00    +0.000 A 
ATOM     13  N   UNL     1       3.238   2.506  20.263  0.00  0.00    +0.000 NA
ATOM     14  C   UNL     1       2.871   2.400  21.587  0.00  0.00    +0.000 A 
ATOM     15  C   UNL     1       1.767   3.135  21.952  0.00  0.00    +0.000 A 
ATOM     16  S   UNL     1       1.165   3.971  20.585  0.00  0.00    +0.000 S 
ENDBRANCH   7  10
ENDBRANCH   1   7
BRANCH   5  17
ATOM     17  C   UNL     1       6.415   4.530  15.424  0.00  0.00    +0.000 C 
BRANCH  17  18
ATOM     18  N   UNL     1       6.981   4.626  14.096  0.00  0.00    +0.000 N 
ATOM     19  C   UNL     1       6.532   3.951  12.994  0.00  0.00    +0.000 A 
ATOM     20  C   UNL     1       7.217   4.469  11.922  0.00  0.00    +0.000 A 
ATOM     21  C   UNL     1       8.069   5.437  12.484  0.00  0.00    +0.000 A 
ATOM     22  N   UNL     1       7.928   5.538  13.809  0.00  0.00    +0.000 NA
ENDBRANCH  17  18
ENDBRANCH   5  17
TORSDOF 4
ENDMDL
MODEL 4
REMARK VINA RESULT:      -6.3      3.569      5.229
REMARK  Name = 
REMARK  5 active torsions:
REMARK  status: ('A' for Active; 'I' for Inactive)
REMARK    1  A    between atoms: C_1  and  N_2
REMARK    2  A    between atoms: C_3  and  C_5
REMARK    3  A    between atoms: C_5  and  N_6
REMARK    4  A    between atoms: C_10  and  C_11
REMARK    5  A    between atoms: C_11  and  N_12
REMARK                            x       y       z     vdW  Elec       q    Type
REMARK                         _______ _______ _______ _____ _____    ______ ____
ROOT
ATOM      1  N   UNL     1       1.976   5.604  18.979  0.00  0.00    +0.000 NA
ATOM      2  C   UNL     1       1.360   4.613  19.866  0.00  0.00    +0.000 C 
ATOM      3  C   UNL     1       2.303   3.539  20.432  0.00  0.00    +0.000 C 
ATOM      4  O   UNL     1       3.190   2.989  19.449  0.00  0.00    +0.000 OA
ATOM      5  C   UNL     1       3.953   4.005  18.755  0.00  0.00    +0.000 C 
ATOM      6  C   UNL     1       2.981   5.002  18.094  0.00  0.00    +0.000 C 
ENDROOT
BRANCH   1   7
ATOM      7  C   UNL     1       2.409   6.859  19.607  0.00  0.00    +0.000 C 
BRANCH   7  10
ATOM      8  C   UNL     1       1.696  10.408  18.235  0.00  0.00    +0.000 C 
ATOM      9  N   UNL     1       1.586   9.232  19.093  0.00  0.00    +0.000 N 
ATOM     10  C   UNL     1       2.208   8.059  18.657  0.00  0.00    +0.000 C 
ATOM     11  O   UNL     1       2.687   7.967  17.515  0.00  0.00    +0.000 OA
ATOM     12  C   UNL     1       0.876   9.247  20.294  0.00  0.00    +0.000 A 
ATOM     13  N   UNL     1       0.370   8.218  20.924  0.00  0.00    +0.000 NA
ATOM     14  C   UNL     1      -0.176   8.606  22.128  0.00  0.00    +0.000 A 
ATOM     15  C   UNL     1      -0.140   9.957  22.381  0.00  0.00    +0.000 A 
ATOM     16  S   UNL     1       0.588  10.764  21.058  0.00  0.00    +0.000 S 
ENDBRANCH   7  10
ENDBRANCH   1   7
BRANCH   5  17
ATOM     17  C   UNL     1       5.018   4.595  19.688  0.00  0.00    +0.000 C 
BRANCH  17  18
ATOM     18  N   UNL     1       6.145   5.256  19.068  0.00  0.00    +0.000 N 
ATOM     19  C   UNL     1       6.123   5.885  17.853  0.00  0.00    +0.000 A 
ATOM     20  C   UNL     1       7.329   6.531  17.734  0.00  0.00    +0.000 A 
ATOM     21  C   UNL     1       8.016   6.215  18.920  0.00  0.00    +0.000 A 
ATOM     22  N   UNL     1       7.297   5.439  19.738  0.00  0.00    +0.000 NA
ENDBRANCH  17  18
ENDBRANCH   5  17
TORSDOF 4
ENDMDL
MODEL 5
REMARK VINA RESULT:      -6.1      3.021      5.266
REMARK  Name = 
REMARK  5 active torsions:
REMARK  status: ('A' for Active; 'I' for Inactive)
REMARK    1  A    between atoms: C_1  and  N_2
REMARK    2  A    between atoms: C_3  and  C_5
REMARK    3  A    between atoms: C_5  and  N_6
REMARK    4  A    between atoms: C_10  and  C_11
REMARK    5  A    between atoms: C_11  and  N_12
REMARK                            x       y       z     vdW  Elec       q    Type
REMARK                         _______ _______ _______ _____ _____    ______ ____
ROOT
ATOM      1  N   UNL     1       4.327   6.384  18.105  0.00  0.00    +0.000 NA
ATOM      2  C   UNL     1       4.961   6.861  16.874  0.00  0.00    +0.000 C 
ATOM      3  C   UNL     1       5.200   5.800  15.786  0.00  0.00    +0.000 C 
ATOM      4  O   UNL     1       5.738   4.574  16.298  0.00  0.00    +0.000 OA
ATOM      5  C   UNL     1       4.939   4.017  17.370  0.00  0.00    +0.000 C 
ATOM      6  C   UNL     1       4.817   5.057  18.501  0.00  0.00    +0.000 C 
ENDROOT
BRANCH   1   7
ATOM      7  C   UNL     1       2.866   6.528  18.182  0.00  0.00    +0.000 C 
BRANCH   7  10
ATOM      8  C   UNL     1       1.000   7.528  21.424  0.00  0.00    +0.000 C 
ATOM      9  N   UNL     1       1.660   7.679  20.130  0.00  0.00    +0.000 N 
ATOM     10  C   UNL     1       2.387   6.586  19.649  0.00  0.00    +0.000 C 
ATOM     11  O   UNL     1       2.608   5.593  20.360  0.00  0.00    +0.000 OA
ATOM     12  C   UNL     1       1.599   8.862  19.394  0.00  0.00    +0.000 A 
ATOM     13  N   UNL     1       2.437   9.261  18.471  0.00  0.00    +0.000 NA
ATOM     14  C   UNL     1       2.001  10.434  17.893  0.00  0.00    +0.000 A 
ATOM     15  C   UNL     1       0.852  10.963  18.433  0.00  0.00    +0.000 A 
ATOM     16  S   UNL     1       0.314   9.963  19.715  0.00  0.00    +0.000 S 
ENDBRANCH   7  10
ENDBRANCH   1   7
BRANCH   5  17
ATOM     17  C   UNL     1       3.628   3.450  16.809  0.00  0.00    +0.000 C 
BRANCH  17  18
ATOM     18  N   UNL     1       2.674   2.929  17.764  0.00  0.00    +0.000 N 
ATOM     19  C   UNL     1       2.973   2.094  18.806  0.00  0.00    +0.000 A 
ATOM     20  C   UNL     1       1.830   2.002  19.562  0.00  0.00    +0.000 A 
ATOM     21  C   UNL     1       0.893   2.801  18.884  0.00  0.00    +0.000 A 
ATOM     22  N   UNL     1       1.403   3.371  17.787  0.00  0.00    +0.000 NA
ENDBRANCH  17  18
ENDBRANCH   5  17
TORSDOF 4
ENDMDL
MODEL 6
REMARK VINA RESULT:      -6.1      1.794      2.639
REMARK  Name = 
REMARK  5 active torsions:
REMARK  status: ('A' for Active; 'I' for Inactive)
REMARK    1  A    between atoms: C_1  and  N_2
REMARK    2  A    between atoms: C_3  and  C_5
REMARK    3  A    between atoms: C_5  and  N_6
REMARK    4  A    between atoms: C_10  and  C_11
REMARK    5  A    between atoms: C_11  and  N_12
REMARK                            x       y       z     vdW  Elec       q    Type
REMARK                         _______ _______ _______ _____ _____    ______ ____
ROOT
ATOM      1  N   UNL     1       6.304   4.653  18.264  0.00  0.00    +0.000 NA
ATOM      2  C   UNL     1       6.437   6.081  18.563  0.00  0.00    +0.000 C 
ATOM      3  C   UNL     1       6.627   7.007  17.351  0.00  0.00    +0.000 C 
ATOM      4  O   UNL     1       7.574   6.507  16.398  0.00  0.00    +0.000 OA
ATOM      5  C   UNL     1       7.264   5.163  15.955  0.00  0.00    +0.000 C 
ATOM      6  C   UNL     1       7.199   4.230  17.180  0.00  0.00    +0.000 C 
ENDROOT
BRANCH   1   7
ATOM      7  C   UNL     1       4.932   4.140  18.140  0.00  0.00    +0.000 C 
BRANCH   7  10
ATOM      8  C   UNL     1       2.990   2.612  21.120  0.00  0.00    +0.000 C 
ATOM      9  N   UNL     1       3.465   3.620  20.177  0.00  0.00    +0.000 N 
ATOM     10  C   UNL     1       4.546   3.276  19.360  0.00  0.00    +0.000 C 
ATOM     11  O   UNL     1       5.186   2.228  19.541  0.00  0.00    +0.000 OA
ATOM     12  C   UNL     1       2.894   4.889  20.090  0.00  0.00    +0.000 A 
ATOM     13  N   UNL     1       3.450   5.974  19.614  0.00  0.00    +0.000 NA
ATOM     14  C   UNL     1       2.548   7.016  19.599  0.00  0.00    +0.000 A 
ATOM     15  C   UNL     1       1.313   6.732  20.132  0.00  0.00    +0.000 A 
ATOM     16  S   UNL     1       1.291   5.110  20.682  0.00  0.00    +0.000 S 
ENDBRANCH   7  10
ENDBRANCH   1   7
BRANCH   5  17
ATOM     17  C   UNL     1       6.035   5.182  15.036  0.00  0.00    +0.000 C 
BRANCH  17  18
ATOM     18  N   UNL     1       6.094   4.369  13.842  0.00  0.00    +0.000 N 
ATOM     19  C   UNL     1       5.041   3.683  13.299  0.00  0.00    +0.000 A 
ATOM     20  C   UNL     1       5.478   3.208  12.086  0.00  0.00    +0.000 A 
ATOM     21  C   UNL     1       6.813   3.644  11.998  0.00  0.00    +0.000 A 
ATOM     22  N   UNL     1       7.193   4.354  13.065  0.00  0.00    +0.000 NA
ENDBRANCH  17  18
ENDBRANCH   5  17
TORSDOF 4
ENDMDL
MODEL 7
REMARK VINA RESULT:      -5.8      3.101      5.098
REMARK  Name = 
REMARK  5 active torsions:
REMARK  status: ('A' for Active; 'I' for Inactive)
REMARK    1  A    between atoms: C_1  and  N_2
REMARK    2  A    between atoms: C_3  and  C_5
REMARK    3  A    between atoms: C_5  and  N_6
REMARK    4  A    between atoms: C_10  and  C_11
REMARK    5  A    between atoms: C_11  and  N_12
REMARK                            x       y       z     vdW  Elec       q    Type
REMARK                         _______ _______ _______ _____ _____    ______ ____
ROOT
ATOM      1  N   UNL     1       1.597   6.102  19.680  0.00  0.00    +0.000 NA
ATOM      2  C   UNL     1       1.767   4.991  20.621  0.00  0.00    +0.000 C 
ATOM      3  C   UNL     1       2.992   4.092  20.385  0.00  0.00    +0.000 C 
ATOM      4  O   UNL     1       3.180   3.741  19.008  0.00  0.00    +0.000 OA
ATOM      5  C   UNL     1       3.238   4.898  18.139  0.00  0.00    +0.000 C 
ATOM      6  C   UNL     1       1.944   5.719  18.306  0.00  0.00    +0.000 C 
ENDROOT
BRANCH   1   7
ATOM      7  C   UNL     1       2.152   7.397  20.097  0.00  0.00    +0.000 C 
BRANCH   7  10
ATOM      8  C   UNL     1       1.021  10.768  18.565  0.00  0.00    +0.000 C 
ATOM      9  N   UNL     1       1.071   9.642  19.493  0.00  0.00    +0.000 N 
ATOM     10  C   UNL     1       1.787   8.511  19.091  0.00  0.00    +0.000 C 
ATOM     11  O   UNL     1       2.219   8.396  17.933  0.00  0.00    +0.000 OA
ATOM     12  C   UNL     1       0.420   9.661  20.727  0.00  0.00    +0.000 A 
ATOM     13  N   UNL     1       0.050   8.628  21.439  0.00  0.00    +0.000 NA
ATOM     14  C   UNL     1      -0.475   9.035  22.647  0.00  0.00    +0.000 A 
ATOM     15  C   UNL     1      -0.564  10.396  22.821  0.00  0.00    +0.000 A 
ATOM     16  S   UNL     1       0.017  11.187  21.418  0.00  0.00    +0.000 S 
ENDBRANCH   7  10
ENDBRANCH   1   7
BRANCH   5  17
ATOM     17  C   UNL     1       4.561   5.646  18.346  0.00  0.00    +0.000 C 
BRANCH  17  18
ATOM     18  N   UNL     1       5.744   5.072  17.743  0.00  0.00    +0.000 N 
ATOM     19  C   UNL     1       5.951   4.916  16.399  0.00  0.00    +0.000 A 
ATOM     20  C   UNL     1       7.258   4.516  16.258  0.00  0.00    +0.000 A 
ATOM     21  C   UNL     1       7.748   4.441  17.574  0.00  0.00    +0.000 A 
ATOM     22  N   UNL     1       6.829   4.781  18.483  0.00  0.00    +0.000 NA
ENDBRANCH  17  18
ENDBRANCH   5  17
TORSDOF 4
ENDMDL
MODEL 8
REMARK VINA RESULT:      -5.8      2.595      4.043
REMARK  Name = 
REMARK  5 active torsions:
REMARK  status: ('A' for Active; 'I' for Inactive)
REMARK    1  A    between atoms: C_1  and  N_2
REMARK    2  A    between atoms: C_3  and  C_5
REMARK    3  A    between atoms: C_5  and  N_6
REMARK    4  A    between atoms: C_10  and  C_11
REMARK    5  A    between atoms: C_11  and  N_12
REMARK                            x       y       z     vdW  Elec       q    Type
REMARK                         _______ _______ _______ _____ _____    ______ ____
ROOT
ATOM      1  N   UNL     1       4.082   5.500  17.358  0.00  0.00    +0.000 NA
ATOM      2  C   UNL     1       4.010   4.153  16.786  0.00  0.00    +0.000 C 
ATOM      3  C   UNL     1       5.234   3.704  15.970  0.00  0.00    +0.000 C 
ATOM      4  O   UNL     1       5.715   4.709  15.068  0.00  0.00    +0.000 OA
ATOM      5  C   UNL     1       5.993   5.966  15.732  0.00  0.00    +0.000 C 
ATOM      6  C   UNL     1       4.716   6.456  16.441  0.00  0.00    +0.000 C 
ENDROOT
BRANCH   1   7
ATOM      7  C   UNL     1       4.562   5.593  18.743  0.00  0.00    +0.000 C 
BRANCH   7  10
ATOM      8  C   UNL     1       4.770   1.907  19.908  0.00  0.00    +0.000 C 
ATOM      9  N   UNL     1       4.229   3.252  19.733  0.00  0.00    +0.000 N 
ATOM     10  C   UNL     1       5.096   4.234  19.242  0.00  0.00    +0.000 C 
ATOM     11  O   UNL     1       6.313   4.020  19.121  0.00  0.00    +0.000 OA
ATOM     12  C   UNL     1       2.911   3.575  20.055  0.00  0.00    +0.000 A 
ATOM     13  N   UNL     1       2.435   4.763  20.330  0.00  0.00    +0.000 NA
ATOM     14  C   UNL     1       1.068   4.709  20.503  0.00  0.00    +0.000 A 
ATOM     15  C   UNL     1       0.515   3.453  20.423  0.00  0.00    +0.000 A 
ATOM     16  S   UNL     1       1.751   2.304  20.137  0.00  0.00    +0.000 S 
ENDBRANCH   7  10
ENDBRANCH   1   7
BRANCH   5  17
ATOM     17  C   UNL     1       7.256   5.839  16.594  0.00  0.00    +0.000 C 
BRANCH  17  18
ATOM     18  N   UNL     1       7.610   6.975  17.415  0.00  0.00    +0.000 N 
ATOM     19  C   UNL     1       8.193   6.907  18.652  0.00  0.00    +0.000 A 
ATOM     20  C   UNL     1       8.527   8.196  18.989  0.00  0.00    +0.000 A 
ATOM     21  C   UNL     1       8.087   8.970  17.900  0.00  0.00    +0.000 A 
ATOM     22  N   UNL     1       7.529   8.230  16.936  0.00  0.00    +0.000 NA
ENDBRANCH  17  18
ENDBRANCH   5  17
TORSDOF 4
ENDMDL
MODEL 9
REMARK VINA RESULT:      -5.8      4.253      7.591
REMARK  Name = 
REMARK  5 active torsions:
REMARK  status: ('A' for Active; 'I' for Inactive)
REMARK    1  A    between atoms: C_1  and  N_2
REMARK    2  A    between atoms: C_3  and  C_5
REMARK    3  A    between atoms: C_5  and  N_6
REMARK    4  A    between atoms: C_10  and  C_11
REMARK    5  A    between atoms: C_11  and  N_12
REMARK                            x       y       z     vdW  Elec       q    Type
REMARK                         _______ _______ _______ _____ _____    ______ ____
ROOT
ATOM      1  N   UNL     1       1.939   8.661  19.113  0.00  0.00    +0.000 NA
ATOM      2  C   UNL     1       1.374   8.664  20.465  0.00  0.00    +0.000 C 
ATOM      3  C   UNL     1      -0.031   9.272  20.605  0.00  0.00    +0.000 C 
ATOM      4  O   UNL     1      -0.189  10.505  19.891  0.00  0.00    +0.000 OA
ATOM      5  C   UNL     1       0.166  10.389  18.492  0.00  0.00    +0.000 C 
ATOM      6  C   UNL     1       1.621   9.893  18.380  0.00  0.00    +0.000 C 
ENDROOT
BRANCH   1   7
ATOM      7  C   UNL     1       1.745   7.433  18.330  0.00  0.00    +0.000 C 
BRANCH   7  10
ATOM      8  C   UNL     1       4.522   4.893  17.422  0.00  0.00    +0.000 C 
ATOM      9  N   UNL     1       3.351   5.448  18.094  0.00  0.00    +0.000 N 
ATOM     10  C   UNL     1       3.098   6.812  17.920  0.00  0.00    +0.000 C 
ATOM     11  O   UNL     1       3.921   7.557  17.363  0.00  0.00    +0.000 OA
ATOM     12  C   UNL     1       2.514   4.675  18.899  0.00  0.00    +0.000 A 
ATOM     13  N   UNL     1       1.716   5.101  19.844  0.00  0.00    +0.000 NA
ATOM     14  C   UNL     1       0.972   4.060  20.356  0.00  0.00    +0.000 A 
ATOM     15  C   UNL     1       1.260   2.820  19.836  0.00  0.00    +0.000 A 
ATOM     16  S   UNL     1       2.514   2.967  18.680  0.00  0.00    +0.000 S 
ENDBRANCH   7  10
ENDBRANCH   1   7
BRANCH   5  17
ATOM     17  C   UNL     1      -0.900   9.578  17.743  0.00  0.00    +0.000 C 
BRANCH  17  18
ATOM     18  N   UNL     1      -2.018  10.311  17.191  0.00  0.00    +0.000 N 
ATOM     19  C   UNL     1      -2.520  10.155  15.928  0.00  0.00    +0.000 A 
ATOM     20  C   UNL     1      -3.678  10.892  15.883  0.00  0.00    +0.000 A 
ATOM     21  C   UNL     1      -3.777  11.470  17.161  0.00  0.00    +0.000 A 
ATOM     22  N   UNL     1      -2.768  11.118  17.964  0.00  0.00    +0.000 NA
ENDBRANCH  17  18
ENDBRANCH   5  17
TORSDOF 4
ENDMDL
