MODEL 1
REMARK VINA RESULT:      -8.9      0.000      0.000
REMARK  Name = 
REMARK  4 active torsions:
REMARK  status: ('A' for Active; 'I' for Inactive)
REMARK    1  A    between atoms: C_1  and  C_2
REMARK    2  A    between atoms: C_6  and  N_7
REMARK    3  A    between atoms: C_18  and  C_19
REMARK    4  A    between atoms: N_23  and  C_24
REMARK                            x       y       z     vdW  Elec       q    Type
REMARK                         _______ _______ _______ _____ _____    ______ ____
ROOT
ATOM      1  N   UNL     1       1.937   7.433  20.536  0.00  0.00    +0.000 N 
ATOM      2  C   UNL     1       2.703   7.157  19.427  0.00  0.00    +0.000 C 
ATOM      3  O   UNL     1       2.805   7.967  18.501  0.00  0.00    +0.000 OA
ATOM      4  N   UNL     1       3.370   5.941  19.382  0.00  0.00    +0.000 N 
ATOM      5  C   UNL     1       4.095   5.651  18.191  0.00  0.00    +0.000 A 
ATOM      6  C   UNL     1       4.862   6.533  17.438  0.00  0.00    +0.000 A 
ATOM      7  C   UNL     1       5.351   6.101  16.213  0.00  0.00    +0.000 A 
ATOM      8  C   UNL     1       5.070   4.800  15.760  0.00  0.00    +0.000 A 
ATOM      9  C   UNL     1       4.317   3.914  16.539  0.00  0.00    +0.000 A 
ATOM     10  C   UNL     1       3.849   4.347  17.770  0.00  0.00    +0.000 A 
ATOM     11  C   UNL     1       2.932   3.660  18.741  0.00  0.00    +0.000 C 
ATOM     12  C   UNL     1       3.095   4.594  19.971  0.00  0.00    +0.000 C 
ATOM     13  C   UNL     1       2.020   4.438  21.027  0.00  0.00    +0.000 C 
ATOM     14  H   UNL     1       2.188   6.964  21.388  0.00  0.00    +0.000 HD
ENDROOT
BRANCH   1  20
ATOM     15  C   UNL     1      -1.869  13.030  23.410  0.00  0.00    +0.000 C 
ATOM     16  C   UNL     1      -1.191  11.997  22.585  0.00  0.00    +0.000 A 
ATOM     17  N   UNL     1      -0.474  10.998  23.055  0.00  0.00    +0.000 NA
ATOM     18  C   UNL     1      -0.034  10.308  21.956  0.00  0.00    +0.000 A 
ATOM     19  C   UNL     1       0.782   9.168  21.890  0.00  0.00    +0.000 A 
ATOM     20  C   UNL     1       1.120   8.600  20.648  0.00  0.00    +0.000 A 
ATOM     21  C   UNL     1       0.642   9.207  19.480  0.00  0.00    +0.000 A 
ATOM     22  C   UNL     1      -0.176  10.353  19.519  0.00  0.00    +0.000 A 
ATOM     23  C   UNL     1      -0.491  10.882  20.777  0.00  0.00    +0.000 A 
ATOM     24  N   UNL     1      -1.217  11.966  21.211  0.00  0.00    +0.000 N 
ATOM     25  C   UNL     1      -1.868  12.939  20.374  0.00  0.00    +0.000 C 
ENDBRANCH   1  20
TORSDOF 1
ENDMDL
MODEL 2
REMARK VINA RESULT:      -8.5      1.308      1.567
REMARK  Name = 
REMARK  4 active torsions:
REMARK  status: ('A' for Active; 'I' for Inactive)
REMARK    1  A    between atoms: C_1  and  C_2
REMARK    2  A    between atoms: C_6  and  N_7
REMARK    3  A    between atoms: C_18  and  C_19
REMARK    4  A    between atoms: N_23  and  C_24
REMARK                            x       y       z     vdW  Elec       q    Type
REMARK                         _______ _______ _______ _____ _____    ______ ____
ROOT
ATOM      1  N   UNL     1       2.438   6.799  19.364  0.00  0.00    +0.000 N 
ATOM      2  C   UNL     1       3.532   6.598  18.555  0.00  0.00    +0.000 C 
ATOM      3  O   UNL     1       4.091   7.542  17.990  0.00  0.00    +0.000 OA
ATOM      4  N   UNL     1       3.997   5.300  18.396  0.00  0.00    +0.000 N 
ATOM      5  C   UNL     1       5.083   5.113  17.495  0.00  0.00    +0.000 A 
ATOM      6  C   UNL     1       6.192   5.937  17.333  0.00  0.00    +0.000 A 
ATOM      7  C   UNL     1       7.058   5.676  16.279  0.00  0.00    +0.000 A 
ATOM      8  C   UNL     1       6.806   4.603  15.408  0.00  0.00    +0.000 A 
ATOM      9  C   UNL     1       5.699   3.767  15.597  0.00  0.00    +0.000 A 
ATOM     10  C   UNL     1       4.850   4.022  16.663  0.00  0.00    +0.000 A 
ATOM     11  C   UNL     1       3.545   3.372  17.024  0.00  0.00    +0.000 C 
ATOM     12  C   UNL     1       3.339   3.957  18.447  0.00  0.00    +0.000 C 
ATOM     13  C   UNL     1       1.927   3.830  18.982  0.00  0.00    +0.000 C 
ATOM     14  H   UNL     1       2.273   6.113  20.081  0.00  0.00    +0.000 HD
ENDROOT
BRANCH   1  20
ATOM     15  C   UNL     1      -0.740  12.682  22.423  0.00  0.00    +0.000 C 
ATOM     16  C   UNL     1      -0.147  11.625  21.564  0.00  0.00    +0.000 A 
ATOM     17  N   UNL     1       0.354  10.486  21.996  0.00  0.00    +0.000 NA
ATOM     18  C   UNL     1       0.795   9.827  20.878  0.00  0.00    +0.000 A 
ATOM     19  C   UNL     1       1.428   8.579  20.774  0.00  0.00    +0.000 A 
ATOM     20  C   UNL     1       1.803   8.070  19.517  0.00  0.00    +0.000 A 
ATOM     21  C   UNL     1       1.552   8.842  18.377  0.00  0.00    +0.000 A 
ATOM     22  C   UNL     1       0.920  10.099  18.455  0.00  0.00    +0.000 A 
ATOM     23  C   UNL     1       0.560  10.565  19.725  0.00  0.00    +0.000 A 
ATOM     24  N   UNL     1      -0.032  11.714  20.197  0.00  0.00    +0.000 N 
ATOM     25  C   UNL     1      -0.433  12.846  19.405  0.00  0.00    +0.000 C 
ENDBRANCH   1  20
TORSDOF 1
ENDMDL
MODEL 3
REMARK VINA RESULT:      -8.2      0.845      1.707
REMARK  Name = 
REMARK  4 active torsions:
REMARK  status: ('A' for Active; 'I' for Inactive)
REMARK    1  A    between atoms: C_1  and  C_2
REMARK    2  A    between atoms: C_6  and  N_7
REMARK    3  A    between atoms: C_18  and  C_19
REMARK    4  A    between atoms: N_23  and  C_24
REMARK                            x       y       z     vdW  Elec       q    Type
REMARK                         _______ _______ _______ _____ _____    ______ ____
ROOT
ATOM      1  N   UNL     1       1.776   7.095  20.663  0.00  0.00    +0.000 N 
ATOM      2  C   UNL     1       2.611   6.845  19.599  0.00  0.00    +0.000 C 
ATOM      3  O   UNL     1       2.882   7.726  18.778  0.00  0.00    +0.000 OA
ATOM      4  N   UNL     1       3.150   5.573  19.478  0.00  0.00    +0.000 N 
ATOM      5  C   UNL     1       3.950   5.323  18.327  0.00  0.00    +0.000 A 
ATOM      6  C   UNL     1       4.872   6.184  17.741  0.00  0.00    +0.000 A 
ATOM      7  C   UNL     1       5.428   5.823  16.520  0.00  0.00    +0.000 A 
ATOM      8  C   UNL     1       5.058   4.613  15.907  0.00  0.00    +0.000 A 
ATOM      9  C   UNL     1       4.147   3.744  16.520  0.00  0.00    +0.000 A 
ATOM     10  C   UNL     1       3.612   4.103  17.747  0.00  0.00    +0.000 A 
ATOM     11  C   UNL     1       2.542   3.431  18.558  0.00  0.00    +0.000 C 
ATOM     12  C   UNL     1       2.683   4.213  19.891  0.00  0.00    +0.000 C 
ATOM     13  C   UNL     1       1.503   4.075  20.831  0.00  0.00    +0.000 C 
ATOM     14  H   UNL     1       1.895   6.518  21.478  0.00  0.00    +0.000 HD
ENDROOT
BRANCH   1  20
ATOM     15  C   UNL     1      -0.917  13.816  19.382  0.00  0.00    +0.000 C 
ATOM     16  C   UNL     1      -0.501  12.482  19.888  0.00  0.00    +0.000 A 
ATOM     17  N   UNL     1       0.264  11.629  19.240  0.00  0.00    +0.000 NA
ATOM     18  C   UNL     1       0.382  10.538  20.062  0.00  0.00    +0.000 A 
ATOM     19  C   UNL     1       1.073   9.336  19.850  0.00  0.00    +0.000 A 
ATOM     20  C   UNL     1       1.075   8.329  20.833  0.00  0.00    +0.000 A 
ATOM     21  C   UNL     1       0.359   8.544  22.016  0.00  0.00    +0.000 A 
ATOM     22  C   UNL     1      -0.344   9.741  22.253  0.00  0.00    +0.000 A 
ATOM     23  C   UNL     1      -0.317  10.718  21.249  0.00  0.00    +0.000 A 
ATOM     24  N   UNL     1      -0.880  11.964  21.103  0.00  0.00    +0.000 N 
ATOM     25  C   UNL     1      -1.756  12.613  22.042  0.00  0.00    +0.000 C 
ENDBRANCH   1  20
TORSDOF 1
ENDMDL
MODEL 4
REMARK VINA RESULT:      -8.2      1.422      2.305
REMARK  Name = 
REMARK  4 active torsions:
REMARK  status: ('A' for Active; 'I' for Inactive)
REMARK    1  A    between atoms: C_1  and  C_2
REMARK    2  A    between atoms: C_6  and  N_7
REMARK    3  A    between atoms: C_18  and  C_19
REMARK    4  A    between atoms: N_23  and  C_24
REMARK                            x       y       z     vdW  Elec       q    Type
REMARK                         _______ _______ _______ _____ _____    ______ ____
ROOT
ATOM      1  N   UNL     1       2.337   6.646  19.600  0.00  0.00    +0.000 N 
ATOM      2  C   UNL     1       3.408   6.491  18.751  0.00  0.00    +0.000 C 
ATOM      3  O   UNL     1       3.993   7.468  18.274  0.00  0.00    +0.000 OA
ATOM      4  N   UNL     1       3.822   5.201  18.452  0.00  0.00    +0.000 N 
ATOM      5  C   UNL     1       4.884   5.069  17.514  0.00  0.00    +0.000 A 
ATOM      6  C   UNL     1       6.020   5.865  17.414  0.00  0.00    +0.000 A 
ATOM      7  C   UNL     1       6.858   5.684  16.321  0.00  0.00    +0.000 A 
ATOM      8  C   UNL     1       6.551   4.715  15.351  0.00  0.00    +0.000 A 
ATOM      9  C   UNL     1       5.417   3.903  15.476  0.00  0.00    +0.000 A 
ATOM     10  C   UNL     1       4.597   4.078  16.580  0.00  0.00    +0.000 A 
ATOM     11  C   UNL     1       3.275   3.441  16.900  0.00  0.00    +0.000 C 
ATOM     12  C   UNL     1       3.115   3.884  18.380  0.00  0.00    +0.000 C 
ATOM     13  C   UNL     1       1.709   3.752  18.928  0.00  0.00    +0.000 C 
ATOM     14  H   UNL     1       2.159   5.897  20.246  0.00  0.00    +0.000 HD
ENDROOT
BRANCH   1  20
ATOM     15  C   UNL     1      -0.397  13.422  18.775  0.00  0.00    +0.000 C 
ATOM     16  C   UNL     1       0.104  12.093  19.213  0.00  0.00    +0.000 A 
ATOM     17  N   UNL     1       0.626  11.180  18.422  0.00  0.00    +0.000 NA
ATOM     18  C   UNL     1       0.938  10.121  19.234  0.00  0.00    +0.000 A 
ATOM     19  C   UNL     1       1.503   8.881  18.900  0.00  0.00    +0.000 A 
ATOM     20  C   UNL     1       1.752   7.917  19.895  0.00  0.00    +0.000 A 
ATOM     21  C   UNL     1       1.407   8.213  21.219  0.00  0.00    +0.000 A 
ATOM     22  C   UNL     1       0.837   9.449  21.579  0.00  0.00    +0.000 A 
ATOM     23  C   UNL     1       0.610  10.381  20.559  0.00  0.00    +0.000 A 
ATOM     24  N   UNL     1       0.068  11.644  20.511  0.00  0.00    +0.000 N 
ATOM     25  C   UNL     1      -0.486  12.370  21.623  0.00  0.00    +0.000 C 
ENDBRANCH   1  20
TORSDOF 1
ENDMDL
MODEL 5
REMARK VINA RESULT:      -8.0      1.618      2.750
REMARK  Name = 
REMARK  4 active torsions:
REMARK  status: ('A' for Active; 'I' for Inactive)
REMARK    1  A    between atoms: C_1  and  C_2
REMARK    2  A    between atoms: C_6  and  N_7
REMARK    3  A    between atoms: C_18  and  C_19
REMARK    4  A    between atoms: N_23  and  C_24
REMARK                            x       y       z     vdW  Elec       q    Type
REMARK                         _______ _______ _______ _____ _____    ______ ____
ROOT
ATOM      1  N   UNL     1       2.705   7.639  18.068  0.00  0.00    +0.000 N 
ATOM      2  C   UNL     1       2.541   6.277  18.170  0.00  0.00    +0.000 C 
ATOM      3  O   UNL     1       1.550   5.791  18.722  0.00  0.00    +0.000 OA
ATOM      4  N   UNL     1       3.521   5.460  17.623  0.00  0.00    +0.000 N 
ATOM      5  C   UNL     1       3.363   4.058  17.809  0.00  0.00    +0.000 A 
ATOM      6  C   UNL     1       2.180   3.329  17.742  0.00  0.00    +0.000 A 
ATOM      7  C   UNL     1       2.206   1.994  18.124  0.00  0.00    +0.000 A 
ATOM      8  C   UNL     1       3.406   1.409  18.563  0.00  0.00    +0.000 A 
ATOM      9  C   UNL     1       4.595   2.148  18.602  0.00  0.00    +0.000 A 
ATOM     10  C   UNL     1       4.565   3.474  18.201  0.00  0.00    +0.000 A 
ATOM     11  C   UNL     1       5.646   4.515  18.254  0.00  0.00    +0.000 C 
ATOM     12  C   UNL     1       4.990   5.628  17.393  0.00  0.00    +0.000 C 
ATOM     13  C   UNL     1       5.625   6.995  17.540  0.00  0.00    +0.000 C 
ATOM     14  H   UNL     1       3.272   7.972  17.308  0.00  0.00    +0.000 HD
ENDROOT
BRANCH   1  20
ATOM     15  C   UNL     1      -1.246  11.197  23.147  0.00  0.00    +0.000 C 
ATOM     16  C   UNL     1      -0.562  10.660  21.943  0.00  0.00    +0.000 A 
ATOM     17  N   UNL     1       0.251   9.624  21.929  0.00  0.00    +0.000 NA
ATOM     18  C   UNL     1       0.655   9.488  20.626  0.00  0.00    +0.000 A 
ATOM     19  C   UNL     1       1.537   8.554  20.063  0.00  0.00    +0.000 A 
ATOM     20  C   UNL     1       1.822   8.579  18.685  0.00  0.00    +0.000 A 
ATOM     21  C   UNL     1       1.224   9.566  17.893  0.00  0.00    +0.000 A 
ATOM     22  C   UNL     1       0.336  10.517  18.436  0.00  0.00    +0.000 A 
ATOM     23  C   UNL     1       0.078  10.453  19.810  0.00  0.00    +0.000 A 
ATOM     24  N   UNL     1      -0.685  11.194  20.682  0.00  0.00    +0.000 N 
ATOM     25  C   UNL     1      -1.457  12.361  20.350  0.00  0.00    +0.000 C 
ENDBRANCH   1  20
TORSDOF 1
ENDMDL
MODEL 6
REMARK VINA RESULT:      -7.6      3.748     10.545
REMARK  Name = 
REMARK  4 active torsions:
REMARK  status: ('A' for Active; 'I' for Inactive)
REMARK    1  A    between atoms: C_1  and  C_2
REMARK    2  A    between atoms: C_6  and  N_7
REMARK    3  A    between atoms: C_18  and  C_19
REMARK    4  A    between atoms: N_23  and  C_24
REMARK                            x       y       z     vdW  Elec       q    Type
REMARK                         _______ _______ _______ _____ _____    ______ ____
ROOT
ATOM      1  N   UNL     1      -1.869  12.683  23.485  0.00  0.00    +0.000 N 
ATOM      2  C   UNL     1      -3.242  12.749  23.499  0.00  0.00    +0.000 C 
ATOM      3  O   UNL     1      -3.930  11.916  22.901  0.00  0.00    +0.000 OA
ATOM      4  N   UNL     1      -3.838  13.778  24.214  0.00  0.00    +0.000 N 
ATOM      5  C   UNL     1      -5.258  13.866  24.150  0.00  0.00    +0.000 A 
ATOM      6  C   UNL     1      -6.166  12.813  24.170  0.00  0.00    +0.000 A 
ATOM      7  C   UNL     1      -7.504  13.093  23.922  0.00  0.00    +0.000 A 
ATOM      8  C   UNL     1      -7.913  14.412  23.661  0.00  0.00    +0.000 A 
ATOM      9  C   UNL     1      -6.991  15.466  23.668  0.00  0.00    +0.000 A 
ATOM     10  C   UNL     1      -5.661  15.181  23.936  0.00  0.00    +0.000 A 
ATOM     11  C   UNL     1      -4.461  16.083  23.888  0.00  0.00    +0.000 C 
ATOM     12  C   UNL     1      -3.410  15.167  24.571  0.00  0.00    +0.000 C 
ATOM     13  C   UNL     1      -1.971  15.590  24.355  0.00  0.00    +0.000 C 
ATOM     14  H   UNL     1      -1.387  13.102  24.261  0.00  0.00    +0.000 HD
ENDROOT
BRANCH   1  20
ATOM     15  C   UNL     1       1.818   9.629  17.903  0.00  0.00    +0.000 C 
ATOM     16  C   UNL     1       1.108   9.999  19.155  0.00  0.00    +0.000 A 
ATOM     17  N   UNL     1       0.529  11.158  19.387  0.00  0.00    +0.000 NA
ATOM     18  C   UNL     1       0.014  11.069  20.654  0.00  0.00    +0.000 A 
ATOM     19  C   UNL     1      -0.686  12.030  21.398  0.00  0.00    +0.000 A 
ATOM     20  C   UNL     1      -1.141  11.738  22.697  0.00  0.00    +0.000 A 
ATOM     21  C   UNL     1      -0.864  10.477  23.237  0.00  0.00    +0.000 A 
ATOM     22  C   UNL     1      -0.161   9.495  22.511  0.00  0.00    +0.000 A 
ATOM     23  C   UNL     1       0.270   9.827  21.221  0.00  0.00    +0.000 A 
ATOM     24  N   UNL     1       0.981   9.170  20.244  0.00  0.00    +0.000 N 
ATOM     25  C   UNL     1       1.540   7.849  20.348  0.00  0.00    +0.000 C 
ENDBRANCH   1  20
TORSDOF 1
ENDMDL
MODEL 7
REMARK VINA RESULT:      -7.6      1.499      3.010
REMARK  Name = 
REMARK  4 active torsions:
REMARK  status: ('A' for Active; 'I' for Inactive)
REMARK    1  A    between atoms: C_1  and  C_2
REMARK    2  A    between atoms: C_6  and  N_7
REMARK    3  A    between atoms: C_18  and  C_19
REMARK    4  A    between atoms: N_23  and  C_24
REMARK                            x       y       z     vdW  Elec       q    Type
REMARK                         _______ _______ _______ _____ _____    ______ ____
ROOT
ATOM      1  N   UNL     1       2.473   7.631  18.440  0.00  0.00    +0.000 N 
ATOM      2  C   UNL     1       2.343   6.262  18.492  0.00  0.00    +0.000 C 
ATOM      3  O   UNL     1       1.476   5.728  19.189  0.00  0.00    +0.000 OA
ATOM      4  N   UNL     1       3.211   5.495  17.729  0.00  0.00    +0.000 N 
ATOM      5  C   UNL     1       3.102   4.081  17.860  0.00  0.00    +0.000 A 
ATOM      6  C   UNL     1       1.934   3.336  17.971  0.00  0.00    +0.000 A 
ATOM      7  C   UNL     1       2.041   1.982  18.265  0.00  0.00    +0.000 A 
ATOM      8  C   UNL     1       3.307   1.397  18.441  0.00  0.00    +0.000 A 
ATOM      9  C   UNL     1       4.476   2.155  18.302  0.00  0.00    +0.000 A 
ATOM     10  C   UNL     1       4.361   3.500  17.989  0.00  0.00    +0.000 A 
ATOM     11  C   UNL     1       5.424   4.557  17.901  0.00  0.00    +0.000 C 
ATOM     12  C   UNL     1       4.610   5.702  17.241  0.00  0.00    +0.000 C 
ATOM     13  C   UNL     1       5.250   7.071  17.346  0.00  0.00    +0.000 C 
ATOM     14  H   UNL     1       2.888   8.015  17.609  0.00  0.00    +0.000 HD
ENDROOT
BRANCH   1  20
ATOM     15  C   UNL     1      -1.797  13.227  20.565  0.00  0.00    +0.000 C 
ATOM     16  C   UNL     1      -0.926  12.033  20.407  0.00  0.00    +0.000 A 
ATOM     17  N   UNL     1      -0.422  11.605  19.269  0.00  0.00    +0.000 NA
ATOM     18  C   UNL     1       0.301  10.483  19.582  0.00  0.00    +0.000 A 
ATOM     19  C   UNL     1       1.026   9.629  18.738  0.00  0.00    +0.000 A 
ATOM     20  C   UNL     1       1.713   8.519  19.262  0.00  0.00    +0.000 A 
ATOM     21  C   UNL     1       1.640   8.272  20.638  0.00  0.00    +0.000 A 
ATOM     22  C   UNL     1       0.917   9.113  21.506  0.00  0.00    +0.000 A 
ATOM     23  C   UNL     1       0.252  10.209  20.943  0.00  0.00    +0.000 A 
ATOM     24  N   UNL     1      -0.549  11.210  21.441  0.00  0.00    +0.000 N 
ATOM     25  C   UNL     1      -0.964  11.359  22.811  0.00  0.00    +0.000 C 
ENDBRANCH   1  20
TORSDOF 1
ENDMDL
MODEL 8
REMARK VINA RESULT:      -7.6      1.688      3.179
REMARK  Name = 
REMARK  4 active torsions:
REMARK  status: ('A' for Active; 'I' for Inactive)
REMARK    1  A    between atoms: C_1  and  C_2
REMARK    2  A    between atoms: C_6  and  N_7
REMARK    3  A    between atoms: C_18  and  C_19
REMARK    4  A    between atoms: N_23  and  C_24
REMARK                            x       y       z     vdW  Elec       q    Type
REMARK                         _______ _______ _______ _____ _____    ______ ____
ROOT
ATOM      1  N   UNL     1       2.159   7.727  18.488  0.00  0.00    +0.000 N 
ATOM      2  C   UNL     1       2.029   6.609  19.279  0.00  0.00    +0.000 C 
ATOM      3  O   UNL     1       1.456   6.661  20.371  0.00  0.00    +0.000 OA
ATOM      4  N   UNL     1       2.554   5.414  18.809  0.00  0.00    +0.000 N 
ATOM      5  C   UNL     1       2.470   4.290  19.680  0.00  0.00    +0.000 A 
ATOM      6  C   UNL     1       1.403   3.941  20.501  0.00  0.00    +0.000 A 
ATOM      7  C   UNL     1       1.581   2.904  21.407  0.00  0.00    +0.000 A 
ATOM      8  C   UNL     1       2.814   2.234  21.480  0.00  0.00    +0.000 A 
ATOM      9  C   UNL     1       3.873   2.580  20.631  0.00  0.00    +0.000 A 
ATOM     10  C   UNL     1       3.680   3.603  19.715  0.00  0.00    +0.000 A 
ATOM     11  C   UNL     1       4.664   4.251  18.783  0.00  0.00    +0.000 C 
ATOM     12  C   UNL     1       3.691   5.076  17.898  0.00  0.00    +0.000 C 
ATOM     13  C   UNL     1       4.354   6.168  17.084  0.00  0.00    +0.000 C 
ATOM     14  H   UNL     1       2.258   7.574  17.500  0.00  0.00    +0.000 HD
ENDROOT
BRANCH   1  20
ATOM     15  C   UNL     1      -0.733  13.180  22.485  0.00  0.00    +0.000 C 
ATOM     16  C   UNL     1      -0.085  12.280  21.496  0.00  0.00    +0.000 A 
ATOM     17  N   UNL     1       0.014  10.972  21.609  0.00  0.00    +0.000 NA
ATOM     18  C   UNL     1       0.686  10.553  20.490  0.00  0.00    +0.000 A 
ATOM     19  C   UNL     1       1.071   9.256  20.118  0.00  0.00    +0.000 A 
ATOM     20  C   UNL     1       1.758   9.032  18.911  0.00  0.00    +0.000 A 
ATOM     21  C   UNL     1       2.066  10.131  18.099  0.00  0.00    +0.000 A 
ATOM     22  C   UNL     1       1.691  11.442  18.451  0.00  0.00    +0.000 A 
ATOM     23  C   UNL     1       1.006  11.619  19.659  0.00  0.00    +0.000 A 
ATOM     24  N   UNL     1       0.511  12.710  20.335  0.00  0.00    +0.000 N 
ATOM     25  C   UNL     1       0.627  14.084  19.924  0.00  0.00    +0.000 C 
ENDBRANCH   1  20
TORSDOF 1
ENDMDL
MODEL 9
REMARK VINA RESULT:      -7.5      1.958      8.331
REMARK  Name = 
REMARK  4 active torsions:
REMARK  status: ('A' for Active; 'I' for Inactive)
REMARK    1  A    between atoms: C_1  and  C_2
REMARK    2  A    between atoms: C_6  and  N_7
REMARK    3  A    between atoms: C_18  and  C_19
REMARK    4  A    between atoms: N_23  and  C_24
REMARK                            x       y       z     vdW  Elec       q    Type
REMARK                         _______ _______ _______ _____ _____    ______ ____
ROOT
ATOM      1  N   UNL     1       1.465   9.821  19.842  0.00  0.00    +0.000 N 
ATOM      2  C   UNL     1       0.440  10.208  20.673  0.00  0.00    +0.000 C 
ATOM      3  O   UNL     1      -0.212   9.380  21.314  0.00  0.00    +0.000 OA
ATOM      4  N   UNL     1       0.164  11.564  20.779  0.00  0.00    +0.000 N 
ATOM      5  C   UNL     1      -0.950  11.930  21.588  0.00  0.00    +0.000 A 
ATOM      6  C   UNL     1      -1.326  11.369  22.804  0.00  0.00    +0.000 A 
ATOM      7  C   UNL     1      -2.543  11.747  23.355  0.00  0.00    +0.000 A 
ATOM      8  C   UNL     1      -3.361  12.676  22.689  0.00  0.00    +0.000 A 
ATOM      9  C   UNL     1      -2.959  13.251  21.478  0.00  0.00    +0.000 A 
ATOM     10  C   UNL     1      -1.734  12.883  20.944  0.00  0.00    +0.000 A 
ATOM     11  C   UNL     1      -1.119  13.244  19.622  0.00  0.00    +0.000 C 
ATOM     12  C   UNL     1       0.326  12.724  19.848  0.00  0.00    +0.000 C 
ATOM     13  C   UNL     1       1.144  12.565  18.583  0.00  0.00    +0.000 C 
ATOM     14  H   UNL     1       2.187  10.498  19.668  0.00  0.00    +0.000 HD
ENDROOT
BRANCH   1  20
ATOM     15  C   UNL     1       2.538   2.602  20.734  0.00  0.00    +0.000 C 
ATOM     16  C   UNL     1       2.399   4.013  20.290  0.00  0.00    +0.000 A 
ATOM     17  N   UNL     1       2.051   5.021  21.061  0.00  0.00    +0.000 NA
ATOM     18  C   UNL     1       2.039   6.124  20.247  0.00  0.00    +0.000 A 
ATOM     19  C   UNL     1       1.718   7.454  20.557  0.00  0.00    +0.000 A 
ATOM     20  C   UNL     1       1.772   8.452  19.567  0.00  0.00    +0.000 A 
ATOM     21  C   UNL     1       2.131   8.088  18.264  0.00  0.00    +0.000 A 
ATOM     22  C   UNL     1       2.455   6.759  17.927  0.00  0.00    +0.000 A 
ATOM     23  C   UNL     1       2.393   5.798  18.944  0.00  0.00    +0.000 A 
ATOM     24  N   UNL     1       2.605   4.441  19.000  0.00  0.00    +0.000 N 
ATOM     25  C   UNL     1       2.948   3.591  17.891  0.00  0.00    +0.000 C 
ENDBRANCH   1  20
TORSDOF 1
ENDMDL
