MODEL 1
REMARK VINA RESULT:      -8.4      0.000      0.000
REMARK  Name = 
REMARK  5 active torsions:
REMARK  status: ('A' for Active; 'I' for Inactive)
REMARK    1  A    between atoms: C_1  and  C_2
REMARK    2  A    between atoms: C_2  and  O_3
REMARK    3  A    between atoms: O_3  and  C_4
REMARK    4  A    between atoms: C_4  and  C_6
REMARK    5  A    between atoms: N_15  and  C_16
REMARK                            x       y       z     vdW  Elec       q    Type
REMARK                         _______ _______ _______ _____ _____    ______ ____
ROOT
ATOM      1  C   UNL     1       5.614   4.937  16.984  0.00  0.00    +0.000 A 
ATOM      2  C   UNL     1       4.927   4.140  17.818  0.00  0.00    +0.000 A 
ATOM      3  C   UNL     1       3.927   4.670  18.699  0.00  0.00    +0.000 A 
ATOM      4  C   UNL     1       3.668   5.989  18.660  0.00  0.00    +0.000 A 
ATOM      5  O   UNL     1       4.369   6.864  17.807  0.00  0.00    +0.000 OA
ATOM      6  C   UNL     1       5.354   6.394  16.968  0.00  0.00    +0.000 A 
ATOM      7  O   UNL     1       5.960   7.163  16.232  0.00  0.00    +0.000 OA
ATOM      8  C   UNL     1       2.679   6.556  19.508  0.00  0.00    +0.000 A 
ATOM      9  C   UNL     1       2.193   7.843  19.601  0.00  0.00    +0.000 A 
ATOM     10  N   UNL     1       1.251   7.875  20.620  0.00  0.00    +0.000 N 
ATOM     11  C   UNL     1       1.146   6.595  21.138  0.00  0.00    +0.000 A 
ATOM     12  C   UNL     1       1.983   5.757  20.442  0.00  0.00    +0.000 A 
ATOM     13  C   UNL     1       2.152   4.285  20.574  0.00  0.00    +0.000 C 
ATOM     14  C   UNL     1       3.226   3.701  19.632  0.00  0.00    +0.000 C 
ENDROOT
BRANCH  10  15
ATOM     15  C   UNL     1       0.471   8.983  21.050  0.00  0.00    +0.000 A 
ATOM     16  C   UNL     1       0.121   9.134  22.395  0.00  0.00    +0.000 A 
ATOM     17  C   UNL     1      -0.549  10.290  22.810  0.00  0.00    +0.000 A 
ATOM     18  C   UNL     1      -0.901  11.274  21.884  0.00  0.00    +0.000 A 
ATOM     19  C   UNL     1      -0.594  11.105  20.538  0.00  0.00    +0.000 A 
ATOM     20  C   UNL     1       0.098   9.967  20.121  0.00  0.00    +0.000 A 
ENDBRANCH  10  15
BRANCH   1  21
ATOM     21  C   UNL     1       6.646   4.250  16.181  0.00  0.00    +0.000 C 
ATOM     22  O   UNL     1       7.846   4.464  16.310  0.00  0.00    +0.000 OA
BRANCH  21  23
ATOM     23  O   UNL     1       6.087   3.512  15.199  0.00  0.00    +0.000 OA
BRANCH  23  25
ATOM     24  C   UNL     1       6.159   3.542  12.821  0.00  0.00    +0.000 C 
ATOM     25  C   UNL     1       5.633   4.250  14.055  0.00  0.00    +0.000 C 
ENDBRANCH  23  25
ENDBRANCH  21  23
ENDBRANCH   1  21
TORSDOF 4
ENDMDL
MODEL 2
REMARK VINA RESULT:      -8.3      0.718      1.235
REMARK  Name = 
REMARK  5 active torsions:
REMARK  status: ('A' for Active; 'I' for Inactive)
REMARK    1  A    between atoms: C_1  and  C_2
REMARK    2  A    between atoms: C_2  and  O_3
REMARK    3  A    between atoms: O_3  and  C_4
REMARK    4  A    between atoms: C_4  and  C_6
REMARK    5  A    between atoms: N_15  and  C_16
REMARK                            x       y       z     vdW  Elec       q    Type
REMARK                         _______ _______ _______ _____ _____    ______ ____
ROOT
ATOM      1  C   UNL     1       5.228   4.980  16.132  0.00  0.00    +0.000 A 
ATOM      2  C   UNL     1       4.733   4.173  17.083  0.00  0.00    +0.000 A 
ATOM      3  C   UNL     1       3.888   4.680  18.125  0.00  0.00    +0.000 A 
ATOM      4  C   UNL     1       3.576   5.988  18.120  0.00  0.00    +0.000 A 
ATOM      5  O   UNL     1       4.078   6.874  17.147  0.00  0.00    +0.000 OA
ATOM      6  C   UNL     1       4.914   6.426  16.150  0.00  0.00    +0.000 A 
ATOM      7  O   UNL     1       5.348   7.205  15.309  0.00  0.00    +0.000 OA
ATOM      8  C   UNL     1       2.735   6.533  19.128  0.00  0.00    +0.000 A 
ATOM      9  C   UNL     1       2.224   7.803  19.294  0.00  0.00    +0.000 A 
ATOM     10  N   UNL     1       1.480   7.818  20.466  0.00  0.00    +0.000 N 
ATOM     11  C   UNL     1       1.519   6.543  21.006  0.00  0.00    +0.000 A 
ATOM     12  C   UNL     1       2.249   5.725  20.179  0.00  0.00    +0.000 A 
ATOM     13  C   UNL     1       2.495   4.263  20.293  0.00  0.00    +0.000 C 
ATOM     14  C   UNL     1       3.404   3.702  19.179  0.00  0.00    +0.000 C 
ENDROOT
BRANCH  10  15
ATOM     15  C   UNL     1       0.748   8.903  21.019  0.00  0.00    +0.000 A 
ATOM     16  C   UNL     1       0.321   9.964  20.215  0.00  0.00    +0.000 A 
ATOM     17  C   UNL     1      -0.494  10.962  20.761  0.00  0.00    +0.000 A 
ATOM     18  C   UNL     1      -0.853  10.922  22.110  0.00  0.00    +0.000 A 
ATOM     19  C   UNL     1      -0.393   9.890  22.923  0.00  0.00    +0.000 A 
ATOM     20  C   UNL     1       0.398   8.878  22.380  0.00  0.00    +0.000 A 
ENDBRANCH  10  15
BRANCH   1  21
ATOM     21  C   UNL     1       6.125   4.318  15.163  0.00  0.00    +0.000 C 
ATOM     22  O   UNL     1       7.343   4.278  15.297  0.00  0.00    +0.000 OA
BRANCH  21  23
ATOM     23  O   UNL     1       5.449   3.933  14.059  0.00  0.00    +0.000 OA
BRANCH  23  25
ATOM     24  C   UNL     1       5.339   3.099  11.834  0.00  0.00    +0.000 C 
ATOM     25  C   UNL     1       6.259   3.644  12.910  0.00  0.00    +0.000 C 
ENDBRANCH  23  25
ENDBRANCH  21  23
ENDBRANCH   1  21
TORSDOF 4
ENDMDL
MODEL 3
REMARK VINA RESULT:      -7.9      2.881      4.239
REMARK  Name = 
REMARK  5 active torsions:
REMARK  status: ('A' for Active; 'I' for Inactive)
REMARK    1  A    between atoms: C_1  and  C_2
REMARK    2  A    between atoms: C_2  and  O_3
REMARK    3  A    between atoms: O_3  and  C_4
REMARK    4  A    between atoms: C_4  and  C_6
REMARK    5  A    between atoms: N_15  and  C_16
REMARK                            x       y       z     vdW  Elec       q    Type
REMARK                         _______ _______ _______ _____ _____    ______ ____
ROOT
ATOM      1  C   UNL     1       3.285   4.895  19.515  0.00  0.00    +0.000 A 
ATOM      2  C   UNL     1       3.427   5.854  18.587  0.00  0.00    +0.000 A 
ATOM      3  C   UNL     1       2.731   7.104  18.694  0.00  0.00    +0.000 A 
ATOM      4  C   UNL     1       1.943   7.311  19.764  0.00  0.00    +0.000 A 
ATOM      5  O   UNL     1       1.758   6.331  20.759  0.00  0.00    +0.000 OA
ATOM      6  C   UNL     1       2.389   5.111  20.673  0.00  0.00    +0.000 A 
ATOM      7  O   UNL     1       2.219   4.263  21.542  0.00  0.00    +0.000 OA
ATOM      8  C   UNL     1       1.242   8.538  19.917  0.00  0.00    +0.000 A 
ATOM      9  C   UNL     1       0.446   9.006  20.940  0.00  0.00    +0.000 A 
ATOM     10  N   UNL     1      -0.028  10.260  20.579  0.00  0.00    +0.000 N 
ATOM     11  C   UNL     1       0.501  10.567  19.336  0.00  0.00    +0.000 A 
ATOM     12  C   UNL     1       1.319   9.543  18.928  0.00  0.00    +0.000 A 
ATOM     13  C   UNL     1       2.169   9.455  17.710  0.00  0.00    +0.000 C 
ATOM     14  C   UNL     1       2.924   8.115  17.581  0.00  0.00    +0.000 C 
ENDROOT
BRANCH  10  15
ATOM     15  C   UNL     1      -0.859  11.129  21.336  0.00  0.00    +0.000 A 
ATOM     16  C   UNL     1      -1.551  12.176  20.721  0.00  0.00    +0.000 A 
ATOM     17  C   UNL     1      -2.450  12.945  21.468  0.00  0.00    +0.000 A 
ATOM     18  C   UNL     1      -2.630  12.696  22.830  0.00  0.00    +0.000 A 
ATOM     19  C   UNL     1      -1.909  11.684  23.455  0.00  0.00    +0.000 A 
ATOM     20  C   UNL     1      -1.031  10.896  22.711  0.00  0.00    +0.000 A 
ENDBRANCH  10  15
BRANCH   1  21
ATOM     21  C   UNL     1       4.023   3.647  19.234  0.00  0.00    +0.000 C 
ATOM     22  O   UNL     1       5.153   3.428  19.657  0.00  0.00    +0.000 OA
BRANCH  21  23
ATOM     23  O   UNL     1       3.368   2.887  18.331  0.00  0.00    +0.000 OA
BRANCH  23  25
ATOM     24  C   UNL     1       1.092   2.276  18.662  0.00  0.00    +0.000 C 
ATOM     25  C   UNL     1       2.534   1.857  18.882  0.00  0.00    +0.000 C 
ENDBRANCH  23  25
ENDBRANCH  21  23
ENDBRANCH   1  21
TORSDOF 4
ENDMDL
MODEL 4
REMARK VINA RESULT:      -7.6      1.470      1.916
REMARK  Name = 
REMARK  5 active torsions:
REMARK  status: ('A' for Active; 'I' for Inactive)
REMARK    1  A    between atoms: C_1  and  C_2
REMARK    2  A    between atoms: C_2  and  O_3
REMARK    3  A    between atoms: O_3  and  C_4
REMARK    4  A    between atoms: C_4  and  C_6
REMARK    5  A    between atoms: N_15  and  C_16
REMARK                            x       y       z     vdW  Elec       q    Type
REMARK                         _______ _______ _______ _____ _____    ______ ____
ROOT
ATOM      1  C   UNL     1       5.400   5.234  16.802  0.00  0.00    +0.000 A 
ATOM      2  C   UNL     1       4.811   4.881  17.955  0.00  0.00    +0.000 A 
ATOM      3  C   UNL     1       3.839   5.728  18.585  0.00  0.00    +0.000 A 
ATOM      4  C   UNL     1       3.506   6.883  17.983  0.00  0.00    +0.000 A 
ATOM      5  O   UNL     1       4.103   7.298  16.777  0.00  0.00    +0.000 OA
ATOM      6  C   UNL     1       5.059   6.524  16.160  0.00  0.00    +0.000 A 
ATOM      7  O   UNL     1       5.575   6.894  15.112  0.00  0.00    +0.000 OA
ATOM      8  C   UNL     1       2.541   7.748  18.566  0.00  0.00    +0.000 A 
ATOM      9  C   UNL     1       1.991   8.928  18.114  0.00  0.00    +0.000 A 
ATOM     10  N   UNL     1       1.112   9.394  19.083  0.00  0.00    +0.000 N 
ATOM     11  C   UNL     1       1.111   8.480  20.124  0.00  0.00    +0.000 A 
ATOM     12  C   UNL     1       1.949   7.437  19.810  0.00  0.00    +0.000 A 
ATOM     13  C   UNL     1       2.207   6.185  20.570  0.00  0.00    +0.000 C 
ATOM     14  C   UNL     1       3.252   5.265  19.905  0.00  0.00    +0.000 C 
ENDROOT
BRANCH  10  15
ATOM     15  C   UNL     1       0.300  10.559  19.036  0.00  0.00    +0.000 A 
ATOM     16  C   UNL     1      -1.085  10.475  19.208  0.00  0.00    +0.000 A 
ATOM     17  C   UNL     1      -1.847  11.647  19.271  0.00  0.00    +0.000 A 
ATOM     18  C   UNL     1      -1.238  12.894  19.126  0.00  0.00    +0.000 A 
ATOM     19  C   UNL     1       0.135  12.979  18.910  0.00  0.00    +0.000 A 
ATOM     20  C   UNL     1       0.904  11.816  18.872  0.00  0.00    +0.000 A 
ENDBRANCH  10  15
BRANCH   1  21
ATOM     21  C   UNL     1       6.418   4.284  16.310  0.00  0.00    +0.000 C 
ATOM     22  O   UNL     1       7.584   4.298  16.685  0.00  0.00    +0.000 OA
BRANCH  21  23
ATOM     23  O   UNL     1       5.936   3.541  15.291  0.00  0.00    +0.000 OA
BRANCH  23  25
ATOM     24  C   UNL     1       5.336   3.711  12.994  0.00  0.00    +0.000 C 
ATOM     25  C   UNL     1       6.468   3.852  13.995  0.00  0.00    +0.000 C 
ENDBRANCH  23  25
ENDBRANCH  21  23
ENDBRANCH   1  21
TORSDOF 4
ENDMDL
MODEL 5
REMARK VINA RESULT:      -7.6      2.591      8.441
REMARK  Name = 
REMARK  5 active torsions:
REMARK  status: ('A' for Active; 'I' for Inactive)
REMARK    1  A    between atoms: C_1  and  C_2
REMARK    2  A    between atoms: C_2  and  O_3
REMARK    3  A    between atoms: O_3  and  C_4
REMARK    4  A    between atoms: C_4  and  C_6
REMARK    5  A    between atoms: N_15  and  C_16
REMARK                            x       y       z     vdW  Elec       q    Type
REMARK                         _______ _______ _______ _____ _____    ______ ____
ROOT
ATOM      1  C   UNL     1       1.841   8.416  19.495  0.00  0.00    +0.000 A 
ATOM      2  C   UNL     1       2.232   7.232  19.990  0.00  0.00    +0.000 A 
ATOM      3  C   UNL     1       3.019   6.322  19.210  0.00  0.00    +0.000 A 
ATOM      4  C   UNL     1       3.384   6.688  17.968  0.00  0.00    +0.000 A 
ATOM      5  O   UNL     1       2.992   7.917  17.405  0.00  0.00    +0.000 OA
ATOM      6  C   UNL     1       2.212   8.802  18.115  0.00  0.00    +0.000 A 
ATOM      7  O   UNL     1       1.873   9.869  17.615  0.00  0.00    +0.000 OA
ATOM      8  C   UNL     1       4.172   5.821  17.163  0.00  0.00    +0.000 A 
ATOM      9  C   UNL     1       4.721   5.997  15.911  0.00  0.00    +0.000 A 
ATOM     10  N   UNL     1       5.379   4.826  15.560  0.00  0.00    +0.000 N 
ATOM     11  C   UNL     1       5.247   3.938  16.614  0.00  0.00    +0.000 A 
ATOM     12  C   UNL     1       4.547   4.542  17.629  0.00  0.00    +0.000 A 
ATOM     13  C   UNL     1       4.233   4.021  18.986  0.00  0.00    +0.000 C 
ATOM     14  C   UNL     1       3.385   4.990  19.837  0.00  0.00    +0.000 C 
ENDROOT
BRANCH  10  15
ATOM     15  C   UNL     1       6.112   4.561  14.372  0.00  0.00    +0.000 A 
ATOM     16  C   UNL     1       5.660   3.618  13.445  0.00  0.00    +0.000 A 
ATOM     17  C   UNL     1       6.339   3.458  12.232  0.00  0.00    +0.000 A 
ATOM     18  C   UNL     1       7.484   4.208  11.959  0.00  0.00    +0.000 A 
ATOM     19  C   UNL     1       7.963   5.116  12.899  0.00  0.00    +0.000 A 
ATOM     20  C   UNL     1       7.276   5.300  14.100  0.00  0.00    +0.000 A 
ENDBRANCH  10  15
BRANCH   1  21
ATOM     21  C   UNL     1       0.991   9.216  20.399  0.00  0.00    +0.000 C 
ATOM     22  O   UNL     1       0.702  10.388  20.186  0.00  0.00    +0.000 OA
BRANCH  21  23
ATOM     23  O   UNL     1       0.734   8.546  21.544  0.00  0.00    +0.000 OA
BRANCH  23  25
ATOM     24  C   UNL     1      -0.601   9.709  23.133  0.00  0.00    +0.000 C 
ATOM     25  C   UNL     1       0.815   9.326  22.746  0.00  0.00    +0.000 C 
ENDBRANCH  23  25
ENDBRANCH  21  23
ENDBRANCH   1  21
TORSDOF 4
ENDMDL
MODEL 6
REMARK VINA RESULT:      -7.6      4.084      9.370
REMARK  Name = 
REMARK  5 active torsions:
REMARK  status: ('A' for Active; 'I' for Inactive)
REMARK    1  A    between atoms: C_1  and  C_2
REMARK    2  A    between atoms: C_2  and  O_3
REMARK    3  A    between atoms: O_3  and  C_4
REMARK    4  A    between atoms: C_4  and  C_6
REMARK    5  A    between atoms: N_15  and  C_16
REMARK                            x       y       z     vdW  Elec       q    Type
REMARK                         _______ _______ _______ _____ _____    ______ ____
ROOT
ATOM      1  C   UNL     1      -0.504  11.277  22.227  0.00  0.00    +0.000 A 
ATOM      2  C   UNL     1      -0.240  11.587  20.949  0.00  0.00    +0.000 A 
ATOM      3  C   UNL     1       0.463  10.678  20.091  0.00  0.00    +0.000 A 
ATOM      4  C   UNL     1       0.838   9.486  20.587  0.00  0.00    +0.000 A 
ATOM      5  O   UNL     1       0.590   9.119  21.924  0.00  0.00    +0.000 OA
ATOM      6  C   UNL     1      -0.058   9.979  22.782  0.00  0.00    +0.000 A 
ATOM      7  O   UNL     1      -0.267   9.653  23.945  0.00  0.00    +0.000 OA
ATOM      8  C   UNL     1       1.529   8.550  19.770  0.00  0.00    +0.000 A 
ATOM      9  C   UNL     1       1.947   7.261  20.024  0.00  0.00    +0.000 A 
ATOM     10  N   UNL     1       2.608   6.792  18.896  0.00  0.00    +0.000 N 
ATOM     11  C   UNL     1       2.573   7.795  17.941  0.00  0.00    +0.000 A 
ATOM     12  C   UNL     1       1.878   8.869  18.440  0.00  0.00    +0.000 A 
ATOM     13  C   UNL     1       1.506  10.138  17.759  0.00  0.00    +0.000 C 
ATOM     14  C   UNL     1       0.749  11.127  18.670  0.00  0.00    +0.000 C 
ENDROOT
BRANCH  10  15
ATOM     15  C   UNL     1       3.180   5.508  18.692  0.00  0.00    +0.000 A 
ATOM     16  C   UNL     1       2.545   4.559  17.885  0.00  0.00    +0.000 A 
ATOM     17  C   UNL     1       3.185   3.346  17.609  0.00  0.00    +0.000 A 
ATOM     18  C   UNL     1       4.435   3.064  18.163  0.00  0.00    +0.000 A 
ATOM     19  C   UNL     1       5.049   3.988  19.003  0.00  0.00    +0.000 A 
ATOM     20  C   UNL     1       4.430   5.211  19.261  0.00  0.00    +0.000 A 
ENDBRANCH  10  15
BRANCH   1  21
ATOM     21  C   UNL     1      -1.185  12.338  22.995  0.00  0.00    +0.000 C 
ATOM     22  O   UNL     1      -0.594  13.290  23.492  0.00  0.00    +0.000 OA
BRANCH  21  23
ATOM     23  O   UNL     1      -2.481  12.025  23.212  0.00  0.00    +0.000 OA
BRANCH  23  25
ATOM     24  C   UNL     1      -4.323  12.451  24.656  0.00  0.00    +0.000 C 
ATOM     25  C   UNL     1      -3.290  13.085  23.744  0.00  0.00    +0.000 C 
ENDBRANCH  23  25
ENDBRANCH  21  23
ENDBRANCH   1  21
TORSDOF 4
ENDMDL
MODEL 7
REMARK VINA RESULT:      -7.6      2.985      4.284
REMARK  Name = 
REMARK  5 active torsions:
REMARK  status: ('A' for Active; 'I' for Inactive)
REMARK    1  A    between atoms: C_1  and  C_2
REMARK    2  A    between atoms: C_2  and  O_3
REMARK    3  A    between atoms: O_3  and  C_4
REMARK    4  A    between atoms: C_4  and  C_6
REMARK    5  A    between atoms: N_15  and  C_16
REMARK                            x       y       z     vdW  Elec       q    Type
REMARK                         _______ _______ _______ _____ _____    ______ ____
ROOT
ATOM      1  C   UNL     1       3.635   3.180  20.016  0.00  0.00    +0.000 A 
ATOM      2  C   UNL     1       3.896   4.047  19.026  0.00  0.00    +0.000 A 
ATOM      3  C   UNL     1       3.324   5.362  19.017  0.00  0.00    +0.000 A 
ATOM      4  C   UNL     1       2.531   5.726  20.041  0.00  0.00    +0.000 A 
ATOM      5  O   UNL     1       2.223   4.848  21.098  0.00  0.00    +0.000 OA
ATOM      6  C   UNL     1       2.733   3.569  21.124  0.00  0.00    +0.000 A 
ATOM      7  O   UNL     1       2.457   2.811  22.046  0.00  0.00    +0.000 OA
ATOM      8  C   UNL     1       1.950   7.023  20.078  0.00  0.00    +0.000 A 
ATOM      9  C   UNL     1       1.177   7.642  21.036  0.00  0.00    +0.000 A 
ATOM     10  N   UNL     1       0.839   8.905  20.567  0.00  0.00    +0.000 N 
ATOM     11  C   UNL     1       1.429   9.064  19.324  0.00  0.00    +0.000 A 
ATOM     12  C   UNL     1       2.153   7.937  19.021  0.00  0.00    +0.000 A 
ATOM     13  C   UNL     1       3.024   7.675  17.844  0.00  0.00    +0.000 C 
ATOM     14  C   UNL     1       3.645   6.263  17.839  0.00  0.00    +0.000 C 
ENDROOT
BRANCH  10  15
ATOM     15  C   UNL     1       0.078   9.906  21.230  0.00  0.00    +0.000 A 
ATOM     16  C   UNL     1      -0.471   9.670  22.494  0.00  0.00    +0.000 A 
ATOM     17  C   UNL     1      -1.118  10.709  23.172  0.00  0.00    +0.000 A 
ATOM     18  C   UNL     1      -1.250  11.965  22.579  0.00  0.00    +0.000 A 
ATOM     19  C   UNL     1      -0.744  12.190  21.302  0.00  0.00    +0.000 A 
ATOM     20  C   UNL     1      -0.074  11.167  20.631  0.00  0.00    +0.000 A 
ENDBRANCH  10  15
BRANCH   1  21
ATOM     21  C   UNL     1       4.254   1.849  19.854  0.00  0.00    +0.000 C 
ATOM     22  O   UNL     1       3.927   1.062  18.974  0.00  0.00    +0.000 OA
BRANCH  21  23
ATOM     23  O   UNL     1       5.076   1.567  20.887  0.00  0.00    +0.000 OA
BRANCH  23  25
ATOM     24  C   UNL     1       6.288   0.044  22.256  0.00  0.00    +0.000 C 
ATOM     25  C   UNL     1       5.569   0.219  20.932  0.00  0.00    +0.000 C 
ENDBRANCH  23  25
ENDBRANCH  21  23
ENDBRANCH   1  21
TORSDOF 4
ENDMDL
MODEL 8
REMARK VINA RESULT:      -7.6      0.960      1.860
REMARK  Name = 
REMARK  5 active torsions:
REMARK  status: ('A' for Active; 'I' for Inactive)
REMARK    1  A    between atoms: C_1  and  C_2
REMARK    2  A    between atoms: C_2  and  O_3
REMARK    3  A    between atoms: O_3  and  C_4
REMARK    4  A    between atoms: C_4  and  C_6
REMARK    5  A    between atoms: N_15  and  C_16
REMARK                            x       y       z     vdW  Elec       q    Type
REMARK                         _______ _______ _______ _____ _____    ______ ____
ROOT
ATOM      1  C   UNL     1       4.733   5.070  16.425  0.00  0.00    +0.000 A 
ATOM      2  C   UNL     1       4.122   4.305  17.342  0.00  0.00    +0.000 A 
ATOM      3  C   UNL     1       3.307   4.883  18.371  0.00  0.00    +0.000 A 
ATOM      4  C   UNL     1       3.144   6.218  18.388  0.00  0.00    +0.000 A 
ATOM      5  O   UNL     1       3.771   7.061  17.451  0.00  0.00    +0.000 OA
ATOM      6  C   UNL     1       4.582   6.542  16.467  0.00  0.00    +0.000 A 
ATOM      7  O   UNL     1       5.126   7.283  15.657  0.00  0.00    +0.000 OA
ATOM      8  C   UNL     1       2.338   6.833  19.385  0.00  0.00    +0.000 A 
ATOM      9  C   UNL     1       1.968   8.149  19.566  0.00  0.00    +0.000 A 
ATOM     10  N   UNL     1       1.194   8.224  20.716  0.00  0.00    +0.000 N 
ATOM     11  C   UNL     1       1.074   6.943  21.227  0.00  0.00    +0.000 A 
ATOM     12  C   UNL     1       1.732   6.064  20.402  0.00  0.00    +0.000 A 
ATOM     13  C   UNL     1       1.810   4.581  20.488  0.00  0.00    +0.000 C 
ATOM     14  C   UNL     1       2.684   3.945  19.388  0.00  0.00    +0.000 C 
ENDROOT
BRANCH  10  15
ATOM     15  C   UNL     1       0.571   9.374  21.274  0.00  0.00    +0.000 A 
ATOM     16  C   UNL     1       0.392  10.532  20.512  0.00  0.00    +0.000 A 
ATOM     17  C   UNL     1      -0.324  11.608  21.048  0.00  0.00    +0.000 A 
ATOM     18  C   UNL     1      -0.828  11.544  22.348  0.00  0.00    +0.000 A 
ATOM     19  C   UNL     1      -0.613  10.409  23.124  0.00  0.00    +0.000 A 
ATOM     20  C   UNL     1       0.078   9.323  22.588  0.00  0.00    +0.000 A 
ENDBRANCH  10  15
BRANCH   1  21
ATOM     21  C   UNL     1       5.579   4.331  15.466  0.00  0.00    +0.000 C 
ATOM     22  O   UNL     1       5.242   4.106  14.310  0.00  0.00    +0.000 OA
BRANCH  21  23
ATOM     23  O   UNL     1       6.661   3.805  16.079  0.00  0.00    +0.000 OA
BRANCH  23  25
ATOM     24  C   UNL     1       7.707   4.642  18.046  0.00  0.00    +0.000 C 
ATOM     25  C   UNL     1       7.635   4.755  16.534  0.00  0.00    +0.000 C 
ENDBRANCH  23  25
ENDBRANCH  21  23
ENDBRANCH   1  21
TORSDOF 4
ENDMDL
MODEL 9
REMARK VINA RESULT:      -7.5      3.997      9.029
REMARK  Name = 
REMARK  5 active torsions:
REMARK  status: ('A' for Active; 'I' for Inactive)
REMARK    1  A    between atoms: C_1  and  C_2
REMARK    2  A    between atoms: C_2  and  O_3
REMARK    3  A    between atoms: O_3  and  C_4
REMARK    4  A    between atoms: C_4  and  C_6
REMARK    5  A    between atoms: N_15  and  C_16
REMARK                            x       y       z     vdW  Elec       q    Type
REMARK                         _______ _______ _______ _____ _____    ______ ____
ROOT
ATOM      1  C   UNL     1      -0.228  11.142  22.010  0.00  0.00    +0.000 A 
ATOM      2  C   UNL     1       0.125  11.321  20.728  0.00  0.00    +0.000 A 
ATOM      3  C   UNL     1       0.780  10.284  19.984  0.00  0.00    +0.000 A 
ATOM      4  C   UNL     1       1.015   9.107  20.592  0.00  0.00    +0.000 A 
ATOM      5  O   UNL     1       0.669   8.877  21.937  0.00  0.00    +0.000 OA
ATOM      6  C   UNL     1       0.065   9.859  22.688  0.00  0.00    +0.000 A 
ATOM      7  O   UNL     1      -0.230   9.650  23.859  0.00  0.00    +0.000 OA
ATOM      8  C   UNL     1       1.653   8.048  19.890  0.00  0.00    +0.000 A 
ATOM      9  C   UNL     1       1.934   6.752  20.265  0.00  0.00    +0.000 A 
ATOM     10  N   UNL     1       2.601   6.134  19.216  0.00  0.00    +0.000 N 
ATOM     11  C   UNL     1       2.709   7.054  18.186  0.00  0.00    +0.000 A 
ATOM     12  C   UNL     1       2.095   8.224  18.560  0.00  0.00    +0.000 A 
ATOM     13  C   UNL     1       1.878   9.461  17.764  0.00  0.00    +0.000 C 
ATOM     14  C   UNL     1       1.175  10.587  18.552  0.00  0.00    +0.000 C 
ENDROOT
BRANCH  10  15
ATOM     15  C   UNL     1       3.059   4.791  19.145  0.00  0.00    +0.000 A 
ATOM     16  C   UNL     1       2.957   3.939  20.249  0.00  0.00    +0.000 A 
ATOM     17  C   UNL     1       3.309   2.591  20.118  0.00  0.00    +0.000 A 
ATOM     18  C   UNL     1       3.794   2.102  18.903  0.00  0.00    +0.000 A 
ATOM     19  C   UNL     1       3.939   2.958  17.815  0.00  0.00    +0.000 A 
ATOM     20  C   UNL     1       3.565   4.297  17.931  0.00  0.00    +0.000 A 
ENDBRANCH  10  15
BRANCH   1  21
ATOM     21  C   UNL     1      -0.842  12.320  22.654  0.00  0.00    +0.000 C 
ATOM     22  O   UNL     1      -0.193  13.281  23.051  0.00  0.00    +0.000 OA
BRANCH  21  23
ATOM     23  O   UNL     1      -2.155  12.114  22.894  0.00  0.00    +0.000 OA
BRANCH  23  25
ATOM     24  C   UNL     1      -4.396  12.869  22.623  0.00  0.00    +0.000 C 
ATOM     25  C   UNL     1      -3.055  12.692  21.936  0.00  0.00    +0.000 C 
ENDBRANCH  23  25
ENDBRANCH  21  23
ENDBRANCH   1  21
TORSDOF 4
ENDMDL
