MODEL 1
REMARK VINA RESULT:      -8.7      0.000      0.000
REMARK  Name = 
REMARK  8 active torsions:
REMARK  status: ('A' for Active; 'I' for Inactive)
REMARK    1  A    between atoms: C_2  and  C_3
REMARK    2  A    between atoms: C_5  and  C_6
REMARK    3  A    between atoms: N_11  and  C_12
REMARK    4  A    between atoms: C_15  and  O_16
REMARK    5  A    between atoms: O_16  and  C_17
REMARK    6  A    between atoms: C_17  and  C_18
REMARK    7  A    between atoms: C_18  and  N_19
REMARK    8  A    between atoms: C_30  and  N_31
REMARK                            x       y       z     vdW  Elec       q    Type
REMARK                         _______ _______ _______ _____ _____    ______ ____
ROOT
ATOM      1  C   UNL     1       2.338   5.568  20.086  0.00  0.00    +0.000 A 
ATOM      2  C   UNL     1       1.592   4.628  20.768  0.00  0.00    +0.000 A 
ATOM      3  C   UNL     1       2.154   3.377  20.877  0.00  0.00    +0.000 A 
ATOM      4  N   UNL     1       3.354   3.053  20.365  0.00  0.00    +0.000 NA
ATOM      5  C   UNL     1       3.996   4.008  19.683  0.00  0.00    +0.000 A 
ATOM      6  N   UNL     1       5.239   3.690  19.150  0.00  0.00    +0.000 N 
ATOM      7  N   UNL     1       3.523   5.250  19.525  0.00  0.00    +0.000 NA
ATOM      8  H   UNL     1       5.495   2.749  19.422  0.00  0.00    +0.000 HD
ENDROOT
BRANCH   1  11
ATOM      9  C   UNL     1       1.089   8.901  20.968  0.00  0.00    +0.000 A 
ATOM     10  N   UNL     1       1.469   7.590  21.058  0.00  0.00    +0.000 NA
ATOM     11  C   UNL     1       1.918   6.977  19.945  0.00  0.00    +0.000 A 
ATOM     12  C   UNL     1       1.999   7.657  18.735  0.00  0.00    +0.000 A 
ATOM     13  C   UNL     1       1.602   8.995  18.677  0.00  0.00    +0.000 A 
ATOM     14  C   UNL     1       1.107   9.681  19.797  0.00  0.00    +0.000 A 
BRANCH  14  15
ATOM     15  N   UNL     1       0.704  10.993  19.668  0.00  0.00    +0.000 N 
ATOM     16  C   UNL     1      -0.655  11.370  19.264  0.00  0.00    +0.000 C 
ATOM     17  C   UNL     1      -0.766  12.861  19.569  0.00  0.00    +0.000 C 
ATOM     18  C   UNL     1       0.662  13.352  19.460  0.00  0.00    +0.000 C 
ATOM     19  F   UNL     1       0.967  13.533  18.146  0.00  0.00    +0.000 F 
ATOM     20  C   UNL     1       1.477  12.190  20.026  0.00  0.00    +0.000 C 
ENDBRANCH  14  15
BRANCH   9  22
ATOM     21  N   UNL     1       0.220   9.796  23.254  0.00  0.00    +0.000 NA
ATOM     22  C   UNL     1       0.608   9.392  22.234  0.00  0.00    +0.000 C 
ENDBRANCH   9  22
ENDBRANCH   1  11
BRANCH   6  23
ATOM     23  C   UNL     1       5.802   4.144  17.951  0.00  0.00    +0.000 A 
ATOM     24  C   UNL     1       5.101   4.197  16.742  0.00  0.00    +0.000 A 
ATOM     25  C   UNL     1       5.723   4.658  15.582  0.00  0.00    +0.000 A 
ATOM     26  C   UNL     1       7.045   5.052  15.664  0.00  0.00    +0.000 A 
ATOM     27  N   UNL     1       7.754   5.049  16.813  0.00  0.00    +0.000 NA
ATOM     28  C   UNL     1       7.118   4.600  17.919  0.00  0.00    +0.000 A 
BRANCH  26  29
ATOM     29  O   UNL     1       7.641   5.495  14.498  0.00  0.00    +0.000 OA
BRANCH  29  30
ATOM     30  C   UNL     1       6.796   5.261  13.368  0.00  0.00    +0.000 C 
BRANCH  30  31
ATOM     31  C   UNL     1       7.474   4.271  12.408  0.00  0.00    +0.000 C 
BRANCH  31  32
ATOM     32  N   UNL     1       6.772   2.984  12.338  0.00  0.00    +0.000 NA
ATOM     33  C   UNL     1       5.310   3.111  12.304  0.00  0.00    +0.000 C 
ATOM     34  C   UNL     1       4.824   2.336  11.086  0.00  0.00    +0.000 C 
ATOM     35  C   UNL     1       5.942   1.360  10.808  0.00  0.00    +0.000 C 
ATOM     36  F   UNL     1       5.806   0.275  11.615  0.00  0.00    +0.000 F 
ATOM     37  C   UNL     1       7.180   2.147  11.195  0.00  0.00    +0.000 C 
ENDBRANCH  31  32
ENDBRANCH  30  31
ENDBRANCH  29  30
ENDBRANCH  26  29
ENDBRANCH   6  23
TORSDOF 8
ENDMDL
MODEL 2
REMARK VINA RESULT:      -7.9      4.659      9.379
REMARK  Name = 
REMARK  8 active torsions:
REMARK  status: ('A' for Active; 'I' for Inactive)
REMARK    1  A    between atoms: C_2  and  C_3
REMARK    2  A    between atoms: C_5  and  C_6
REMARK    3  A    between atoms: N_11  and  C_12
REMARK    4  A    between atoms: C_15  and  O_16
REMARK    5  A    between atoms: O_16  and  C_17
REMARK    6  A    between atoms: C_17  and  C_18
REMARK    7  A    between atoms: C_18  and  N_19
REMARK    8  A    between atoms: C_30  and  N_31
REMARK                            x       y       z     vdW  Elec       q    Type
REMARK                         _______ _______ _______ _____ _____    ______ ____
ROOT
ATOM      1  C   UNL     1       0.817  10.299  19.511  0.00  0.00    +0.000 A 
ATOM      2  C   UNL     1      -0.399  10.173  20.153  0.00  0.00    +0.000 A 
ATOM      3  C   UNL     1      -1.051  11.349  20.444  0.00  0.00    +0.000 A 
ATOM      4  N   UNL     1      -0.566  12.565  20.137  0.00  0.00    +0.000 NA
ATOM      5  C   UNL     1       0.637  12.604  19.553  0.00  0.00    +0.000 A 
ATOM      6  N   UNL     1       1.151  13.853  19.225  0.00  0.00    +0.000 N 
ATOM      7  N   UNL     1       1.342  11.511  19.235  0.00  0.00    +0.000 NA
ATOM      8  H   UNL     1       0.472  14.570  19.450  0.00  0.00    +0.000 HD
ENDROOT
BRANCH   1  11
ATOM      9  C   UNL     1       2.306   6.949  19.453  0.00  0.00    +0.000 A 
ATOM     10  N   UNL     1       1.599   8.050  19.852  0.00  0.00    +0.000 NA
ATOM     11  C   UNL     1       1.608   9.138  19.057  0.00  0.00    +0.000 A 
ATOM     12  C   UNL     1       2.311   9.144  17.858  0.00  0.00    +0.000 A 
ATOM     13  C   UNL     1       3.024   8.003  17.479  0.00  0.00    +0.000 A 
ATOM     14  C   UNL     1       3.070   6.848  18.276  0.00  0.00    +0.000 A 
BRANCH  14  15
ATOM     15  N   UNL     1       3.815   5.765  17.860  0.00  0.00    +0.000 N 
ATOM     16  C   UNL     1       5.280   5.733  17.938  0.00  0.00    +0.000 C 
ATOM     17  C   UNL     1       5.662   4.274  17.705  0.00  0.00    +0.000 C 
ATOM     18  C   UNL     1       4.528   3.741  16.857  0.00  0.00    +0.000 C 
ATOM     19  F   UNL     1       4.731   4.115  15.564  0.00  0.00    +0.000 F 
ATOM     20  C   UNL     1       3.302   4.461  17.417  0.00  0.00    +0.000 C 
ENDBRANCH  14  15
BRANCH   9  22
ATOM     21  N   UNL     1       2.140   5.034  21.209  0.00  0.00    +0.000 NA
ATOM     22  C   UNL     1       2.217   5.891  20.426  0.00  0.00    +0.000 C 
ENDBRANCH   9  22
ENDBRANCH   1  11
BRANCH   6  23
ATOM     23  C   UNL     1       2.490  14.264  19.247  0.00  0.00    +0.000 A 
ATOM     24  C   UNL     1       3.218  14.457  20.425  0.00  0.00    +0.000 A 
ATOM     25  C   UNL     1       4.548  14.870  20.375  0.00  0.00    +0.000 A 
ATOM     26  C   UNL     1       5.118  15.087  19.135  0.00  0.00    +0.000 A 
ATOM     27  N   UNL     1       4.467  14.884  17.970  0.00  0.00    +0.000 NA
ATOM     28  C   UNL     1       3.179  14.478  18.055  0.00  0.00    +0.000 A 
BRANCH  26  29
ATOM     29  O   UNL     1       6.435  15.506  19.113  0.00  0.00    +0.000 OA
BRANCH  29  30
ATOM     30  C   UNL     1       7.297  14.467  18.640  0.00  0.00    +0.000 C 
BRANCH  30  31
ATOM     31  C   UNL     1       8.283  14.066  19.748  0.00  0.00    +0.000 C 
BRANCH  31  32
ATOM     32  N   UNL     1       9.310  13.129  19.275  0.00  0.00    +0.000 NA
ATOM     33  C   UNL     1       9.584  12.031  20.210  0.00  0.00    +0.000 C 
ATOM     34  C   UNL     1       9.426  10.732  19.430  0.00  0.00    +0.000 C 
ATOM     35  C   UNL     1       9.620  11.148  17.992  0.00  0.00    +0.000 C 
ATOM     36  F   UNL     1      10.949  11.213  17.714  0.00  0.00    +0.000 F 
ATOM     37  C   UNL     1       9.011  12.537  17.958  0.00  0.00    +0.000 C 
ENDBRANCH  31  32
ENDBRANCH  30  31
ENDBRANCH  29  30
ENDBRANCH  26  29
ENDBRANCH   6  23
TORSDOF 8
ENDMDL
MODEL 3
REMARK VINA RESULT:      -7.8      4.791      9.393
REMARK  Name = 
REMARK  8 active torsions:
REMARK  status: ('A' for Active; 'I' for Inactive)
REMARK    1  A    between atoms: C_2  and  C_3
REMARK    2  A    between atoms: C_5  and  C_6
REMARK    3  A    between atoms: N_11  and  C_12
REMARK    4  A    between atoms: C_15  and  O_16
REMARK    5  A    between atoms: O_16  and  C_17
REMARK    6  A    between atoms: C_17  and  C_18
REMARK    7  A    between atoms: C_18  and  N_19
REMARK    8  A    between atoms: C_30  and  N_31
REMARK                            x       y       z     vdW  Elec       q    Type
REMARK                         _______ _______ _______ _____ _____    ______ ____
ROOT
ATOM      1  C   UNL     1       0.829  10.408  19.557  0.00  0.00    +0.000 A 
ATOM      2  C   UNL     1      -0.346  10.303  20.276  0.00  0.00    +0.000 A 
ATOM      3  C   UNL     1      -0.978  11.488  20.572  0.00  0.00    +0.000 A 
ATOM      4  N   UNL     1      -0.512  12.694  20.200  0.00  0.00    +0.000 NA
ATOM      5  C   UNL     1       0.652  12.714  19.543  0.00  0.00    +0.000 A 
ATOM      6  N   UNL     1       1.145  13.952  19.149  0.00  0.00    +0.000 N 
ATOM      7  N   UNL     1       1.336  11.611  19.215  0.00  0.00    +0.000 NA
ATOM      8  H   UNL     1       0.482  14.676  19.394  0.00  0.00    +0.000 HD
ENDROOT
BRANCH   1  11
ATOM      9  C   UNL     1       2.245   7.028  19.467  0.00  0.00    +0.000 A 
ATOM     10  N   UNL     1       1.566   8.141  19.879  0.00  0.00    +0.000 NA
ATOM     11  C   UNL     1       1.590   9.232  19.089  0.00  0.00    +0.000 A 
ATOM     12  C   UNL     1       2.282   9.230  17.883  0.00  0.00    +0.000 A 
ATOM     13  C   UNL     1       2.967   8.077  17.492  0.00  0.00    +0.000 A 
ATOM     14  C   UNL     1       2.995   6.916  18.282  0.00  0.00    +0.000 A 
BRANCH  14  15
ATOM     15  N   UNL     1       3.713   5.820  17.853  0.00  0.00    +0.000 N 
ATOM     16  C   UNL     1       3.077   4.549  17.487  0.00  0.00    +0.000 C 
ATOM     17  C   UNL     1       4.161   3.750  16.770  0.00  0.00    +0.000 C 
ATOM     18  C   UNL     1       5.446   4.280  17.368  0.00  0.00    +0.000 C 
ATOM     19  F   UNL     1       5.651   3.684  18.574  0.00  0.00    +0.000 F 
ATOM     20  C   UNL     1       5.153   5.767  17.569  0.00  0.00    +0.000 C 
ENDBRANCH  14  15
BRANCH   9  22
ATOM     21  N   UNL     1       2.056   5.113  21.222  0.00  0.00    +0.000 NA
ATOM     22  C   UNL     1       2.143   5.966  20.436  0.00  0.00    +0.000 C 
ENDBRANCH   9  22
ENDBRANCH   1  11
BRANCH   6  23
ATOM     23  C   UNL     1       2.483  14.360  19.076  0.00  0.00    +0.000 A 
ATOM     24  C   UNL     1       3.102  14.767  17.890  0.00  0.00    +0.000 A 
ATOM     25  C   UNL     1       4.439  15.159  17.888  0.00  0.00    +0.000 A 
ATOM     26  C   UNL     1       5.131  15.127  19.084  0.00  0.00    +0.000 A 
ATOM     27  N   UNL     1       4.570  14.773  20.259  0.00  0.00    +0.000 NA
ATOM     28  C   UNL     1       3.269  14.403  20.226  0.00  0.00    +0.000 A 
BRANCH  26  29
ATOM     29  O   UNL     1       6.458  15.510  19.052  0.00  0.00    +0.000 OA
BRANCH  29  30
ATOM     30  C   UNL     1       7.299  14.418  18.669  0.00  0.00    +0.000 C 
BRANCH  30  31
ATOM     31  C   UNL     1       8.369  14.183  19.747  0.00  0.00    +0.000 C 
BRANCH  31  32
ATOM     32  N   UNL     1       9.397  13.226  19.321  0.00  0.00    +0.000 NA
ATOM     33  C   UNL     1       9.564  12.092  20.237  0.00  0.00    +0.000 C 
ATOM     34  C   UNL     1       9.423  10.823  19.405  0.00  0.00    +0.000 C 
ATOM     35  C   UNL     1       9.736  11.275  18.000  0.00  0.00    +0.000 C 
ATOM     36  F   UNL     1      11.084  11.302  17.822  0.00  0.00    +0.000 F 
ATOM     37  C   UNL     1       9.178  12.685  17.967  0.00  0.00    +0.000 C 
ENDBRANCH  31  32
ENDBRANCH  30  31
ENDBRANCH  29  30
ENDBRANCH  26  29
ENDBRANCH   6  23
TORSDOF 8
ENDMDL
MODEL 4
REMARK VINA RESULT:      -7.8      4.286      9.636
REMARK  Name = 
REMARK  8 active torsions:
REMARK  status: ('A' for Active; 'I' for Inactive)
REMARK    1  A    between atoms: C_2  and  C_3
REMARK    2  A    between atoms: C_5  and  C_6
REMARK    3  A    between atoms: N_11  and  C_12
REMARK    4  A    between atoms: C_15  and  O_16
REMARK    5  A    between atoms: O_16  and  C_17
REMARK    6  A    between atoms: C_17  and  C_18
REMARK    7  A    between atoms: C_18  and  N_19
REMARK    8  A    between atoms: C_30  and  N_31
REMARK                            x       y       z     vdW  Elec       q    Type
REMARK                         _______ _______ _______ _____ _____    ______ ____
ROOT
ATOM      1  C   UNL     1       1.376   8.522  20.135  0.00  0.00    +0.000 A 
ATOM      2  C   UNL     1       0.617   7.985  21.156  0.00  0.00    +0.000 A 
ATOM      3  C   UNL     1      -0.242   8.855  21.788  0.00  0.00    +0.000 A 
ATOM      4  N   UNL     1      -0.364  10.152  21.458  0.00  0.00    +0.000 NA
ATOM      5  C   UNL     1       0.435  10.605  20.486  0.00  0.00    +0.000 A 
ATOM      6  N   UNL     1       0.319  11.943  20.130  0.00  0.00    +0.000 N 
ATOM      7  N   UNL     1       1.301   9.831  19.819  0.00  0.00    +0.000 NA
ATOM      8  H   UNL     1      -0.429  12.372  20.661  0.00  0.00    +0.000 HD
ENDROOT
BRANCH   1  11
ATOM      9  C   UNL     1       3.380   5.678  18.979  0.00  0.00    +0.000 A 
ATOM     10  N   UNL     1       2.553   6.463  19.734  0.00  0.00    +0.000 NA
ATOM     11  C   UNL     1       2.288   7.711  19.303  0.00  0.00    +0.000 A 
ATOM     12  C   UNL     1       2.835   8.192  18.119  0.00  0.00    +0.000 A 
ATOM     13  C   UNL     1       3.677   7.365  17.371  0.00  0.00    +0.000 A 
ATOM     14  C   UNL     1       4.006   6.063  17.779  0.00  0.00    +0.000 A 
BRANCH  14  15
ATOM     15  N   UNL     1       4.865   5.306  17.011  0.00  0.00    +0.000 N 
ATOM     16  C   UNL     1       6.270   5.673  16.798  0.00  0.00    +0.000 C 
ATOM     17  C   UNL     1       6.922   4.431  16.195  0.00  0.00    +0.000 C 
ATOM     18  C   UNL     1       5.777   3.738  15.488  0.00  0.00    +0.000 C 
ATOM     19  F   UNL     1       5.568   4.344  14.288  0.00  0.00    +0.000 F 
ATOM     20  C   UNL     1       4.586   3.994  16.411  0.00  0.00    +0.000 C 
ENDBRANCH  14  15
BRANCH   9  22
ATOM     21  N   UNL     1       3.742   3.348  20.084  0.00  0.00    +0.000 NA
ATOM     22  C   UNL     1       3.582   4.391  19.593  0.00  0.00    +0.000 C 
ENDBRANCH   9  22
ENDBRANCH   1  11
BRANCH   6  23
ATOM     23  C   UNL     1       1.334  12.812  19.709  0.00  0.00    +0.000 A 
ATOM     24  C   UNL     1       1.475  13.250  18.389  0.00  0.00    +0.000 A 
ATOM     25  C   UNL     1       2.511  14.114  18.036  0.00  0.00    +0.000 A 
ATOM     26  C   UNL     1       3.390  14.514  19.024  0.00  0.00    +0.000 A 
ATOM     27  N   UNL     1       3.278  14.144  20.317  0.00  0.00    +0.000 NA
ATOM     28  C   UNL     1       2.258  13.310  20.625  0.00  0.00    +0.000 A 
BRANCH  26  29
ATOM     29  O   UNL     1       4.415  15.361  18.646  0.00  0.00    +0.000 OA
BRANCH  29  30
ATOM     30  C   UNL     1       5.606  15.091  19.391  0.00  0.00    +0.000 C 
BRANCH  30  31
ATOM     31  C   UNL     1       6.761  15.952  18.855  0.00  0.00    +0.000 C 
BRANCH  31  32
ATOM     32  N   UNL     1       7.890  15.145  18.378  0.00  0.00    +0.000 NA
ATOM     33  C   UNL     1       8.840  14.777  19.435  0.00  0.00    +0.000 C 
ATOM     34  C   UNL     1       8.998  13.262  19.385  0.00  0.00    +0.000 C 
ATOM     35  C   UNL     1       8.580  12.902  17.980  0.00  0.00    +0.000 C 
ATOM     36  F   UNL     1       9.628  13.089  17.134  0.00  0.00    +0.000 F 
ATOM     37  C   UNL     1       7.485  13.909  17.684  0.00  0.00    +0.000 C 
ENDBRANCH  31  32
ENDBRANCH  30  31
ENDBRANCH  29  30
ENDBRANCH  26  29
ENDBRANCH   6  23
TORSDOF 8
ENDMDL
MODEL 5
REMARK VINA RESULT:      -7.7      5.112      9.676
REMARK  Name = 
REMARK  8 active torsions:
REMARK  status: ('A' for Active; 'I' for Inactive)
REMARK    1  A    between atoms: C_2  and  C_3
REMARK    2  A    between atoms: C_5  and  C_6
REMARK    3  A    between atoms: N_11  and  C_12
REMARK    4  A    between atoms: C_15  and  O_16
REMARK    5  A    between atoms: O_16  and  C_17
REMARK    6  A    between atoms: C_17  and  C_18
REMARK    7  A    between atoms: C_18  and  N_19
REMARK    8  A    between atoms: C_30  and  N_31
REMARK                            x       y       z     vdW  Elec       q    Type
REMARK                         _______ _______ _______ _____ _____    ______ ____
ROOT
ATOM      1  C   UNL     1       0.775  10.260  19.443  0.00  0.00    +0.000 A 
ATOM      2  C   UNL     1      -0.464  10.127  20.040  0.00  0.00    +0.000 A 
ATOM      3  C   UNL     1      -1.126  11.301  20.320  0.00  0.00    +0.000 A 
ATOM      4  N   UNL     1      -0.630  12.520  20.043  0.00  0.00    +0.000 NA
ATOM      5  C   UNL     1       0.593  12.565  19.503  0.00  0.00    +0.000 A 
ATOM      6  N   UNL     1       1.118  13.817  19.207  0.00  0.00    +0.000 N 
ATOM      7  N   UNL     1       1.309  11.475  19.200  0.00  0.00    +0.000 NA
ATOM      8  H   UNL     1       0.431  14.531  19.415  0.00  0.00    +0.000 HD
ENDROOT
BRANCH   1  11
ATOM      9  C   UNL     1       2.292   6.922  19.422  0.00  0.00    +0.000 A 
ATOM     10  N   UNL     1       1.570   8.019  19.806  0.00  0.00    +0.000 NA
ATOM     11  C   UNL     1       1.581   9.103  19.006  0.00  0.00    +0.000 A 
ATOM     12  C   UNL     1       2.303   9.111  17.817  0.00  0.00    +0.000 A 
ATOM     13  C   UNL     1       3.031   7.974  17.454  0.00  0.00    +0.000 A 
ATOM     14  C   UNL     1       3.074   6.822  18.256  0.00  0.00    +0.000 A 
BRANCH  14  15
ATOM     15  N   UNL     1       3.834   5.744  17.856  0.00  0.00    +0.000 N 
ATOM     16  C   UNL     1       5.294   5.709  17.991  0.00  0.00    +0.000 C 
ATOM     17  C   UNL     1       5.685   4.253  17.754  0.00  0.00    +0.000 C 
ATOM     18  C   UNL     1       4.584   3.732  16.856  0.00  0.00    +0.000 C 
ATOM     19  F   UNL     1       4.838   4.122  15.576  0.00  0.00    +0.000 F 
ATOM     20  C   UNL     1       3.337   4.447  17.376  0.00  0.00    +0.000 C 
ENDBRANCH  14  15
BRANCH   9  22
ATOM     21  N   UNL     1       2.116   5.011  21.182  0.00  0.00    +0.000 NA
ATOM     22  C   UNL     1       2.197   5.868  20.398  0.00  0.00    +0.000 C 
ENDBRANCH   9  22
ENDBRANCH   1  11
BRANCH   6  23
ATOM     23  C   UNL     1       2.455  14.227  19.281  0.00  0.00    +0.000 A 
ATOM     24  C   UNL     1       3.219  14.570  18.162  0.00  0.00    +0.000 A 
ATOM     25  C   UNL     1       4.548  14.968  18.306  0.00  0.00    +0.000 A 
ATOM     26  C   UNL     1       5.082  15.006  19.579  0.00  0.00    +0.000 A 
ATOM     27  N   UNL     1       4.377  14.715  20.693  0.00  0.00    +0.000 NA
ATOM     28  C   UNL     1       3.089  14.338  20.516  0.00  0.00    +0.000 A 
BRANCH  26  29
ATOM     29  O   UNL     1       6.404  15.393  19.694  0.00  0.00    +0.000 OA
BRANCH  29  30
ATOM     30  C   UNL     1       7.130  15.103  18.496  0.00  0.00    +0.000 C 
BRANCH  30  31
ATOM     31  C   UNL     1       8.192  14.029  18.780  0.00  0.00    +0.000 C 
BRANCH  31  32
ATOM     32  N   UNL     1       9.256  14.008  17.768  0.00  0.00    +0.000 NA
ATOM     33  C   UNL     1      10.238  15.087  17.922  0.00  0.00    +0.000 C 
ATOM     34  C   UNL     1      11.614  14.434  17.974  0.00  0.00    +0.000 C 
ATOM     35  C   UNL     1      11.406  13.099  17.299  0.00  0.00    +0.000 C 
ATOM     36  F   UNL     1      11.476  13.258  15.951  0.00  0.00    +0.000 F 
ATOM     37  C   UNL     1       9.992  12.732  17.708  0.00  0.00    +0.000 C 
ENDBRANCH  31  32
ENDBRANCH  30  31
ENDBRANCH  29  30
ENDBRANCH  26  29
ENDBRANCH   6  23
TORSDOF 8
ENDMDL
MODEL 6
REMARK VINA RESULT:      -7.7      4.502      9.509
REMARK  Name = 
REMARK  8 active torsions:
REMARK  status: ('A' for Active; 'I' for Inactive)
REMARK    1  A    between atoms: C_2  and  C_3
REMARK    2  A    between atoms: C_5  and  C_6
REMARK    3  A    between atoms: N_11  and  C_12
REMARK    4  A    between atoms: C_15  and  O_16
REMARK    5  A    between atoms: O_16  and  C_17
REMARK    6  A    between atoms: C_17  and  C_18
REMARK    7  A    between atoms: C_18  and  N_19
REMARK    8  A    between atoms: C_30  and  N_31
REMARK                            x       y       z     vdW  Elec       q    Type
REMARK                         _______ _______ _______ _____ _____    ______ ____
ROOT
ATOM      1  C   UNL     1       0.730   9.595  21.150  0.00  0.00    +0.000 A 
ATOM      2  C   UNL     1       0.005   9.324  22.294  0.00  0.00    +0.000 A 
ATOM      3  C   UNL     1      -0.572  10.409  22.912  0.00  0.00    +0.000 A 
ATOM      4  N   UNL     1      -0.461  11.670  22.460  0.00  0.00    +0.000 NA
ATOM      5  C   UNL     1       0.292  11.855  21.369  0.00  0.00    +0.000 A 
ATOM      6  N   UNL     1       0.414  13.152  20.887  0.00  0.00    +0.000 N 
ATOM      7  N   UNL     1       0.891  10.859  20.706  0.00  0.00    +0.000 NA
ATOM      8  H   UNL     1      -0.159  13.777  21.441  0.00  0.00    +0.000 HD
ENDROOT
BRANCH   1  11
ATOM      9  C   UNL     1       2.019   6.315  20.142  0.00  0.00    +0.000 A 
ATOM     10  N   UNL     1       1.469   7.321  20.886  0.00  0.00    +0.000 NA
ATOM     11  C   UNL     1       1.346   8.539  20.323  0.00  0.00    +0.000 A 
ATOM     12  C   UNL     1       1.762   8.770  19.016  0.00  0.00    +0.000 A 
ATOM     13  C   UNL     1       2.321   7.720  18.283  0.00  0.00    +0.000 A 
ATOM     14  C   UNL     1       2.494   6.435  18.822  0.00  0.00    +0.000 A 
BRANCH  14  15
ATOM     15  N   UNL     1       3.078   5.449  18.057  0.00  0.00    +0.000 N 
ATOM     16  C   UNL     1       2.417   4.171  17.771  0.00  0.00    +0.000 C 
ATOM     17  C   UNL     1       3.236   3.537  16.650  0.00  0.00    +0.000 C 
ATOM     18  C   UNL     1       4.620   4.114  16.853  0.00  0.00    +0.000 C 
ATOM     19  F   UNL     1       5.244   3.424  17.847  0.00  0.00    +0.000 F 
ATOM     20  C   UNL     1       4.341   5.544  17.312  0.00  0.00    +0.000 C 
ENDBRANCH  14  15
BRANCH   9  22
ATOM     21  N   UNL     1       2.175   4.109  21.518  0.00  0.00    +0.000 NA
ATOM     22  C   UNL     1       2.105   5.093  20.899  0.00  0.00    +0.000 C 
ENDBRANCH   9  22
ENDBRANCH   1  11
BRANCH   6  23
ATOM     23  C   UNL     1       1.528  13.740  20.275  0.00  0.00    +0.000 A 
ATOM     24  C   UNL     1       2.698  14.076  20.964  0.00  0.00    +0.000 A 
ATOM     25  C   UNL     1       3.771  14.662  20.295  0.00  0.00    +0.000 A 
ATOM     26  C   UNL     1       3.641  14.905  18.941  0.00  0.00    +0.000 A 
ATOM     27  N   UNL     1       2.545  14.572  18.226  0.00  0.00    +0.000 NA
ATOM     28  C   UNL     1       1.525  14.000  18.907  0.00  0.00    +0.000 A 
BRANCH  26  29
ATOM     29  O   UNL     1       4.714  15.497  18.303  0.00  0.00    +0.000 OA
BRANCH  29  30
ATOM     30  C   UNL     1       5.954  14.987  18.802  0.00  0.00    +0.000 C 
BRANCH  30  31
ATOM     31  C   UNL     1       6.735  14.313  17.663  0.00  0.00    +0.000 C 
BRANCH  31  32
ATOM     32  N   UNL     1       8.131  14.037  18.024  0.00  0.00    +0.000 NA
ATOM     33  C   UNL     1       8.421  14.229  19.450  0.00  0.00    +0.000 C 
ATOM     34  C   UNL     1       9.055  12.938  19.954  0.00  0.00    +0.000 C 
ATOM     35  C   UNL     1       9.601  12.292  18.704  0.00  0.00    +0.000 C 
ATOM     36  F   UNL     1      10.813  12.832  18.408  0.00  0.00    +0.000 F 
ATOM     37  C   UNL     1       8.584  12.685  17.649  0.00  0.00    +0.000 C 
ENDBRANCH  31  32
ENDBRANCH  30  31
ENDBRANCH  29  30
ENDBRANCH  26  29
ENDBRANCH   6  23
TORSDOF 8
ENDMDL
MODEL 7
REMARK VINA RESULT:      -7.7      4.788      9.440
REMARK  Name = 
REMARK  8 active torsions:
REMARK  status: ('A' for Active; 'I' for Inactive)
REMARK    1  A    between atoms: C_2  and  C_3
REMARK    2  A    between atoms: C_5  and  C_6
REMARK    3  A    between atoms: N_11  and  C_12
REMARK    4  A    between atoms: C_15  and  O_16
REMARK    5  A    between atoms: O_16  and  C_17
REMARK    6  A    between atoms: C_17  and  C_18
REMARK    7  A    between atoms: C_18  and  N_19
REMARK    8  A    between atoms: C_30  and  N_31
REMARK                            x       y       z     vdW  Elec       q    Type
REMARK                         _______ _______ _______ _____ _____    ______ ____
ROOT
ATOM      1  C   UNL     1       0.771  10.409  19.480  0.00  0.00    +0.000 A 
ATOM      2  C   UNL     1      -0.456  10.292  20.103  0.00  0.00    +0.000 A 
ATOM      3  C   UNL     1      -1.104  11.473  20.382  0.00  0.00    +0.000 A 
ATOM      4  N   UNL     1      -0.605  12.685  20.080  0.00  0.00    +0.000 NA
ATOM      5  C   UNL     1       0.607  12.715  19.515  0.00  0.00    +0.000 A 
ATOM      6  N   UNL     1       1.134  13.960  19.194  0.00  0.00    +0.000 N 
ATOM      7  N   UNL     1       1.309  11.616  19.211  0.00  0.00    +0.000 NA
ATOM      8  H   UNL     1       0.457  14.681  19.407  0.00  0.00    +0.000 HD
ENDROOT
BRANCH   1  11
ATOM      9  C   UNL     1       2.238   7.049  19.450  0.00  0.00    +0.000 A 
ATOM     10  N   UNL     1       1.533   8.155  19.837  0.00  0.00    +0.000 NA
ATOM     11  C   UNL     1       1.561   9.241  19.040  0.00  0.00    +0.000 A 
ATOM     12  C   UNL     1       2.283   9.240  17.852  0.00  0.00    +0.000 A 
ATOM     13  C   UNL     1       2.994   8.094  17.486  0.00  0.00    +0.000 A 
ATOM     14  C   UNL     1       3.020   6.940  18.285  0.00  0.00    +0.000 A 
BRANCH  14  15
ATOM     15  N   UNL     1       3.763   5.851  17.883  0.00  0.00    +0.000 N 
ATOM     16  C   UNL     1       3.152   4.590  17.448  0.00  0.00    +0.000 C 
ATOM     17  C   UNL     1       4.282   3.803  16.789  0.00  0.00    +0.000 C 
ATOM     18  C   UNL     1       5.524   4.319  17.483  0.00  0.00    +0.000 C 
ATOM     19  F   UNL     1       5.647   3.697  18.688  0.00  0.00    +0.000 F 
ATOM     20  C   UNL     1       5.220   5.801  17.695  0.00  0.00    +0.000 C 
ENDBRANCH  14  15
BRANCH   9  22
ATOM     21  N   UNL     1       2.037   5.135  21.205  0.00  0.00    +0.000 NA
ATOM     22  C   UNL     1       2.127   5.993  20.424  0.00  0.00    +0.000 C 
ENDBRANCH   9  22
ENDBRANCH   1  11
BRANCH   6  23
ATOM     23  C   UNL     1       2.475  14.361  19.237  0.00  0.00    +0.000 A 
ATOM     24  C   UNL     1       3.203  14.496  20.423  0.00  0.00    +0.000 A 
ATOM     25  C   UNL     1       4.536  14.903  20.394  0.00  0.00    +0.000 A 
ATOM     26  C   UNL     1       5.108  15.173  19.166  0.00  0.00    +0.000 A 
ATOM     27  N   UNL     1       4.457  15.028  17.992  0.00  0.00    +0.000 NA
ATOM     28  C   UNL     1       3.167  14.626  18.057  0.00  0.00    +0.000 A 
BRANCH  26  29
ATOM     29  O   UNL     1       6.428  15.585  19.165  0.00  0.00    +0.000 OA
BRANCH  29  30
ATOM     30  C   UNL     1       7.273  14.604  19.773  0.00  0.00    +0.000 C 
BRANCH  30  31
ATOM     31  C   UNL     1       8.461  14.297  18.848  0.00  0.00    +0.000 C 
BRANCH  31  32
ATOM     32  N   UNL     1       8.769  12.863  18.785  0.00  0.00    +0.000 NA
ATOM     33  C   UNL     1       9.622  12.491  17.650  0.00  0.00    +0.000 C 
ATOM     34  C   UNL     1      10.812  11.729  18.219  0.00  0.00    +0.000 C 
ATOM     35  C   UNL     1      10.314  11.222  19.551  0.00  0.00    +0.000 C 
ATOM     36  F   UNL     1       9.606  10.077  19.363  0.00  0.00    +0.000 F 
ATOM     37  C   UNL     1       9.393  12.336  20.012  0.00  0.00    +0.000 C 
ENDBRANCH  31  32
ENDBRANCH  30  31
ENDBRANCH  29  30
ENDBRANCH  26  29
ENDBRANCH   6  23
TORSDOF 8
ENDMDL
MODEL 8
REMARK VINA RESULT:      -7.6      4.748      9.453
REMARK  Name = 
REMARK  8 active torsions:
REMARK  status: ('A' for Active; 'I' for Inactive)
REMARK    1  A    between atoms: C_2  and  C_3
REMARK    2  A    between atoms: C_5  and  C_6
REMARK    3  A    between atoms: N_11  and  C_12
REMARK    4  A    between atoms: C_15  and  O_16
REMARK    5  A    between atoms: O_16  and  C_17
REMARK    6  A    between atoms: C_17  and  C_18
REMARK    7  A    between atoms: C_18  and  N_19
REMARK    8  A    between atoms: C_30  and  N_31
REMARK                            x       y       z     vdW  Elec       q    Type
REMARK                         _______ _______ _______ _____ _____    ______ ____
ROOT
ATOM      1  C   UNL     1       0.817   9.613  20.977  0.00  0.00    +0.000 A 
ATOM      2  C   UNL     1       0.015   9.418  22.084  0.00  0.00    +0.000 A 
ATOM      3  C   UNL     1      -0.516  10.554  22.650  0.00  0.00    +0.000 A 
ATOM      4  N   UNL     1      -0.293  11.794  22.180  0.00  0.00    +0.000 NA
ATOM      5  C   UNL     1       0.528  11.902  21.129  0.00  0.00    +0.000 A 
ATOM      6  N   UNL     1       0.766  13.177  20.630  0.00  0.00    +0.000 N 
ATOM      7  N   UNL     1       1.090  10.852  20.518  0.00  0.00    +0.000 NA
ATOM      8  H   UNL     1       0.210  13.851  21.140  0.00  0.00    +0.000 HD
ENDROOT
BRANCH   1  11
ATOM      9  C   UNL     1       2.029   6.254  20.145  0.00  0.00    +0.000 A 
ATOM     10  N   UNL     1       1.509   7.313  20.837  0.00  0.00    +0.000 NA
ATOM     11  C   UNL     1       1.401   8.498  20.205  0.00  0.00    +0.000 A 
ATOM     12  C   UNL     1       1.802   8.644  18.881  0.00  0.00    +0.000 A 
ATOM     13  C   UNL     1       2.330   7.542  18.203  0.00  0.00    +0.000 A 
ATOM     14  C   UNL     1       2.486   6.288  18.815  0.00  0.00    +0.000 A 
BRANCH  14  15
ATOM     15  N   UNL     1       3.040   5.247  18.100  0.00  0.00    +0.000 N 
ATOM     16  C   UNL     1       2.235   4.164  17.525  0.00  0.00    +0.000 C 
ATOM     17  C   UNL     1       3.171   3.437  16.562  0.00  0.00    +0.000 C 
ATOM     18  C   UNL     1       4.544   3.685  17.148  0.00  0.00    +0.000 C 
ATOM     19  F   UNL     1       4.749   2.816  18.175  0.00  0.00    +0.000 F 
ATOM     20  C   UNL     1       4.443   5.111  17.688  0.00  0.00    +0.000 C 
ENDBRANCH  14  15
BRANCH   9  22
ATOM     21  N   UNL     1       2.156   4.128  21.643  0.00  0.00    +0.000 NA
ATOM     22  C   UNL     1       2.102   5.077  20.972  0.00  0.00    +0.000 C 
ENDBRANCH   9  22
ENDBRANCH   1  11
BRANCH   6  23
ATOM     23  C   UNL     1       1.950  13.672  20.069  0.00  0.00    +0.000 A 
ATOM     24  C   UNL     1       2.230  13.634  18.700  0.00  0.00    +0.000 A 
ATOM     25  C   UNL     1       3.431  14.144  18.208  0.00  0.00    +0.000 A 
ATOM     26  C   UNL     1       4.331  14.676  19.110  0.00  0.00    +0.000 A 
ATOM     27  N   UNL     1       4.094  14.763  20.436  0.00  0.00    +0.000 NA
ATOM     28  C   UNL     1       2.917  14.264  20.878  0.00  0.00    +0.000 A 
BRANCH  26  29
ATOM     29  O   UNL     1       5.519  15.164  18.598  0.00  0.00    +0.000 OA
BRANCH  29  30
ATOM     30  C   UNL     1       6.617  14.853  19.462  0.00  0.00    +0.000 C 
BRANCH  30  31
ATOM     31  C   UNL     1       7.910  14.743  18.639  0.00  0.00    +0.000 C 
BRANCH  31  32
ATOM     32  N   UNL     1       8.673  13.528  18.950  0.00  0.00    +0.000 NA
ATOM     33  C   UNL     1       8.811  12.610  17.813  0.00  0.00    +0.000 C 
ATOM     34  C   UNL     1      10.300  12.330  17.645  0.00  0.00    +0.000 C 
ATOM     35  C   UNL     1      10.882  12.641  19.002  0.00  0.00    +0.000 C 
ATOM     36  F   UNL     1      10.721  11.568  19.820  0.00  0.00    +0.000 F 
ATOM     37  C   UNL     1      10.022  13.796  19.481  0.00  0.00    +0.000 C 
ENDBRANCH  31  32
ENDBRANCH  30  31
ENDBRANCH  29  30
ENDBRANCH  26  29
ENDBRANCH   6  23
TORSDOF 8
ENDMDL
MODEL 9
REMARK VINA RESULT:      -7.6      4.665     10.151
REMARK  Name = 
REMARK  8 active torsions:
REMARK  status: ('A' for Active; 'I' for Inactive)
REMARK    1  A    between atoms: C_2  and  C_3
REMARK    2  A    between atoms: C_5  and  C_6
REMARK    3  A    between atoms: N_11  and  C_12
REMARK    4  A    between atoms: C_15  and  O_16
REMARK    5  A    between atoms: O_16  and  C_17
REMARK    6  A    between atoms: C_17  and  C_18
REMARK    7  A    between atoms: C_18  and  N_19
REMARK    8  A    between atoms: C_30  and  N_31
REMARK                            x       y       z     vdW  Elec       q    Type
REMARK                         _______ _______ _______ _____ _____    ______ ____
ROOT
ATOM      1  C   UNL     1       1.366   8.505  20.092  0.00  0.00    +0.000 A 
ATOM      2  C   UNL     1       0.543   7.943  21.048  0.00  0.00    +0.000 A 
ATOM      3  C   UNL     1      -0.326   8.806  21.676  0.00  0.00    +0.000 A 
ATOM      4  N   UNL     1      -0.399  10.120  21.401  0.00  0.00    +0.000 NA
ATOM      5  C   UNL     1       0.461  10.595  20.493  0.00  0.00    +0.000 A 
ATOM      6  N   UNL     1       0.396  11.951  20.196  0.00  0.00    +0.000 N 
ATOM      7  N   UNL     1       1.341   9.829  19.835  0.00  0.00    +0.000 NA
ATOM      8  H   UNL     1      -0.367  12.375  20.707  0.00  0.00    +0.000 HD
ENDROOT
BRANCH   1  11
ATOM      9  C   UNL     1       3.421   5.690  18.954  0.00  0.00    +0.000 A 
ATOM     10  N   UNL     1       2.574   6.462  19.701  0.00  0.00    +0.000 NA
ATOM     11  C   UNL     1       2.300   7.709  19.271  0.00  0.00    +0.000 A 
ATOM     12  C   UNL     1       2.858   8.201  18.096  0.00  0.00    +0.000 A 
ATOM     13  C   UNL     1       3.720   7.387  17.357  0.00  0.00    +0.000 A 
ATOM     14  C   UNL     1       4.059   6.087  17.764  0.00  0.00    +0.000 A 
BRANCH  14  15
ATOM     15  N   UNL     1       4.938   5.344  17.006  0.00  0.00    +0.000 N 
ATOM     16  C   UNL     1       6.353   5.701  16.855  0.00  0.00    +0.000 C 
ATOM     17  C   UNL     1       7.013   4.470  16.239  0.00  0.00    +0.000 C 
ATOM     18  C   UNL     1       5.889   3.811  15.471  0.00  0.00    +0.000 C 
ATOM     19  F   UNL     1       5.730   4.456  14.282  0.00  0.00    +0.000 F 
ATOM     20  C   UNL     1       4.668   4.054  16.357  0.00  0.00    +0.000 C 
ENDBRANCH  14  15
BRANCH   9  22
ATOM     21  N   UNL     1       3.794   3.365  20.066  0.00  0.00    +0.000 NA
ATOM     22  C   UNL     1       3.630   4.403  19.566  0.00  0.00    +0.000 C 
ENDBRANCH   9  22
ENDBRANCH   1  11
BRANCH   6  23
ATOM     23  C   UNL     1       1.452  12.810  19.868  0.00  0.00    +0.000 A 
ATOM     24  C   UNL     1       1.943  12.967  18.568  0.00  0.00    +0.000 A 
ATOM     25  C   UNL     1       3.000  13.838  18.310  0.00  0.00    +0.000 A 
ATOM     26  C   UNL     1       3.549  14.530  19.373  0.00  0.00    +0.000 A 
ATOM     27  N   UNL     1       3.091  14.435  20.640  0.00  0.00    +0.000 NA
ATOM     28  C   UNL     1       2.060  13.585  20.852  0.00  0.00    +0.000 A 
BRANCH  26  29
ATOM     29  O   UNL     1       4.603  15.379  19.094  0.00  0.00    +0.000 OA
BRANCH  29  30
ATOM     30  C   UNL     1       5.331  14.933  17.946  0.00  0.00    +0.000 C 
BRANCH  30  31
ATOM     31  C   UNL     1       6.787  14.635  18.337  0.00  0.00    +0.000 C 
BRANCH  31  32
ATOM     32  N   UNL     1       7.724  15.642  17.825  0.00  0.00    +0.000 NA
ATOM     33  C   UNL     1       7.570  16.963  18.446  0.00  0.00    +0.000 C 
ATOM     34  C   UNL     1       8.940  17.370  18.974  0.00  0.00    +0.000 C 
ATOM     35  C   UNL     1       9.902  16.543  18.157  0.00  0.00    +0.000 C 
ATOM     36  F   UNL     1      10.124  17.155  16.963  0.00  0.00    +0.000 F 
ATOM     37  C   UNL     1       9.140  15.249  17.945  0.00  0.00    +0.000 C 
ENDBRANCH  31  32
ENDBRANCH  30  31
ENDBRANCH  29  30
ENDBRANCH  26  29
ENDBRANCH   6  23
TORSDOF 8
ENDMDL
