MODEL 1
REMARK VINA RESULT:      -5.9      0.000      0.000
REMARK  Name = 
REMARK  9 active torsions:
REMARK  status: ('A' for Active; 'I' for Inactive)
REMARK    1  A    between atoms: C_1  and  O_2
REMARK    2  A    between atoms: O_2  and  C_3
REMARK    3  A    between atoms: C_3  and  C_4
REMARK    4  A    between atoms: C_4  and  N_5
REMARK    5  A    between atoms: N_5  and  C_6
REMARK    6  A    between atoms: C_6  and  N_8
REMARK    7  A    between atoms: N_8  and  N_9
REMARK    8  A    between atoms: C_10  and  C_11
REMARK    9  A    between atoms: C_14  and  N_15
REMARK                            x       y       z     vdW  Elec       q    Type
REMARK                         _______ _______ _______ _____ _____    ______ ____
ROOT
ATOM      1  N   UNL     1       2.503   5.080  17.964  0.00  0.00    +0.000 NA
ATOM      2  C   UNL     1       3.077   6.239  18.044  0.00  0.00    +0.000 C 
ENDROOT
BRANCH   2   3
ATOM      3  C   UNL     1       2.359   7.363  18.686  0.00  0.00    +0.000 A 
ATOM      4  C   UNL     1       1.946   8.458  17.913  0.00  0.00    +0.000 A 
ATOM      5  C   UNL     1       1.280   9.528  18.505  0.00  0.00    +0.000 A 
ATOM      6  C   UNL     1       1.021   9.498  19.881  0.00  0.00    +0.000 A 
ATOM      7  C   UNL     1       1.422   8.400  20.660  0.00  0.00    +0.000 A 
ATOM      8  C   UNL     1       2.092   7.328  20.058  0.00  0.00    +0.000 A 
BRANCH   6   9
ATOM      9  N   UNL     1       0.328  10.629  20.508  0.00  0.00    +0.000 N 
ATOM     10  O   UNL     1       0.802  11.087  21.557  0.00  0.00    +0.000 OA
ATOM     11  O   UNL     1      -0.693  11.059  19.951  0.00  0.00    +0.000 OA
ENDBRANCH   6   9
ENDBRANCH   2   3
BRANCH   1  12
ATOM     12  N   UNL     1       3.220   4.085  17.373  0.00  0.00    +0.000 N 
ATOM     13  H   UNL     1       3.052   3.818  16.407  0.00  0.00    +0.000 HD
BRANCH  12  14
ATOM     14  C   UNL     1       4.321   3.556  18.016  0.00  0.00    +0.000 C 
ATOM     15  S   UNL     1       4.155   2.842  19.511  0.00  0.00    +0.000 S 
BRANCH  14  16
ATOM     16  N   UNL     1       5.467   3.637  17.272  0.00  0.00    +0.000 N 
ATOM     17  H   UNL     1       5.457   3.021  16.464  0.00  0.00    +0.000 HD
BRANCH  16  18
ATOM     18  C   UNL     1       6.577   4.566  17.412  0.00  0.00    +0.000 C 
BRANCH  18  19
ATOM     19  C   UNL     1       6.969   5.157  16.055  0.00  0.00    +0.000 C 
BRANCH  19  21
ATOM     20  C   UNL     1       7.309   6.953  17.546  0.00  0.00    +0.000 C 
ATOM     21  O   UNL     1       7.573   6.442  16.246  0.00  0.00    +0.000 OA
ENDBRANCH  19  21
ENDBRANCH  18  19
ENDBRANCH  16  18
ENDBRANCH  14  16
ENDBRANCH  12  14
ENDBRANCH   1  12
TORSDOF 8
ENDMDL
MODEL 2
REMARK VINA RESULT:      -5.8      4.245      7.487
REMARK  Name = 
REMARK  9 active torsions:
REMARK  status: ('A' for Active; 'I' for Inactive)
REMARK    1  A    between atoms: C_1  and  O_2
REMARK    2  A    between atoms: O_2  and  C_3
REMARK    3  A    between atoms: C_3  and  C_4
REMARK    4  A    between atoms: C_4  and  N_5
REMARK    5  A    between atoms: N_5  and  C_6
REMARK    6  A    between atoms: C_6  and  N_8
REMARK    7  A    between atoms: N_8  and  N_9
REMARK    8  A    between atoms: C_10  and  C_11
REMARK    9  A    between atoms: C_14  and  N_15
REMARK                            x       y       z     vdW  Elec       q    Type
REMARK                         _______ _______ _______ _____ _____    ______ ____
ROOT
ATOM      1  N   UNL     1       4.123   5.524  18.762  0.00  0.00    +0.000 NA
ATOM      2  C   UNL     1       4.964   4.603  18.411  0.00  0.00    +0.000 C 
ENDROOT
BRANCH   2   3
ATOM      3  C   UNL     1       5.575   4.649  17.064  0.00  0.00    +0.000 A 
ATOM      4  C   UNL     1       6.913   5.040  16.919  0.00  0.00    +0.000 A 
ATOM      5  C   UNL     1       7.498   5.099  15.656  0.00  0.00    +0.000 A 
ATOM      6  C   UNL     1       6.737   4.758  14.531  0.00  0.00    +0.000 A 
ATOM      7  C   UNL     1       5.398   4.354  14.670  0.00  0.00    +0.000 A 
ATOM      8  C   UNL     1       4.817   4.299  15.943  0.00  0.00    +0.000 A 
BRANCH   6   9
ATOM      9  N   UNL     1       7.348   4.828  13.199  0.00  0.00    +0.000 N 
ATOM     10  O   UNL     1       6.955   4.025  12.340  0.00  0.00    +0.000 OA
ATOM     11  O   UNL     1       8.222   5.687  13.012  0.00  0.00    +0.000 OA
ENDBRANCH   6   9
ENDBRANCH   2   3
BRANCH   1  12
ATOM     12  N   UNL     1       3.606   5.431  20.017  0.00  0.00    +0.000 N 
ATOM     13  H   UNL     1       4.178   5.136  20.802  0.00  0.00    +0.000 HD
BRANCH  12  14
ATOM     14  C   UNL     1       2.342   5.926  20.278  0.00  0.00    +0.000 C 
ATOM     15  S   UNL     1       1.966   7.502  19.900  0.00  0.00    +0.000 S 
BRANCH  14  16
ATOM     16  N   UNL     1       1.494   4.983  20.791  0.00  0.00    +0.000 N 
ATOM     17  H   UNL     1       1.137   5.231  21.709  0.00  0.00    +0.000 HD
BRANCH  16  18
ATOM     18  C   UNL     1       0.952   3.799  20.143  0.00  0.00    +0.000 C 
BRANCH  18  19
ATOM     19  C   UNL     1       1.806   2.567  20.451  0.00  0.00    +0.000 C 
BRANCH  19  21
ATOM     20  C   UNL     1       1.871   2.692  18.096  0.00  0.00    +0.000 C 
ATOM     21  O   UNL     1       2.106   1.873  19.234  0.00  0.00    +0.000 OA
ENDBRANCH  19  21
ENDBRANCH  18  19
ENDBRANCH  16  18
ENDBRANCH  14  16
ENDBRANCH  12  14
ENDBRANCH   1  12
TORSDOF 8
ENDMDL
MODEL 3
REMARK VINA RESULT:      -5.8      0.929      1.623
REMARK  Name = 
REMARK  9 active torsions:
REMARK  status: ('A' for Active; 'I' for Inactive)
REMARK    1  A    between atoms: C_1  and  O_2
REMARK    2  A    between atoms: O_2  and  C_3
REMARK    3  A    between atoms: C_3  and  C_4
REMARK    4  A    between atoms: C_4  and  N_5
REMARK    5  A    between atoms: N_5  and  C_6
REMARK    6  A    between atoms: C_6  and  N_8
REMARK    7  A    between atoms: N_8  and  N_9
REMARK    8  A    between atoms: C_10  and  C_11
REMARK    9  A    between atoms: C_14  and  N_15
REMARK                            x       y       z     vdW  Elec       q    Type
REMARK                         _______ _______ _______ _____ _____    ______ ____
ROOT
ATOM      1  N   UNL     1       2.439   5.195  17.815  0.00  0.00    +0.000 NA
ATOM      2  C   UNL     1       3.068   6.311  18.011  0.00  0.00    +0.000 C 
ENDROOT
BRANCH   2   3
ATOM      3  C   UNL     1       2.370   7.433  18.675  0.00  0.00    +0.000 A 
ATOM      4  C   UNL     1       2.053   7.348  20.038  0.00  0.00    +0.000 A 
ATOM      5  C   UNL     1       1.386   8.392  20.675  0.00  0.00    +0.000 A 
ATOM      6  C   UNL     1       1.040   9.533  19.940  0.00  0.00    +0.000 A 
ATOM      7  C   UNL     1       1.365   9.631  18.577  0.00  0.00    +0.000 A 
ATOM      8  C   UNL     1       2.034   8.576  17.944  0.00  0.00    +0.000 A 
BRANCH   6   9
ATOM      9  N   UNL     1       0.329  10.630  20.607  0.00  0.00    +0.000 N 
ATOM     10  O   UNL     1      -0.773  10.965  20.150  0.00  0.00    +0.000 OA
ATOM     11  O   UNL     1       0.874  11.158  21.587  0.00  0.00    +0.000 OA
ENDBRANCH   6   9
ENDBRANCH   2   3
BRANCH   1  12
ATOM     12  N   UNL     1       3.139   4.198  17.209  0.00  0.00    +0.000 N 
ATOM     13  H   UNL     1       3.098   4.062  16.203  0.00  0.00    +0.000 HD
BRANCH  12  14
ATOM     14  C   UNL     1       4.072   3.478  17.929  0.00  0.00    +0.000 C 
ATOM     15  S   UNL     1       3.660   2.801  19.393  0.00  0.00    +0.000 S 
BRANCH  14  16
ATOM     16  N   UNL     1       5.270   3.355  17.280  0.00  0.00    +0.000 N 
ATOM     17  H   UNL     1       5.616   2.399  17.268  0.00  0.00    +0.000 HD
BRANCH  16  18
ATOM     18  C   UNL     1       5.996   4.354  16.514  0.00  0.00    +0.000 C 
BRANCH  18  19
ATOM     19  C   UNL     1       7.354   4.655  17.153  0.00  0.00    +0.000 C 
BRANCH  19  21
ATOM     20  C   UNL     1       7.766   5.749  19.203  0.00  0.00    +0.000 C 
ATOM     21  O   UNL     1       7.241   4.583  18.580  0.00  0.00    +0.000 OA
ENDBRANCH  19  21
ENDBRANCH  18  19
ENDBRANCH  16  18
ENDBRANCH  14  16
ENDBRANCH  12  14
ENDBRANCH   1  12
TORSDOF 8
ENDMDL
MODEL 4
REMARK VINA RESULT:      -5.8      3.965      7.352
REMARK  Name = 
REMARK  9 active torsions:
REMARK  status: ('A' for Active; 'I' for Inactive)
REMARK    1  A    between atoms: C_1  and  O_2
REMARK    2  A    between atoms: O_2  and  C_3
REMARK    3  A    between atoms: C_3  and  C_4
REMARK    4  A    between atoms: C_4  and  N_5
REMARK    5  A    between atoms: N_5  and  C_6
REMARK    6  A    between atoms: C_6  and  N_8
REMARK    7  A    between atoms: N_8  and  N_9
REMARK    8  A    between atoms: C_10  and  C_11
REMARK    9  A    between atoms: C_14  and  N_15
REMARK                            x       y       z     vdW  Elec       q    Type
REMARK                         _______ _______ _______ _____ _____    ______ ____
ROOT
ATOM      1  N   UNL     1       4.157   5.706  18.898  0.00  0.00    +0.000 NA
ATOM      2  C   UNL     1       4.799   4.674  18.450  0.00  0.00    +0.000 C 
ENDROOT
BRANCH   2   3
ATOM      3  C   UNL     1       5.485   4.756  17.142  0.00  0.00    +0.000 A 
ATOM      4  C   UNL     1       4.866   4.236  15.996  0.00  0.00    +0.000 A 
ATOM      5  C   UNL     1       5.504   4.296  14.760  0.00  0.00    +0.000 A 
ATOM      6  C   UNL     1       6.771   4.887  14.670  0.00  0.00    +0.000 A 
ATOM      7  C   UNL     1       7.393   5.421  15.811  0.00  0.00    +0.000 A 
ATOM      8  C   UNL     1       6.745   5.355  17.051  0.00  0.00    +0.000 A 
BRANCH   6   9
ATOM      9  N   UNL     1       7.449   4.943  13.370  0.00  0.00    +0.000 N 
ATOM     10  O   UNL     1       8.412   5.715  13.254  0.00  0.00    +0.000 OA
ATOM     11  O   UNL     1       7.018   4.214  12.464  0.00  0.00    +0.000 OA
ENDBRANCH   6   9
ENDBRANCH   2   3
BRANCH   1  12
ATOM     12  N   UNL     1       3.556   5.570  20.112  0.00  0.00    +0.000 N 
ATOM     13  H   UNL     1       4.088   5.303  20.935  0.00  0.00    +0.000 HD
BRANCH  12  14
ATOM     14  C   UNL     1       2.249   5.983  20.283  0.00  0.00    +0.000 C 
ATOM     15  S   UNL     1       1.832   7.572  20.015  0.00  0.00    +0.000 S 
BRANCH  14  16
ATOM     16  N   UNL     1       1.403   4.960  20.614  0.00  0.00    +0.000 N 
ATOM     17  H   UNL     1       0.439   5.145  20.351  0.00  0.00    +0.000 HD
BRANCH  16  18
ATOM     18  C   UNL     1       1.730   3.642  21.133  0.00  0.00    +0.000 C 
BRANCH  18  19
ATOM     19  C   UNL     1       1.524   2.566  20.064  0.00  0.00    +0.000 C 
BRANCH  19  21
ATOM     20  C   UNL     1       2.278   2.208  17.858  0.00  0.00    +0.000 C 
ATOM     21  O   UNL     1       1.700   3.139  18.763  0.00  0.00    +0.000 OA
ENDBRANCH  19  21
ENDBRANCH  18  19
ENDBRANCH  16  18
ENDBRANCH  14  16
ENDBRANCH  12  14
ENDBRANCH   1  12
TORSDOF 8
ENDMDL
MODEL 5
REMARK VINA RESULT:      -5.7      0.926      1.014
REMARK  Name = 
REMARK  9 active torsions:
REMARK  status: ('A' for Active; 'I' for Inactive)
REMARK    1  A    between atoms: C_1  and  O_2
REMARK    2  A    between atoms: O_2  and  C_3
REMARK    3  A    between atoms: C_3  and  C_4
REMARK    4  A    between atoms: C_4  and  N_5
REMARK    5  A    between atoms: N_5  and  C_6
REMARK    6  A    between atoms: C_6  and  N_8
REMARK    7  A    between atoms: N_8  and  N_9
REMARK    8  A    between atoms: C_10  and  C_11
REMARK    9  A    between atoms: C_14  and  N_15
REMARK                            x       y       z     vdW  Elec       q    Type
REMARK                         _______ _______ _______ _____ _____    ______ ____
ROOT
ATOM      1  N   UNL     1       2.857   5.815  18.325  0.00  0.00    +0.000 NA
ATOM      2  C   UNL     1       2.757   7.084  18.085  0.00  0.00    +0.000 C 
ENDROOT
BRANCH   2   3
ATOM      3  C   UNL     1       2.045   7.953  19.048  0.00  0.00    +0.000 A 
ATOM      4  C   UNL     1       1.534   9.189  18.627  0.00  0.00    +0.000 A 
ATOM      5  C   UNL     1       0.872  10.023  19.525  0.00  0.00    +0.000 A 
ATOM      6  C   UNL     1       0.716   9.611  20.854  0.00  0.00    +0.000 A 
ATOM      7  C   UNL     1       1.215   8.369  21.282  0.00  0.00    +0.000 A 
ATOM      8  C   UNL     1       1.881   7.537  20.373  0.00  0.00    +0.000 A 
BRANCH   6   9
ATOM      9  N   UNL     1       0.027  10.492  21.805  0.00  0.00    +0.000 N 
ATOM     10  O   UNL     1       0.211  10.292  23.014  0.00  0.00    +0.000 OA
ATOM     11  O   UNL     1      -0.698  11.384  21.341  0.00  0.00    +0.000 OA
ENDBRANCH   6   9
ENDBRANCH   2   3
BRANCH   1  12
ATOM     12  N   UNL     1       3.533   5.073  17.406  0.00  0.00    +0.000 N 
ATOM     13  H   UNL     1       3.598   5.367  16.436  0.00  0.00    +0.000 HD
BRANCH  12  14
ATOM     14  C   UNL     1       4.307   4.006  17.819  0.00  0.00    +0.000 C 
ATOM     15  S   UNL     1       4.151   3.406  19.364  0.00  0.00    +0.000 S 
BRANCH  14  16
ATOM     16  N   UNL     1       5.108   3.510  16.827  0.00  0.00    +0.000 N 
ATOM     17  H   UNL     1       5.020   2.504  16.715  0.00  0.00    +0.000 HD
BRANCH  16  18
ATOM     18  C   UNL     1       5.917   4.238  15.862  0.00  0.00    +0.000 C 
BRANCH  18  19
ATOM     19  C   UNL     1       7.259   4.649  16.473  0.00  0.00    +0.000 C 
BRANCH  19  21
ATOM     20  C   UNL     1       6.726   6.804  17.272  0.00  0.00    +0.000 C 
ATOM     21  O   UNL     1       7.453   6.059  16.303  0.00  0.00    +0.000 OA
ENDBRANCH  19  21
ENDBRANCH  18  19
ENDBRANCH  16  18
ENDBRANCH  14  16
ENDBRANCH  12  14
ENDBRANCH   1  12
TORSDOF 8
ENDMDL
MODEL 6
REMARK VINA RESULT:      -5.7      2.463      3.404
REMARK  Name = 
REMARK  9 active torsions:
REMARK  status: ('A' for Active; 'I' for Inactive)
REMARK    1  A    between atoms: C_1  and  O_2
REMARK    2  A    between atoms: O_2  and  C_3
REMARK    3  A    between atoms: C_3  and  C_4
REMARK    4  A    between atoms: C_4  and  N_5
REMARK    5  A    between atoms: N_5  and  C_6
REMARK    6  A    between atoms: C_6  and  N_8
REMARK    7  A    between atoms: N_8  and  N_9
REMARK    8  A    between atoms: C_10  and  C_11
REMARK    9  A    between atoms: C_14  and  N_15
REMARK                            x       y       z     vdW  Elec       q    Type
REMARK                         _______ _______ _______ _____ _____    ______ ____
ROOT
ATOM      1  N   UNL     1       4.057   6.130  17.596  0.00  0.00    +0.000 NA
ATOM      2  C   UNL     1       3.178   6.152  18.548  0.00  0.00    +0.000 C 
ENDROOT
BRANCH   2   3
ATOM      3  C   UNL     1       2.417   7.394  18.806  0.00  0.00    +0.000 A 
ATOM      4  C   UNL     1       1.915   7.649  20.091  0.00  0.00    +0.000 A 
ATOM      5  C   UNL     1       1.187   8.808  20.347  0.00  0.00    +0.000 A 
ATOM      6  C   UNL     1       0.965   9.722  19.308  0.00  0.00    +0.000 A 
ATOM      7  C   UNL     1       1.474   9.479  18.022  0.00  0.00    +0.000 A 
ATOM      8  C   UNL     1       2.204   8.310  17.772  0.00  0.00    +0.000 A 
BRANCH   6   9
ATOM      9  N   UNL     1       0.190  10.939  19.573  0.00  0.00    +0.000 N 
ATOM     10  O   UNL     1      -0.067  11.214  20.755  0.00  0.00    +0.000 OA
ATOM     11  O   UNL     1      -0.162  11.622  18.600  0.00  0.00    +0.000 OA
ENDBRANCH   6   9
ENDBRANCH   2   3
BRANCH   1  12
ATOM     12  N   UNL     1       4.716   4.955  17.402  0.00  0.00    +0.000 N 
ATOM     13  H   UNL     1       4.693   4.481  16.504  0.00  0.00    +0.000 HD
BRANCH  12  14
ATOM     14  C   UNL     1       5.587   4.487  18.367  0.00  0.00    +0.000 C 
ATOM     15  S   UNL     1       6.799   5.469  18.948  0.00  0.00    +0.000 S 
BRANCH  14  16
ATOM     16  N   UNL     1       5.288   3.221  18.790  0.00  0.00    +0.000 N 
ATOM     17  H   UNL     1       5.869   2.512  18.353  0.00  0.00    +0.000 HD
BRANCH  16  18
ATOM     18  C   UNL     1       4.383   2.807  19.850  0.00  0.00    +0.000 C 
BRANCH  18  19
ATOM     19  C   UNL     1       3.062   2.291  19.272  0.00  0.00    +0.000 C 
BRANCH  19  21
ATOM     20  C   UNL     1       2.291   2.766  21.451  0.00  0.00    +0.000 C 
ATOM     21  O   UNL     1       1.969   2.770  20.065  0.00  0.00    +0.000 OA
ENDBRANCH  19  21
ENDBRANCH  18  19
ENDBRANCH  16  18
ENDBRANCH  14  16
ENDBRANCH  12  14
ENDBRANCH   1  12
TORSDOF 8
ENDMDL
MODEL 7
REMARK VINA RESULT:      -5.6      2.448      3.306
REMARK  Name = 
REMARK  9 active torsions:
REMARK  status: ('A' for Active; 'I' for Inactive)
REMARK    1  A    between atoms: C_1  and  O_2
REMARK    2  A    between atoms: O_2  and  C_3
REMARK    3  A    between atoms: C_3  and  C_4
REMARK    4  A    between atoms: C_4  and  N_5
REMARK    5  A    between atoms: N_5  and  C_6
REMARK    6  A    between atoms: C_6  and  N_8
REMARK    7  A    between atoms: N_8  and  N_9
REMARK    8  A    between atoms: C_10  and  C_11
REMARK    9  A    between atoms: C_14  and  N_15
REMARK                            x       y       z     vdW  Elec       q    Type
REMARK                         _______ _______ _______ _____ _____    ______ ____
ROOT
ATOM      1  N   UNL     1       4.273   6.312  17.891  0.00  0.00    +0.000 NA
ATOM      2  C   UNL     1       3.062   6.237  18.344  0.00  0.00    +0.000 C 
ENDROOT
BRANCH   2   3
ATOM      3  C   UNL     1       2.353   7.476  18.735  0.00  0.00    +0.000 A 
ATOM      4  C   UNL     1       2.148   8.490  17.788  0.00  0.00    +0.000 A 
ATOM      5  C   UNL     1       1.492   9.666  18.145  0.00  0.00    +0.000 A 
ATOM      6  C   UNL     1       1.034   9.824  19.459  0.00  0.00    +0.000 A 
ATOM      7  C   UNL     1       1.226   8.808  20.410  0.00  0.00    +0.000 A 
ATOM      8  C   UNL     1       1.887   7.629  20.044  0.00  0.00    +0.000 A 
BRANCH   6   9
ATOM      9  N   UNL     1       0.352  11.066  19.839  0.00  0.00    +0.000 N 
ATOM     10  O   UNL     1      -0.165  11.740  18.936  0.00  0.00    +0.000 OA
ATOM     11  O   UNL     1       0.333  11.368  21.041  0.00  0.00    +0.000 OA
ENDBRANCH   6   9
ENDBRANCH   2   3
BRANCH   1  12
ATOM     12  N   UNL     1       4.866   5.139  17.538  0.00  0.00    +0.000 N 
ATOM     13  H   UNL     1       4.705   4.721  16.627  0.00  0.00    +0.000 HD
BRANCH  12  14
ATOM     14  C   UNL     1       5.850   4.597  18.342  0.00  0.00    +0.000 C 
ATOM     15  S   UNL     1       7.363   5.289  18.394  0.00  0.00    +0.000 S 
BRANCH  14  16
ATOM     16  N   UNL     1       5.412   3.533  19.082  0.00  0.00    +0.000 N 
ATOM     17  H   UNL     1       6.032   3.308  19.855  0.00  0.00    +0.000 HD
BRANCH  16  18
ATOM     18  C   UNL     1       4.150   2.818  18.987  0.00  0.00    +0.000 C 
BRANCH  18  19
ATOM     19  C   UNL     1       3.302   3.036  20.243  0.00  0.00    +0.000 C 
BRANCH  19  21
ATOM     20  C   UNL     1       1.083   3.827  20.371  0.00  0.00    +0.000 C 
ATOM     21  O   UNL     1       1.926   2.763  19.949  0.00  0.00    +0.000 OA
ENDBRANCH  19  21
ENDBRANCH  18  19
ENDBRANCH  16  18
ENDBRANCH  14  16
ENDBRANCH  12  14
ENDBRANCH   1  12
TORSDOF 8
ENDMDL
MODEL 8
REMARK VINA RESULT:      -5.6      0.888      1.236
REMARK  Name = 
REMARK  9 active torsions:
REMARK  status: ('A' for Active; 'I' for Inactive)
REMARK    1  A    between atoms: C_1  and  O_2
REMARK    2  A    between atoms: O_2  and  C_3
REMARK    3  A    between atoms: C_3  and  C_4
REMARK    4  A    between atoms: C_4  and  N_5
REMARK    5  A    between atoms: N_5  and  C_6
REMARK    6  A    between atoms: C_6  and  N_8
REMARK    7  A    between atoms: N_8  and  N_9
REMARK    8  A    between atoms: C_10  and  C_11
REMARK    9  A    between atoms: C_14  and  N_15
REMARK                            x       y       z     vdW  Elec       q    Type
REMARK                         _______ _______ _______ _____ _____    ______ ____
ROOT
ATOM      1  N   UNL     1       2.305   5.028  18.082  0.00  0.00    +0.000 NA
ATOM      2  C   UNL     1       2.940   6.158  18.075  0.00  0.00    +0.000 C 
ENDROOT
BRANCH   2   3
ATOM      3  C   UNL     1       2.306   7.352  18.675  0.00  0.00    +0.000 A 
ATOM      4  C   UNL     1       2.028   8.470  17.875  0.00  0.00    +0.000 A 
ATOM      5  C   UNL     1       1.442   9.606  18.428  0.00  0.00    +0.000 A 
ATOM      6  C   UNL     1       1.127   9.619  19.793  0.00  0.00    +0.000 A 
ATOM      7  C   UNL     1       1.392   8.499  20.599  0.00  0.00    +0.000 A 
ATOM      8  C   UNL     1       1.983   7.361  20.036  0.00  0.00    +0.000 A 
BRANCH   6   9
ATOM      9  N   UNL     1       0.518  10.818  20.380  0.00  0.00    +0.000 N 
ATOM     10  O   UNL     1       0.650  11.890  19.770  0.00  0.00    +0.000 OA
ATOM     11  O   UNL     1      -0.092  10.689  21.451  0.00  0.00    +0.000 OA
ENDBRANCH   6   9
ENDBRANCH   2   3
BRANCH   1  12
ATOM     12  N   UNL     1       2.947   3.965  17.524  0.00  0.00    +0.000 N 
ATOM     13  H   UNL     1       2.760   3.680  16.568  0.00  0.00    +0.000 HD
BRANCH  12  14
ATOM     14  C   UNL     1       4.007   3.377  18.187  0.00  0.00    +0.000 C 
ATOM     15  S   UNL     1       3.807   2.789  19.731  0.00  0.00    +0.000 S 
BRANCH  14  16
ATOM     16  N   UNL     1       5.138   3.296  17.421  0.00  0.00    +0.000 N 
ATOM     17  H   UNL     1       5.656   2.435  17.575  0.00  0.00    +0.000 HD
BRANCH  16  18
ATOM     18  C   UNL     1       5.582   4.182  16.358  0.00  0.00    +0.000 C 
BRANCH  18  19
ATOM     19  C   UNL     1       6.988   4.715  16.641  0.00  0.00    +0.000 C 
BRANCH  19  21
ATOM     20  C   UNL     1       6.838   4.822  14.289  0.00  0.00    +0.000 C 
ATOM     21  O   UNL     1       7.712   4.844  15.411  0.00  0.00    +0.000 OA
ENDBRANCH  19  21
ENDBRANCH  18  19
ENDBRANCH  16  18
ENDBRANCH  14  16
ENDBRANCH  12  14
ENDBRANCH   1  12
TORSDOF 8
ENDMDL
MODEL 9
REMARK VINA RESULT:      -5.6      3.751      7.884
REMARK  Name = 
REMARK  9 active torsions:
REMARK  status: ('A' for Active; 'I' for Inactive)
REMARK    1  A    between atoms: C_1  and  O_2
REMARK    2  A    between atoms: O_2  and  C_3
REMARK    3  A    between atoms: C_3  and  C_4
REMARK    4  A    between atoms: C_4  and  N_5
REMARK    5  A    between atoms: N_5  and  C_6
REMARK    6  A    between atoms: C_6  and  N_8
REMARK    7  A    between atoms: N_8  and  N_9
REMARK    8  A    between atoms: C_10  and  C_11
REMARK    9  A    between atoms: C_14  and  N_15
REMARK                            x       y       z     vdW  Elec       q    Type
REMARK                         _______ _______ _______ _____ _____    ______ ____
ROOT
ATOM      1  N   UNL     1       2.194   9.687  18.030  0.00  0.00    +0.000 NA
ATOM      2  C   UNL     1       1.738   8.492  18.233  0.00  0.00    +0.000 C 
ENDROOT
BRANCH   2   3
ATOM      3  C   UNL     1       2.688   7.374  18.432  0.00  0.00    +0.000 A 
ATOM      4  C   UNL     1       2.498   6.480  19.495  0.00  0.00    +0.000 A 
ATOM      5  C   UNL     1       3.390   5.430  19.702  0.00  0.00    +0.000 A 
ATOM      6  C   UNL     1       4.477   5.273  18.833  0.00  0.00    +0.000 A 
ATOM      7  C   UNL     1       4.667   6.158  17.759  0.00  0.00    +0.000 A 
ATOM      8  C   UNL     1       3.767   7.212  17.559  0.00  0.00    +0.000 A 
BRANCH   6   9
ATOM      9  N   UNL     1       5.423   4.173  19.055  0.00  0.00    +0.000 N 
ATOM     10  O   UNL     1       4.987   3.131  19.565  0.00  0.00    +0.000 OA
ATOM     11  O   UNL     1       6.603   4.352  18.719  0.00  0.00    +0.000 OA
ENDBRANCH   6   9
ENDBRANCH   2   3
BRANCH   1  12
ATOM     12  N   UNL     1       1.270  10.672  17.865  0.00  0.00    +0.000 N 
ATOM     13  H   UNL     1       1.197  11.184  16.991  0.00  0.00    +0.000 HD
BRANCH  12  14
ATOM     14  C   UNL     1       0.286  10.858  18.816  0.00  0.00    +0.000 C 
ATOM     15  S   UNL     1       0.680  11.425  20.331  0.00  0.00    +0.000 S 
BRANCH  14  16
ATOM     16  N   UNL     1      -0.971  10.592  18.345  0.00  0.00    +0.000 N 
ATOM     17  H   UNL     1      -1.256   9.630  18.503  0.00  0.00    +0.000 HD
BRANCH  16  18
ATOM     18  C   UNL     1      -1.955  11.518  17.807  0.00  0.00    +0.000 C 
BRANCH  18  19
ATOM     19  C   UNL     1      -2.952  10.792  16.901  0.00  0.00    +0.000 C 
BRANCH  19  21
ATOM     20  C   UNL     1      -3.355  10.180  14.658  0.00  0.00    +0.000 C 
ATOM     21  O   UNL     1      -2.615  11.027  15.528  0.00  0.00    +0.000 OA
ENDBRANCH  19  21
ENDBRANCH  18  19
ENDBRANCH  16  18
ENDBRANCH  14  16
ENDBRANCH  12  14
ENDBRANCH   1  12
TORSDOF 8
ENDMDL
