MODEL 1
REMARK VINA RESULT:      -8.0      0.000      0.000
REMARK  Name = 
REMARK  8 active torsions:
REMARK  status: ('A' for Active; 'I' for Inactive)
REMARK    1  A    between atoms: C_1  and  O_2
REMARK    2  A    between atoms: O_2  and  C_3
REMARK    3  A    between atoms: C_8  and  C_9
REMARK    4  A    between atoms: C_9  and  N_10
REMARK    5  A    between atoms: C_11  and  C_13
REMARK    6  A    between atoms: C_15  and  C_16
REMARK    7  A    between atoms: C_22  and  C_23
REMARK    8  A    between atoms: C_22  and  C_24
REMARK                            x       y       z     vdW  Elec       q    Type
REMARK                         _______ _______ _______ _____ _____    ______ ____
ROOT
ATOM      1  N   UNL     1       1.475   8.950  19.347  0.00  0.00    +0.000 N 
ATOM      2  C   UNL     1       2.182   8.510  18.247  0.00  0.00    +0.000 C 
ATOM      3  O   UNL     1       2.264   9.196  17.228  0.00  0.00    +0.000 OA
ATOM      4  H   UNL     1       1.476   8.378  20.180  0.00  0.00    +0.000 HD
ENDROOT
BRANCH   2   5
ATOM      5  C   UNL     1       2.792   7.189  18.348  0.00  0.00    +0.000 A 
ATOM      6  S   UNL     1       4.119   6.697  17.347  0.00  0.00    +0.000 S 
ATOM      7  C   UNL     1       4.349   5.216  18.198  0.00  0.00    +0.000 A 
ATOM      8  C   UNL     1       5.439   4.268  17.850  0.00  0.00    +0.000 C 
ATOM      9  C   UNL     1       3.384   5.096  19.152  0.00  0.00    +0.000 A 
ATOM     10  C   UNL     1       2.494   6.187  19.247  0.00  0.00    +0.000 A 
ATOM     11  C   UNL     1       1.561   6.052  20.406  0.00  0.00    +0.000 C 
ATOM     12  C   UNL     1       2.083   4.804  21.139  0.00  0.00    +0.000 C 
ATOM     13  C   UNL     1       3.184   4.116  20.285  0.00  0.00    +0.000 C 
ATOM     14  C   UNL     1       1.892   3.397  20.630  0.00  0.00    +0.000 C 
ATOM     15  C   UNL     1       2.004   2.289  21.656  0.00  0.00    +0.000 C 
ATOM     16  C   UNL     1       0.907   3.081  19.535  0.00  0.00    +0.000 C 
ENDBRANCH   2   5
BRANCH   1  17
ATOM     17  C   UNL     1       0.768  10.213  19.384  0.00  0.00    +0.000 C 
BRANCH  17  23
ATOM     18  C   UNL     1      -0.449  11.708  21.066  0.00  0.00    +0.000 A 
ATOM     19  C   UNL     1      -1.086  11.859  22.305  0.00  0.00    +0.000 A 
ATOM     20  C   UNL     1      -1.147  10.799  23.209  0.00  0.00    +0.000 A 
ATOM     21  C   UNL     1      -0.586   9.570  22.877  0.00  0.00    +0.000 A 
ATOM     22  C   UNL     1       0.020   9.401  21.634  0.00  0.00    +0.000 A 
ATOM     23  C   UNL     1       0.095  10.461  20.710  0.00  0.00    +0.000 A 
BRANCH  18  25
ATOM     24  C   UNL     1      -1.435  13.655  20.155  0.00  0.00    +0.000 C 
ATOM     25  O   UNL     1      -0.354  12.725  20.147  0.00  0.00    +0.000 OA
ENDBRANCH  18  25
ENDBRANCH  17  23
ENDBRANCH   1  17
TORSDOF 4
ENDMDL
MODEL 2
REMARK VINA RESULT:      -7.8      2.337      4.252
REMARK  Name = 
REMARK  8 active torsions:
REMARK  status: ('A' for Active; 'I' for Inactive)
REMARK    1  A    between atoms: C_1  and  O_2
REMARK    2  A    between atoms: O_2  and  C_3
REMARK    3  A    between atoms: C_8  and  C_9
REMARK    4  A    between atoms: C_9  and  N_10
REMARK    5  A    between atoms: C_11  and  C_13
REMARK    6  A    between atoms: C_15  and  C_16
REMARK    7  A    between atoms: C_22  and  C_23
REMARK    8  A    between atoms: C_22  and  C_24
REMARK                            x       y       z     vdW  Elec       q    Type
REMARK                         _______ _______ _______ _____ _____    ______ ____
ROOT
ATOM      1  N   UNL     1       2.459   6.807  20.422  0.00  0.00    +0.000 N 
ATOM      2  C   UNL     1       1.923   5.547  20.260  0.00  0.00    +0.000 C 
ATOM      3  O   UNL     1       0.821   5.259  20.729  0.00  0.00    +0.000 OA
ATOM      4  H   UNL     1       3.342   7.016  19.977  0.00  0.00    +0.000 HD
ENDROOT
BRANCH   2   5
ATOM      5  C   UNL     1       2.738   4.577  19.538  0.00  0.00    +0.000 A 
ATOM      6  S   UNL     1       2.634   2.871  19.828  0.00  0.00    +0.000 S 
ATOM      7  C   UNL     1       3.676   2.476  18.514  0.00  0.00    +0.000 A 
ATOM      8  C   UNL     1       3.994   1.070  18.154  0.00  0.00    +0.000 C 
ATOM      9  C   UNL     1       4.131   3.628  17.946  0.00  0.00    +0.000 A 
ATOM     10  C   UNL     1       3.626   4.818  18.511  0.00  0.00    +0.000 A 
ATOM     11  C   UNL     1       4.052   6.029  17.746  0.00  0.00    +0.000 C 
ATOM     12  C   UNL     1       4.765   5.439  16.516  0.00  0.00    +0.000 C 
ATOM     13  C   UNL     1       4.921   3.902  16.685  0.00  0.00    +0.000 C 
ATOM     14  C   UNL     1       6.133   4.808  16.568  0.00  0.00    +0.000 C 
ATOM     15  C   UNL     1       6.891   4.734  15.260  0.00  0.00    +0.000 C 
ATOM     16  C   UNL     1       7.040   4.987  17.758  0.00  0.00    +0.000 C 
ENDBRANCH   2   5
BRANCH   1  17
ATOM     17  C   UNL     1       1.797   7.863  21.159  0.00  0.00    +0.000 C 
BRANCH  17  23
ATOM     18  C   UNL     1      -0.050   9.575  20.704  0.00  0.00    +0.000 A 
ATOM     19  C   UNL     1      -0.681  10.461  19.821  0.00  0.00    +0.000 A 
ATOM     20  C   UNL     1      -0.263  10.565  18.495  0.00  0.00    +0.000 A 
ATOM     21  C   UNL     1       0.802   9.795  18.040  0.00  0.00    +0.000 A 
ATOM     22  C   UNL     1       1.458   8.935  18.919  0.00  0.00    +0.000 A 
ATOM     23  C   UNL     1       1.047   8.815  20.261  0.00  0.00    +0.000 A 
BRANCH  18  25
ATOM     24  C   UNL     1      -0.787  10.639  22.683  0.00  0.00    +0.000 C 
ATOM     25  O   UNL     1      -0.431   9.430  22.016  0.00  0.00    +0.000 OA
ENDBRANCH  18  25
ENDBRANCH  17  23
ENDBRANCH   1  17
TORSDOF 4
ENDMDL
MODEL 3
REMARK VINA RESULT:      -7.7      2.192      4.082
REMARK  Name = 
REMARK  8 active torsions:
REMARK  status: ('A' for Active; 'I' for Inactive)
REMARK    1  A    between atoms: C_1  and  O_2
REMARK    2  A    between atoms: O_2  and  C_3
REMARK    3  A    between atoms: C_8  and  C_9
REMARK    4  A    between atoms: C_9  and  N_10
REMARK    5  A    between atoms: C_11  and  C_13
REMARK    6  A    between atoms: C_15  and  C_16
REMARK    7  A    between atoms: C_22  and  C_23
REMARK    8  A    between atoms: C_22  and  C_24
REMARK                            x       y       z     vdW  Elec       q    Type
REMARK                         _______ _______ _______ _____ _____    ______ ____
ROOT
ATOM      1  N   UNL     1       2.009   8.619  18.350  0.00  0.00    +0.000 N 
ATOM      2  C   UNL     1       2.200   7.582  19.239  0.00  0.00    +0.000 C 
ATOM      3  O   UNL     1       2.024   7.740  20.447  0.00  0.00    +0.000 OA
ATOM      4  H   UNL     1       2.115   8.432  17.363  0.00  0.00    +0.000 HD
ENDROOT
BRANCH   2   5
ATOM      5  C   UNL     1       2.648   6.313  18.678  0.00  0.00    +0.000 A 
ATOM      6  S   UNL     1       1.847   4.812  19.008  0.00  0.00    +0.000 S 
ATOM      7  C   UNL     1       2.799   3.931  17.874  0.00  0.00    +0.000 A 
ATOM      8  C   UNL     1       2.578   2.485  17.613  0.00  0.00    +0.000 C 
ATOM      9  C   UNL     1       3.735   4.763  17.338  0.00  0.00    +0.000 A 
ATOM     10  C   UNL     1       3.676   6.102  17.782  0.00  0.00    +0.000 A 
ATOM     11  C   UNL     1       4.633   6.981  17.045  0.00  0.00    +0.000 C 
ATOM     12  C   UNL     1       5.197   6.056  15.954  0.00  0.00    +0.000 C 
ATOM     13  C   UNL     1       4.714   4.599  16.197  0.00  0.00    +0.000 C 
ATOM     14  C   UNL     1       6.190   4.954  16.226  0.00  0.00    +0.000 C 
ATOM     15  C   UNL     1       7.008   4.477  15.045  0.00  0.00    +0.000 C 
ATOM     16  C   UNL     1       6.944   4.874  17.528  0.00  0.00    +0.000 C 
ENDBRANCH   2   5
BRANCH   1  17
ATOM     17  C   UNL     1       1.618   9.952  18.756  0.00  0.00    +0.000 C 
BRANCH  17  23
ATOM     18  C   UNL     1      -0.613  11.032  19.393  0.00  0.00    +0.000 A 
ATOM     19  C   UNL     1      -1.967  11.257  19.112  0.00  0.00    +0.000 A 
ATOM     20  C   UNL     1      -2.579  10.646  18.019  0.00  0.00    +0.000 A 
ATOM     21  C   UNL     1      -1.841   9.814  17.184  0.00  0.00    +0.000 A 
ATOM     22  C   UNL     1      -0.485   9.611  17.436  0.00  0.00    +0.000 A 
ATOM     23  C   UNL     1       0.149  10.217  18.537  0.00  0.00    +0.000 A 
BRANCH  18  25
ATOM     24  C   UNL     1      -0.451  11.210  21.745  0.00  0.00    +0.000 C 
ATOM     25  O   UNL     1       0.033  11.603  20.463  0.00  0.00    +0.000 OA
ENDBRANCH  18  25
ENDBRANCH  17  23
ENDBRANCH   1  17
TORSDOF 4
ENDMDL
MODEL 4
REMARK VINA RESULT:      -7.7      1.453      3.369
REMARK  Name = 
REMARK  8 active torsions:
REMARK  status: ('A' for Active; 'I' for Inactive)
REMARK    1  A    between atoms: C_1  and  O_2
REMARK    2  A    between atoms: O_2  and  C_3
REMARK    3  A    between atoms: C_8  and  C_9
REMARK    4  A    between atoms: C_9  and  N_10
REMARK    5  A    between atoms: C_11  and  C_13
REMARK    6  A    between atoms: C_15  and  C_16
REMARK    7  A    between atoms: C_22  and  C_23
REMARK    8  A    between atoms: C_22  and  C_24
REMARK                            x       y       z     vdW  Elec       q    Type
REMARK                         _______ _______ _______ _____ _____    ______ ____
ROOT
ATOM      1  N   UNL     1       1.517   8.938  19.426  0.00  0.00    +0.000 N 
ATOM      2  C   UNL     1       2.139   8.448  18.297  0.00  0.00    +0.000 C 
ATOM      3  O   UNL     1       2.077   9.050  17.225  0.00  0.00    +0.000 OA
ATOM      4  H   UNL     1       1.636   8.438  20.296  0.00  0.00    +0.000 HD
ENDROOT
BRANCH   2   5
ATOM      5  C   UNL     1       2.837   7.175  18.435  0.00  0.00    +0.000 A 
ATOM      6  S   UNL     1       2.431   6.017  19.659  0.00  0.00    +0.000 S 
ATOM      7  C   UNL     1       3.493   4.816  19.024  0.00  0.00    +0.000 A 
ATOM      8  C   UNL     1       3.602   3.462  19.627  0.00  0.00    +0.000 C 
ATOM      9  C   UNL     1       4.173   5.338  17.966  0.00  0.00    +0.000 A 
ATOM     10  C   UNL     1       3.828   6.663  17.624  0.00  0.00    +0.000 A 
ATOM     11  C   UNL     1       4.505   7.114  16.370  0.00  0.00    +0.000 C 
ATOM     12  C   UNL     1       5.203   5.840  15.865  0.00  0.00    +0.000 C 
ATOM     13  C   UNL     1       5.092   4.719  16.936  0.00  0.00    +0.000 C 
ATOM     14  C   UNL     1       6.442   5.260  16.501  0.00  0.00    +0.000 C 
ATOM     15  C   UNL     1       7.275   4.340  15.635  0.00  0.00    +0.000 C 
ATOM     16  C   UNL     1       7.272   6.051  17.479  0.00  0.00    +0.000 C 
ENDBRANCH   2   5
BRANCH   1  17
ATOM     17  C   UNL     1       0.740  10.159  19.439  0.00  0.00    +0.000 C 
BRANCH  17  23
ATOM     18  C   UNL     1      -0.837  11.462  20.976  0.00  0.00    +0.000 A 
ATOM     19  C   UNL     1      -1.461  11.604  22.222  0.00  0.00    +0.000 A 
ATOM     20  C   UNL     1      -1.174  10.726  23.267  0.00  0.00    +0.000 A 
ATOM     21  C   UNL     1      -0.272   9.686  23.073  0.00  0.00    +0.000 A 
ATOM     22  C   UNL     1       0.329   9.517  21.826  0.00  0.00    +0.000 A 
ATOM     23  C   UNL     1       0.054  10.396  20.761  0.00  0.00    +0.000 A 
BRANCH  18  25
ATOM     24  C   UNL     1      -2.367  12.179  19.322  0.00  0.00    +0.000 C 
ATOM     25  O   UNL     1      -1.079  12.306  19.920  0.00  0.00    +0.000 OA
ENDBRANCH  18  25
ENDBRANCH  17  23
ENDBRANCH   1  17
TORSDOF 4
ENDMDL
MODEL 5
REMARK VINA RESULT:      -7.6      2.170      7.888
REMARK  Name = 
REMARK  8 active torsions:
REMARK  status: ('A' for Active; 'I' for Inactive)
REMARK    1  A    between atoms: C_1  and  O_2
REMARK    2  A    between atoms: O_2  and  C_3
REMARK    3  A    between atoms: C_8  and  C_9
REMARK    4  A    between atoms: C_9  and  N_10
REMARK    5  A    between atoms: C_11  and  C_13
REMARK    6  A    between atoms: C_15  and  C_16
REMARK    7  A    between atoms: C_22  and  C_23
REMARK    8  A    between atoms: C_22  and  C_24
REMARK                            x       y       z     vdW  Elec       q    Type
REMARK                         _______ _______ _______ _____ _____    ______ ____
ROOT
ATOM      1  N   UNL     1       2.322   6.994  20.424  0.00  0.00    +0.000 N 
ATOM      2  C   UNL     1       1.907   8.005  19.582  0.00  0.00    +0.000 C 
ATOM      3  O   UNL     1       2.239   8.021  18.396  0.00  0.00    +0.000 OA
ATOM      4  H   UNL     1       1.984   6.992  21.376  0.00  0.00    +0.000 HD
ENDROOT
BRANCH   2   5
ATOM      5  C   UNL     1       1.090   9.057  20.176  0.00  0.00    +0.000 A 
ATOM      6  S   UNL     1       0.192   8.826  21.640  0.00  0.00    +0.000 S 
ATOM      7  C   UNL     1      -0.267  10.483  21.746  0.00  0.00    +0.000 A 
ATOM      8  C   UNL     1      -1.072  11.008  22.879  0.00  0.00    +0.000 C 
ATOM      9  C   UNL     1       0.198  11.145  20.649  0.00  0.00    +0.000 A 
ATOM     10  C   UNL     1       0.953  10.362  19.750  0.00  0.00    +0.000 A 
ATOM     11  C   UNL     1       1.550  11.183  18.654  0.00  0.00    +0.000 C 
ATOM     12  C   UNL     1       1.210  12.626  19.066  0.00  0.00    +0.000 C 
ATOM     13  C   UNL     1       0.247  12.612  20.286  0.00  0.00    +0.000 C 
ATOM     14  C   UNL     1      -0.172  13.220  18.959  0.00  0.00    +0.000 C 
ATOM     15  C   UNL     1      -0.255  14.731  18.921  0.00  0.00    +0.000 C 
ATOM     16  C   UNL     1      -1.257  12.555  18.151  0.00  0.00    +0.000 C 
ENDBRANCH   2   5
BRANCH   1  17
ATOM     17  C   UNL     1       3.180   5.909  19.999  0.00  0.00    +0.000 C 
BRANCH  17  23
ATOM     18  C   UNL     1       2.530   4.167  18.240  0.00  0.00    +0.000 A 
ATOM     19  C   UNL     1       1.796   3.028  17.885  0.00  0.00    +0.000 A 
ATOM     20  C   UNL     1       0.906   2.444  18.786  0.00  0.00    +0.000 A 
ATOM     21  C   UNL     1       0.750   2.985  20.058  0.00  0.00    +0.000 A 
ATOM     22  C   UNL     1       1.500   4.099  20.431  0.00  0.00    +0.000 A 
ATOM     23  C   UNL     1       2.401   4.703  19.533  0.00  0.00    +0.000 A 
BRANCH  18  25
ATOM     24  C   UNL     1       4.379   3.924  16.787  0.00  0.00    +0.000 C 
ATOM     25  O   UNL     1       3.411   4.784  17.385  0.00  0.00    +0.000 OA
ENDBRANCH  18  25
ENDBRANCH  17  23
ENDBRANCH   1  17
TORSDOF 4
ENDMDL
MODEL 6
REMARK VINA RESULT:      -7.6      2.388      7.892
REMARK  Name = 
REMARK  8 active torsions:
REMARK  status: ('A' for Active; 'I' for Inactive)
REMARK    1  A    between atoms: C_1  and  O_2
REMARK    2  A    between atoms: O_2  and  C_3
REMARK    3  A    between atoms: C_8  and  C_9
REMARK    4  A    between atoms: C_9  and  N_10
REMARK    5  A    between atoms: C_11  and  C_13
REMARK    6  A    between atoms: C_15  and  C_16
REMARK    7  A    between atoms: C_22  and  C_23
REMARK    8  A    between atoms: C_22  and  C_24
REMARK                            x       y       z     vdW  Elec       q    Type
REMARK                         _______ _______ _______ _____ _____    ______ ____
ROOT
ATOM      1  N   UNL     1       2.641   7.003  18.564  0.00  0.00    +0.000 N 
ATOM      2  C   UNL     1       2.174   8.287  18.373  0.00  0.00    +0.000 C 
ATOM      3  O   UNL     1       2.387   8.891  17.322  0.00  0.00    +0.000 OA
ATOM      4  H   UNL     1       2.400   6.526  19.421  0.00  0.00    +0.000 HD
ENDROOT
BRANCH   2   5
ATOM      5  C   UNL     1       1.451   8.892  19.486  0.00  0.00    +0.000 A 
ATOM      6  S   UNL     1       1.217   8.079  20.999  0.00  0.00    +0.000 S 
ATOM      7  C   UNL     1       0.526   9.463  21.757  0.00  0.00    +0.000 A 
ATOM      8  C   UNL     1       0.112   9.456  23.184  0.00  0.00    +0.000 C 
ATOM      9  C   UNL     1       0.419  10.465  20.842  0.00  0.00    +0.000 A 
ATOM     10  C   UNL     1       0.923  10.164  19.558  0.00  0.00    +0.000 A 
ATOM     11  C   UNL     1       0.906  11.353  18.654  0.00  0.00    +0.000 C 
ATOM     12  C   UNL     1       0.476  12.501  19.584  0.00  0.00    +0.000 C 
ATOM     13  C   UNL     1       0.052  11.927  20.965  0.00  0.00    +0.000 C 
ATOM     14  C   UNL     1      -0.933  12.680  20.090  0.00  0.00    +0.000 C 
ATOM     15  C   UNL     1      -1.308  14.070  20.559  0.00  0.00    +0.000 C 
ATOM     16  C   UNL     1      -2.093  11.939  19.476  0.00  0.00    +0.000 C 
ENDBRANCH   2   5
BRANCH   1  17
ATOM     17  C   UNL     1       3.421   6.287  17.577  0.00  0.00    +0.000 C 
BRANCH  17  23
ATOM     18  C   UNL     1       5.376   5.429  18.988  0.00  0.00    +0.000 A 
ATOM     19  C   UNL     1       6.753   5.392  19.245  0.00  0.00    +0.000 A 
ATOM     20  C   UNL     1       7.639   6.166  18.496  0.00  0.00    +0.000 A 
ATOM     21  C   UNL     1       7.159   6.974  17.470  0.00  0.00    +0.000 A 
ATOM     22  C   UNL     1       5.795   6.991  17.186  0.00  0.00    +0.000 A 
ATOM     23  C   UNL     1       4.886   6.219  17.934  0.00  0.00    +0.000 A 
BRANCH  18  25
ATOM     24  C   UNL     1       4.478   3.290  19.448  0.00  0.00    +0.000 C 
ATOM     25  O   UNL     1       4.464   4.693  19.704  0.00  0.00    +0.000 OA
ENDBRANCH  18  25
ENDBRANCH  17  23
ENDBRANCH   1  17
TORSDOF 4
ENDMDL
MODEL 7
REMARK VINA RESULT:      -7.6      2.239      8.028
REMARK  Name = 
REMARK  8 active torsions:
REMARK  status: ('A' for Active; 'I' for Inactive)
REMARK    1  A    between atoms: C_1  and  O_2
REMARK    2  A    between atoms: O_2  and  C_3
REMARK    3  A    between atoms: C_8  and  C_9
REMARK    4  A    between atoms: C_9  and  N_10
REMARK    5  A    between atoms: C_11  and  C_13
REMARK    6  A    between atoms: C_15  and  C_16
REMARK    7  A    between atoms: C_22  and  C_23
REMARK    8  A    between atoms: C_22  and  C_24
REMARK                            x       y       z     vdW  Elec       q    Type
REMARK                         _______ _______ _______ _____ _____    ______ ____
ROOT
ATOM      1  N   UNL     1       2.605   7.109  18.815  0.00  0.00    +0.000 N 
ATOM      2  C   UNL     1       2.088   8.357  18.539  0.00  0.00    +0.000 C 
ATOM      3  O   UNL     1       2.291   8.904  17.454  0.00  0.00    +0.000 OA
ATOM      4  H   UNL     1       2.371   6.676  19.698  0.00  0.00    +0.000 HD
ENDROOT
BRANCH   2   5
ATOM      5  C   UNL     1       1.325   9.000  19.603  0.00  0.00    +0.000 A 
ATOM      6  S   UNL     1       1.030   8.236  21.131  0.00  0.00    +0.000 S 
ATOM      7  C   UNL     1       0.315   9.646  21.817  0.00  0.00    +0.000 A 
ATOM      8  C   UNL     1      -0.154   9.686  23.227  0.00  0.00    +0.000 C 
ATOM      9  C   UNL     1       0.247  10.619  20.866  0.00  0.00    +0.000 A 
ATOM     10  C   UNL     1       0.799  10.275  19.613  0.00  0.00    +0.000 A 
ATOM     11  C   UNL     1       0.822  11.434  18.671  0.00  0.00    +0.000 C 
ATOM     12  C   UNL     1       0.360  12.612  19.547  0.00  0.00    +0.000 C 
ATOM     13  C   UNL     1      -0.119  12.085  20.928  0.00  0.00    +0.000 C 
ATOM     14  C   UNL     1      -1.067  12.811  19.992  0.00  0.00    +0.000 C 
ATOM     15  C   UNL     1      -1.455  14.216  20.402  0.00  0.00    +0.000 C 
ATOM     16  C   UNL     1      -2.205  12.054  19.358  0.00  0.00    +0.000 C 
ENDBRANCH   2   5
BRANCH   1  17
ATOM     17  C   UNL     1       3.428   6.366  17.885  0.00  0.00    +0.000 C 
BRANCH  17  23
ATOM     18  C   UNL     1       4.074   3.908  17.585  0.00  0.00    +0.000 A 
ATOM     19  C   UNL     1       3.718   2.554  17.631  0.00  0.00    +0.000 A 
ATOM     20  C   UNL     1       2.410   2.170  17.926  0.00  0.00    +0.000 A 
ATOM     21  C   UNL     1       1.447   3.136  18.193  0.00  0.00    +0.000 A 
ATOM     22  C   UNL     1       1.799   4.484  18.183  0.00  0.00    +0.000 A 
ATOM     23  C   UNL     1       3.113   4.891  17.884  0.00  0.00    +0.000 A 
BRANCH  18  25
ATOM     24  C   UNL     1       5.739   4.181  15.928  0.00  0.00    +0.000 C 
ATOM     25  O   UNL     1       5.346   4.336  17.290  0.00  0.00    +0.000 OA
ENDBRANCH  18  25
ENDBRANCH  17  23
ENDBRANCH   1  17
TORSDOF 4
ENDMDL
MODEL 8
REMARK VINA RESULT:      -7.5      2.270      7.883
REMARK  Name = 
REMARK  8 active torsions:
REMARK  status: ('A' for Active; 'I' for Inactive)
REMARK    1  A    between atoms: C_1  and  O_2
REMARK    2  A    between atoms: O_2  and  C_3
REMARK    3  A    between atoms: C_8  and  C_9
REMARK    4  A    between atoms: C_9  and  N_10
REMARK    5  A    between atoms: C_11  and  C_13
REMARK    6  A    between atoms: C_15  and  C_16
REMARK    7  A    between atoms: C_22  and  C_23
REMARK    8  A    between atoms: C_22  and  C_24
REMARK                            x       y       z     vdW  Elec       q    Type
REMARK                         _______ _______ _______ _____ _____    ______ ____
ROOT
ATOM      1  N   UNL     1       2.457   6.965  18.678  0.00  0.00    +0.000 N 
ATOM      2  C   UNL     1       2.080   8.278  18.485  0.00  0.00    +0.000 C 
ATOM      3  O   UNL     1       2.374   8.879  17.452  0.00  0.00    +0.000 OA
ATOM      4  H   UNL     1       2.151   6.494  19.518  0.00  0.00    +0.000 HD
ENDROOT
BRANCH   2   5
ATOM      5  C   UNL     1       1.350   8.915  19.576  0.00  0.00    +0.000 A 
ATOM      6  S   UNL     1       1.101   8.143  21.107  0.00  0.00    +0.000 S 
ATOM      7  C   UNL     1       0.408   9.549  21.823  0.00  0.00    +0.000 A 
ATOM      8  C   UNL     1      -0.017   9.582  23.246  0.00  0.00    +0.000 C 
ATOM      9  C   UNL     1       0.313  10.528  20.880  0.00  0.00    +0.000 A 
ATOM     10  C   UNL     1       0.826  10.191  19.609  0.00  0.00    +0.000 A 
ATOM     11  C   UNL     1       0.822  11.355  18.674  0.00  0.00    +0.000 C 
ATOM     12  C   UNL     1       0.389  12.529  19.569  0.00  0.00    +0.000 C 
ATOM     13  C   UNL     1      -0.048  11.994  20.962  0.00  0.00    +0.000 C 
ATOM     14  C   UNL     1      -1.023  12.727  20.058  0.00  0.00    +0.000 C 
ATOM     15  C   UNL     1      -1.397  14.130  20.488  0.00  0.00    +0.000 C 
ATOM     16  C   UNL     1      -2.181  11.975  19.455  0.00  0.00    +0.000 C 
ENDBRANCH   2   5
BRANCH   1  17
ATOM     17  C   UNL     1       3.232   6.212  17.714  0.00  0.00    +0.000 C 
BRANCH  17  23
ATOM     18  C   UNL     1       4.288   4.325  19.082  0.00  0.00    +0.000 A 
ATOM     19  C   UNL     1       4.354   2.964  19.409  0.00  0.00    +0.000 A 
ATOM     20  C   UNL     1       3.564   2.031  18.739  0.00  0.00    +0.000 A 
ATOM     21  C   UNL     1       2.687   2.450  17.744  0.00  0.00    +0.000 A 
ATOM     22  C   UNL     1       2.590   3.805  17.435  0.00  0.00    +0.000 A 
ATOM     23  C   UNL     1       3.382   4.761  18.099  0.00  0.00    +0.000 A 
BRANCH  18  25
ATOM     24  C   UNL     1       6.400   5.373  19.253  0.00  0.00    +0.000 C 
ATOM     25  O   UNL     1       5.051   5.281  19.707  0.00  0.00    +0.000 OA
ENDBRANCH  18  25
ENDBRANCH  17  23
ENDBRANCH   1  17
TORSDOF 4
ENDMDL
MODEL 9
REMARK VINA RESULT:      -7.4      2.781      7.794
REMARK  Name = 
REMARK  8 active torsions:
REMARK  status: ('A' for Active; 'I' for Inactive)
REMARK    1  A    between atoms: C_1  and  O_2
REMARK    2  A    between atoms: O_2  and  C_3
REMARK    3  A    between atoms: C_8  and  C_9
REMARK    4  A    between atoms: C_9  and  N_10
REMARK    5  A    between atoms: C_11  and  C_13
REMARK    6  A    between atoms: C_15  and  C_16
REMARK    7  A    between atoms: C_22  and  C_23
REMARK    8  A    between atoms: C_22  and  C_24
REMARK                            x       y       z     vdW  Elec       q    Type
REMARK                         _______ _______ _______ _____ _____    ______ ____
ROOT
ATOM      1  N   UNL     1       1.684   7.847  19.612  0.00  0.00    +0.000 N 
ATOM      2  C   UNL     1       1.507   8.996  18.869  0.00  0.00    +0.000 C 
ATOM      3  O   UNL     1       2.258   9.270  17.933  0.00  0.00    +0.000 OA
ATOM      4  H   UNL     1       1.014   7.636  20.338  0.00  0.00    +0.000 HD
ENDROOT
BRANCH   2   5
ATOM      5  C   UNL     1       0.412   9.872  19.270  0.00  0.00    +0.000 A 
ATOM      6  S   UNL     1       0.401  10.717  20.783  0.00  0.00    +0.000 S 
ATOM      7  C   UNL     1      -1.015  11.618  20.391  0.00  0.00    +0.000 A 
ATOM      8  C   UNL     1      -1.581  12.637  21.312  0.00  0.00    +0.000 C 
ATOM      9  C   UNL     1      -1.480  11.210  19.178  0.00  0.00    +0.000 A 
ATOM     10  C   UNL     1      -0.701  10.224  18.535  0.00  0.00    +0.000 A 
ATOM     11  C   UNL     1      -1.188   9.934  17.153  0.00  0.00    +0.000 C 
ATOM     12  C   UNL     1      -2.288  10.988  16.936  0.00  0.00    +0.000 C 
ATOM     13  C   UNL     1      -2.563  11.742  18.267  0.00  0.00    +0.000 C 
ATOM     14  C   UNL     1      -3.646  10.923  17.588  0.00  0.00    +0.000 C 
ATOM     15  C   UNL     1      -4.753  11.711  16.921  0.00  0.00    +0.000 C 
ATOM     16  C   UNL     1      -4.144   9.664  18.250  0.00  0.00    +0.000 C 
ENDBRANCH   2   5
BRANCH   1  17
ATOM     17  C   UNL     1       2.756   6.905  19.373  0.00  0.00    +0.000 C 
BRANCH  17  23
ATOM     18  C   UNL     1       2.592   4.559  18.364  0.00  0.00    +0.000 A 
ATOM     19  C   UNL     1       2.141   3.235  18.457  0.00  0.00    +0.000 A 
ATOM     20  C   UNL     1       1.350   2.825  19.529  0.00  0.00    +0.000 A 
ATOM     21  C   UNL     1       1.014   3.730  20.530  0.00  0.00    +0.000 A 
ATOM     22  C   UNL     1       1.485   5.040  20.464  0.00  0.00    +0.000 A 
ATOM     23  C   UNL     1       2.282   5.473  19.387  0.00  0.00    +0.000 A 
BRANCH  18  25
ATOM     24  C   UNL     1       4.399   4.127  16.902  0.00  0.00    +0.000 C 
ATOM     25  O   UNL     1       3.364   5.013  17.323  0.00  0.00    +0.000 OA
ENDBRANCH  18  25
ENDBRANCH  17  23
ENDBRANCH   1  17
TORSDOF 4
ENDMDL
