MODEL 1
REMARK VINA RESULT:      -8.7      0.000      0.000
REMARK  Name = 
REMARK  8 active torsions:
REMARK  status: ('A' for Active; 'I' for Inactive)
REMARK    1  A    between atoms: C_1  and  N_2
REMARK    2  A    between atoms: C_9  and  O_10
REMARK    3  A    between atoms: O_10  and  C_11
REMARK    4  A    between atoms: C_11  and  C_13
REMARK    5  A    between atoms: C_14  and  C_15
REMARK    6  A    between atoms: C_15  and  O_17
REMARK    7  A    between atoms: O_17  and  C_18
REMARK    8  A    between atoms: N_26  and  C_27
REMARK                            x       y       z     vdW  Elec       q    Type
REMARK                         _______ _______ _______ _____ _____    ______ ____
ROOT
ATOM      1  C   UNL     1       7.615   6.764  18.252  0.00  0.00    +0.000 C 
ATOM      2  C   UNL     1       8.354   7.774  18.728  0.00  0.00    +0.000 C 
ENDROOT
BRANCH   1   3
ATOM      3  C   UNL     1       7.425   5.537  19.055  0.00  0.00    +0.000 C 
ATOM      4  O   UNL     1       7.755   5.428  20.226  0.00  0.00    +0.000 OA
BRANCH   3   5
ATOM      5  O   UNL     1       6.757   4.613  18.316  0.00  0.00    +0.000 OA
BRANCH   5  14
ATOM      6  C   UNL     1       3.636   2.413  20.237  0.00  0.00    +0.000 C 
ATOM      7  N   UNL     1       4.156   3.379  19.280  0.00  0.00    +0.000 NA
ATOM      8  C   UNL     1       3.926   3.011  17.880  0.00  0.00    +0.000 C 
ATOM      9  C   UNL     1       2.441   3.145  17.472  0.00  0.00    +0.000 C 
ATOM     10  C   UNL     1       1.862   4.522  17.781  0.00  0.00    +0.000 C 
ATOM     11  C   UNL     1       2.214   4.956  19.202  0.00  0.00    +0.000 C 
ATOM     12  C   UNL     1       3.712   4.758  19.520  0.00  0.00    +0.000 C 
ATOM     13  C   UNL     1       4.587   5.736  18.699  0.00  0.00    +0.000 C 
ATOM     14  C   UNL     1       5.523   5.059  17.685  0.00  0.00    +0.000 C 
ATOM     15  C   UNL     1       4.860   3.858  16.981  0.00  0.00    +0.000 C 
ENDBRANCH   5  14
ENDBRANCH   3   5
ENDBRANCH   1   3
BRANCH   2  16
ATOM     16  C   UNL     1       8.302   9.100  18.081  0.00  0.00    +0.000 C 
ATOM     17  O   UNL     1       7.580   9.386  17.141  0.00  0.00    +0.000 OA
BRANCH  16  18
ATOM     18  O   UNL     1       9.043   9.966  18.814  0.00  0.00    +0.000 OA
BRANCH  18  19
ATOM     19  C   UNL     1       9.766  10.971  18.060  0.00  0.00    +0.000 C 
ATOM     20  C   UNL     1       8.911  12.249  18.084  0.00  0.00    +0.000 C 
ATOM     21  C   UNL     1       8.947  12.977  19.457  0.00  0.00    +0.000 C 
ATOM     22  C   UNL     1       9.529  14.397  19.318  0.00  0.00    +0.000 C 
ATOM     23  C   UNL     1      11.023  14.387  18.991  0.00  0.00    +0.000 C 
ATOM     24  C   UNL     1      11.786  13.418  19.895  0.00  0.00    +0.000 C 
ATOM     25  C   UNL     1      11.098  12.039  20.007  0.00  0.00    +0.000 C 
ATOM     26  C   UNL     1      11.150  11.245  18.676  0.00  0.00    +0.000 C 
ATOM     27  N   UNL     1       9.699  12.173  20.428  0.00  0.00    +0.000 NA
ATOM     28  C   UNL     1       9.525  12.565  21.818  0.00  0.00    +0.000 C 
ENDBRANCH  18  19
ENDBRANCH  16  18
ENDBRANCH   2  16
TORSDOF 6
ENDMDL
MODEL 2
REMARK VINA RESULT:      -8.7      0.235      9.706
REMARK  Name = 
REMARK  8 active torsions:
REMARK  status: ('A' for Active; 'I' for Inactive)
REMARK    1  A    between atoms: C_1  and  N_2
REMARK    2  A    between atoms: C_9  and  O_10
REMARK    3  A    between atoms: O_10  and  C_11
REMARK    4  A    between atoms: C_11  and  C_13
REMARK    5  A    between atoms: C_14  and  C_15
REMARK    6  A    between atoms: C_15  and  O_17
REMARK    7  A    between atoms: O_17  and  C_18
REMARK    8  A    between atoms: N_26  and  C_27
REMARK                            x       y       z     vdW  Elec       q    Type
REMARK                         _______ _______ _______ _____ _____    ______ ____
ROOT
ATOM      1  C   UNL     1       8.363   7.753  18.725  0.00  0.00    +0.000 C 
ATOM      2  C   UNL     1       7.587   6.797  18.200  0.00  0.00    +0.000 C 
ENDROOT
BRANCH   1   3
ATOM      3  C   UNL     1       8.381   9.108  18.133  0.00  0.00    +0.000 C 
ATOM      4  O   UNL     1       7.741   9.430  17.143  0.00  0.00    +0.000 OA
BRANCH   3   5
ATOM      5  O   UNL     1       9.135   9.930  18.909  0.00  0.00    +0.000 OA
BRANCH   5  14
ATOM      6  C   UNL     1       9.526  13.028  21.828  0.00  0.00    +0.000 C 
ATOM      7  N   UNL     1       9.697  12.453  20.502  0.00  0.00    +0.000 NA
ATOM      8  C   UNL     1       8.968  13.163  19.447  0.00  0.00    +0.000 C 
ATOM      9  C   UNL     1       9.594  14.539  19.122  0.00  0.00    +0.000 C 
ATOM     10  C   UNL     1      11.083  14.452  18.799  0.00  0.00    +0.000 C 
ATOM     11  C   UNL     1      11.818  13.603  19.834  0.00  0.00    +0.000 C 
ATOM     12  C   UNL     1      11.100  12.264  20.107  0.00  0.00    +0.000 C 
ATOM     13  C   UNL     1      11.172  11.333  18.873  0.00  0.00    +0.000 C 
ATOM     14  C   UNL     1       9.812  11.024  18.226  0.00  0.00    +0.000 C 
ATOM     15  C   UNL     1       8.878  12.250  18.200  0.00  0.00    +0.000 C 
ENDBRANCH   5  14
ENDBRANCH   3   5
ENDBRANCH   1   3
BRANCH   2  16
ATOM     16  C   UNL     1       7.335   5.552  18.951  0.00  0.00    +0.000 C 
ATOM     17  O   UNL     1       7.611   5.381  20.126  0.00  0.00    +0.000 OA
BRANCH  16  18
ATOM     18  O   UNL     1       6.596   4.724  18.173  0.00  0.00    +0.000 OA
BRANCH  18  19
ATOM     19  C   UNL     1       5.400   5.305  17.595  0.00  0.00    +0.000 C 
ATOM     20  C   UNL     1       4.719   4.199  16.771  0.00  0.00    +0.000 C 
ATOM     21  C   UNL     1       4.008   3.136  17.654  0.00  0.00    +0.000 C 
ATOM     22  C   UNL     1       2.494   3.095  17.364  0.00  0.00    +0.000 C 
ATOM     23  C   UNL     1       1.773   4.355  17.845  0.00  0.00    +0.000 C 
ATOM     24  C   UNL     1       2.190   4.729  19.268  0.00  0.00    +0.000 C 
ATOM     25  C   UNL     1       3.721   4.694  19.470  0.00  0.00    +0.000 C 
ATOM     26  C   UNL     1       4.445   5.820  18.686  0.00  0.00    +0.000 C 
ATOM     27  N   UNL     1       4.283   3.400  19.072  0.00  0.00    +0.000 NA
ATOM     28  C   UNL     1       3.967   2.304  19.975  0.00  0.00    +0.000 C 
ENDBRANCH  18  19
ENDBRANCH  16  18
ENDBRANCH   2  16
TORSDOF 6
ENDMDL
MODEL 3
REMARK VINA RESULT:      -8.4      1.304      1.873
REMARK  Name = 
REMARK  8 active torsions:
REMARK  status: ('A' for Active; 'I' for Inactive)
REMARK    1  A    between atoms: C_1  and  N_2
REMARK    2  A    between atoms: C_9  and  O_10
REMARK    3  A    between atoms: O_10  and  C_11
REMARK    4  A    between atoms: C_11  and  C_13
REMARK    5  A    between atoms: C_14  and  C_15
REMARK    6  A    between atoms: C_15  and  O_17
REMARK    7  A    between atoms: O_17  and  C_18
REMARK    8  A    between atoms: N_26  and  C_27
REMARK                            x       y       z     vdW  Elec       q    Type
REMARK                         _______ _______ _______ _____ _____    ______ ____
ROOT
ATOM      1  C   UNL     1       7.677   7.443  18.104  0.00  0.00    +0.000 C 
ATOM      2  C   UNL     1       8.070   8.657  17.699  0.00  0.00    +0.000 C 
ENDROOT
BRANCH   1   3
ATOM      3  C   UNL     1       7.257   6.428  17.114  0.00  0.00    +0.000 C 
ATOM      4  O   UNL     1       7.718   6.340  15.986  0.00  0.00    +0.000 OA
BRANCH   3   5
ATOM      5  O   UNL     1       6.365   5.579  17.689  0.00  0.00    +0.000 OA
BRANCH   5  14
ATOM      6  C   UNL     1       4.212   2.608  19.882  0.00  0.00    +0.000 C 
ATOM      7  N   UNL     1       4.329   3.691  18.916  0.00  0.00    +0.000 NA
ATOM      8  C   UNL     1       4.012   3.296  17.540  0.00  0.00    +0.000 C 
ATOM      9  C   UNL     1       2.501   3.041  17.333  0.00  0.00    +0.000 C 
ATOM     10  C   UNL     1       1.634   4.213  17.783  0.00  0.00    +0.000 C 
ATOM     11  C   UNL     1       2.053   4.703  19.167  0.00  0.00    +0.000 C 
ATOM     12  C   UNL     1       3.581   4.901  19.280  0.00  0.00    +0.000 C 
ATOM     13  C   UNL     1       4.052   6.087  18.403  0.00  0.00    +0.000 C 
ATOM     14  C   UNL     1       4.983   5.694  17.246  0.00  0.00    +0.000 C 
ATOM     15  C   UNL     1       4.564   4.372  16.572  0.00  0.00    +0.000 C 
ENDBRANCH   5  14
ENDBRANCH   3   5
ENDBRANCH   1   3
BRANCH   2  16
ATOM     16  C   UNL     1       8.768   9.561  18.636  0.00  0.00    +0.000 C 
ATOM     17  O   UNL     1       9.021   9.295  19.798  0.00  0.00    +0.000 OA
BRANCH  16  18
ATOM     18  O   UNL     1       9.224  10.631  17.941  0.00  0.00    +0.000 OA
BRANCH  18  19
ATOM     19  C   UNL     1      10.400  11.280  18.486  0.00  0.00    +0.000 C 
ATOM     20  C   UNL     1      10.885  12.287  17.431  0.00  0.00    +0.000 C 
ATOM     21  C   UNL     1       9.989  13.554  17.345  0.00  0.00    +0.000 C 
ATOM     22  C   UNL     1      10.792  14.826  17.683  0.00  0.00    +0.000 C 
ATOM     23  C   UNL     1      11.190  14.891  19.158  0.00  0.00    +0.000 C 
ATOM     24  C   UNL     1      10.009  14.562  20.071  0.00  0.00    +0.000 C 
ATOM     25  C   UNL     1       9.242  13.298  19.622  0.00  0.00    +0.000 C 
ATOM     26  C   UNL     1      10.077  12.005  19.805  0.00  0.00    +0.000 C 
ATOM     27  N   UNL     1       8.820  13.399  18.221  0.00  0.00    +0.000 NA
ATOM     28  C   UNL     1       7.743  14.347  17.983  0.00  0.00    +0.000 C 
ENDBRANCH  18  19
ENDBRANCH  16  18
ENDBRANCH   2  16
TORSDOF 6
ENDMDL
MODEL 4
REMARK VINA RESULT:      -8.4      1.433      9.926
REMARK  Name = 
REMARK  8 active torsions:
REMARK  status: ('A' for Active; 'I' for Inactive)
REMARK    1  A    between atoms: C_1  and  N_2
REMARK    2  A    between atoms: C_9  and  O_10
REMARK    3  A    between atoms: O_10  and  C_11
REMARK    4  A    between atoms: C_11  and  C_13
REMARK    5  A    between atoms: C_14  and  C_15
REMARK    6  A    between atoms: C_15  and  O_17
REMARK    7  A    between atoms: O_17  and  C_18
REMARK    8  A    between atoms: N_26  and  C_27
REMARK                            x       y       z     vdW  Elec       q    Type
REMARK                         _______ _______ _______ _____ _____    ______ ____
ROOT
ATOM      1  C   UNL     1       7.934   8.739  17.617  0.00  0.00    +0.000 C 
ATOM      2  C   UNL     1       7.732   7.469  17.989  0.00  0.00    +0.000 C 
ENDROOT
BRANCH   1   3
ATOM      3  C   UNL     1       8.730   9.647  18.471  0.00  0.00    +0.000 C 
ATOM      4  O   UNL     1       9.223   9.323  19.540  0.00  0.00    +0.000 OA
BRANCH   3   5
ATOM      5  O   UNL     1       8.892  10.837  17.835  0.00  0.00    +0.000 OA
BRANCH   5  14
ATOM      6  C   UNL     1      12.308  13.195  16.811  0.00  0.00    +0.000 C 
ATOM      7  N   UNL     1      11.082  12.920  17.547  0.00  0.00    +0.000 NA
ATOM      8  C   UNL     1      11.277  12.772  18.992  0.00  0.00    +0.000 C 
ATOM      9  C   UNL     1      11.598  14.117  19.684  0.00  0.00    +0.000 C 
ATOM     10  C   UNL     1      10.571  15.203  19.376  0.00  0.00    +0.000 C 
ATOM     11  C   UNL     1      10.276  15.267  17.879  0.00  0.00    +0.000 C 
ATOM     12  C   UNL     1       9.996  13.872  17.278  0.00  0.00    +0.000 C 
ATOM     13  C   UNL     1       8.659  13.299  17.807  0.00  0.00    +0.000 C 
ATOM     14  C   UNL     1       8.802  12.031  18.663  0.00  0.00    +0.000 C 
ATOM     15  C   UNL     1      10.029  12.084  19.597  0.00  0.00    +0.000 C 
ENDBRANCH   5  14
ENDBRANCH   3   5
ENDBRANCH   1   3
BRANCH   2  16
ATOM     16  C   UNL     1       7.206   6.488  17.019  0.00  0.00    +0.000 C 
ATOM     17  O   UNL     1       7.690   6.267  15.922  0.00  0.00    +0.000 OA
BRANCH  16  18
ATOM     18  O   UNL     1       6.229   5.768  17.623  0.00  0.00    +0.000 OA
BRANCH  18  19
ATOM     19  C   UNL     1       4.889   5.972  17.110  0.00  0.00    +0.000 C 
ATOM     20  C   UNL     1       4.464   4.657  16.434  0.00  0.00    +0.000 C 
ATOM     21  C   UNL     1       4.111   3.538  17.453  0.00  0.00    +0.000 C 
ATOM     22  C   UNL     1       2.644   3.090  17.300  0.00  0.00    +0.000 C 
ATOM     23  C   UNL     1       1.655   4.168  17.748  0.00  0.00    +0.000 C 
ATOM     24  C   UNL     1       2.054   4.767  19.097  0.00  0.00    +0.000 C 
ATOM     25  C   UNL     1       3.552   5.139  19.165  0.00  0.00    +0.000 C 
ATOM     26  C   UNL     1       3.906   6.331  18.239  0.00  0.00    +0.000 C 
ATOM     27  N   UNL     1       4.402   3.995  18.817  0.00  0.00    +0.000 NA
ATOM     28  C   UNL     1       4.440   2.946  19.824  0.00  0.00    +0.000 C 
ENDBRANCH  18  19
ENDBRANCH  16  18
ENDBRANCH   2  16
TORSDOF 6
ENDMDL
MODEL 5
REMARK VINA RESULT:      -8.3      1.106      9.754
REMARK  Name = 
REMARK  8 active torsions:
REMARK  status: ('A' for Active; 'I' for Inactive)
REMARK    1  A    between atoms: C_1  and  N_2
REMARK    2  A    between atoms: C_9  and  O_10
REMARK    3  A    between atoms: O_10  and  C_11
REMARK    4  A    between atoms: C_11  and  C_13
REMARK    5  A    between atoms: C_14  and  C_15
REMARK    6  A    between atoms: C_15  and  O_17
REMARK    7  A    between atoms: O_17  and  C_18
REMARK    8  A    between atoms: N_26  and  C_27
REMARK                            x       y       z     vdW  Elec       q    Type
REMARK                         _______ _______ _______ _____ _____    ______ ____
ROOT
ATOM      1  C   UNL     1       8.189   7.719  18.299  0.00  0.00    +0.000 C 
ATOM      2  C   UNL     1       7.536   6.800  17.575  0.00  0.00    +0.000 C 
ENDROOT
BRANCH   1   3
ATOM      3  C   UNL     1       8.137   9.146  17.912  0.00  0.00    +0.000 C 
ATOM      4  O   UNL     1       7.163   9.682  17.407  0.00  0.00    +0.000 OA
BRANCH   3   5
ATOM      5  O   UNL     1       9.290   9.758  18.291  0.00  0.00    +0.000 OA
BRANCH   5  14
ATOM      6  C   UNL     1      12.004  12.756  16.907  0.00  0.00    +0.000 C 
ATOM      7  N   UNL     1      11.003  12.218  17.818  0.00  0.00    +0.000 NA
ATOM      8  C   UNL     1      11.490  12.022  19.186  0.00  0.00    +0.000 C 
ATOM      9  C   UNL     1      11.705  13.359  19.933  0.00  0.00    +0.000 C 
ATOM     10  C   UNL     1      10.471  14.256  19.912  0.00  0.00    +0.000 C 
ATOM     11  C   UNL     1       9.892  14.355  18.502  0.00  0.00    +0.000 C 
ATOM     12  C   UNL     1       9.742  12.971  17.833  0.00  0.00    +0.000 C 
ATOM     13  C   UNL     1       8.645  12.133  18.532  0.00  0.00    +0.000 C 
ATOM     14  C   UNL     1       9.158  10.863  19.229  0.00  0.00    +0.000 C 
ATOM     15  C   UNL     1      10.512  11.082  19.934  0.00  0.00    +0.000 C 
ENDBRANCH   5  14
ENDBRANCH   3   5
ENDBRANCH   1   3
BRANCH   2  16
ATOM     16  C   UNL     1       7.334   5.441  18.113  0.00  0.00    +0.000 C 
ATOM     17  O   UNL     1       8.145   4.534  18.033  0.00  0.00    +0.000 OA
BRANCH  16  18
ATOM     18  O   UNL     1       6.197   5.435  18.851  0.00  0.00    +0.000 OA
BRANCH  18  19
ATOM     19  C   UNL     1       4.987   5.805  18.144  0.00  0.00    +0.000 C 
ATOM     20  C   UNL     1       4.673   4.660  17.166  0.00  0.00    +0.000 C 
ATOM     21  C   UNL     1       4.105   3.398  17.873  0.00  0.00    +0.000 C 
ATOM     22  C   UNL     1       2.686   3.069  17.367  0.00  0.00    +0.000 C 
ATOM     23  C   UNL     1       1.653   4.103  17.816  0.00  0.00    +0.000 C 
ATOM     24  C   UNL     1       1.794   4.426  19.304  0.00  0.00    +0.000 C 
ATOM     25  C   UNL     1       3.258   4.693  19.720  0.00  0.00    +0.000 C 
ATOM     26  C   UNL     1       3.811   6.010  19.117  0.00  0.00    +0.000 C 
ATOM     27  N   UNL     1       4.135   3.584  19.329  0.00  0.00    +0.000 NA
ATOM     28  C   UNL     1       3.954   2.370  20.109  0.00  0.00    +0.000 C 
ENDBRANCH  18  19
ENDBRANCH  16  18
ENDBRANCH   2  16
TORSDOF 6
ENDMDL
MODEL 6
REMARK VINA RESULT:      -8.1      1.611      9.601
REMARK  Name = 
REMARK  8 active torsions:
REMARK  status: ('A' for Active; 'I' for Inactive)
REMARK    1  A    between atoms: C_1  and  N_2
REMARK    2  A    between atoms: C_9  and  O_10
REMARK    3  A    between atoms: O_10  and  C_11
REMARK    4  A    between atoms: C_11  and  C_13
REMARK    5  A    between atoms: C_14  and  C_15
REMARK    6  A    between atoms: C_15  and  O_17
REMARK    7  A    between atoms: O_17  and  C_18
REMARK    8  A    between atoms: N_26  and  C_27
REMARK                            x       y       z     vdW  Elec       q    Type
REMARK                         _______ _______ _______ _____ _____    ______ ____
ROOT
ATOM      1  C   UNL     1       7.267   7.974  17.213  0.00  0.00    +0.000 C 
ATOM      2  C   UNL     1       6.161   7.292  17.538  0.00  0.00    +0.000 C 
ENDROOT
BRANCH   1   3
ATOM      3  C   UNL     1       8.218   8.396  18.265  0.00  0.00    +0.000 C 
ATOM      4  O   UNL     1       8.750   7.629  19.052  0.00  0.00    +0.000 OA
BRANCH   3   5
ATOM      5  O   UNL     1       8.461   9.728  18.145  0.00  0.00    +0.000 OA
BRANCH   5  14
ATOM      6  C   UNL     1       8.023  13.978  18.270  0.00  0.00    +0.000 C 
ATOM      7  N   UNL     1       8.730  12.729  18.514  0.00  0.00    +0.000 NA
ATOM      8  C   UNL     1       9.993  12.607  17.779  0.00  0.00    +0.000 C 
ATOM      9  C   UNL     1      11.091  13.541  18.337  0.00  0.00    +0.000 C 
ATOM     10  C   UNL     1      11.310  13.371  19.837  0.00  0.00    +0.000 C 
ATOM     11  C   UNL     1       9.979  13.371  20.586  0.00  0.00    +0.000 C 
ATOM     12  C   UNL     1       8.942  12.429  19.937  0.00  0.00    +0.000 C 
ATOM     13  C   UNL     1       9.360  10.948  20.099  0.00  0.00    +0.000 C 
ATOM     14  C   UNL     1       9.673  10.224  18.780  0.00  0.00    +0.000 C 
ATOM     15  C   UNL     1      10.429  11.121  17.779  0.00  0.00    +0.000 C 
ENDBRANCH   5  14
ENDBRANCH   3   5
ENDBRANCH   1   3
BRANCH   2  16
ATOM     16  C   UNL     1       5.374   6.615  16.490  0.00  0.00    +0.000 C 
ATOM     17  O   UNL     1       5.505   6.802  15.292  0.00  0.00    +0.000 OA
BRANCH  16  18
ATOM     18  O   UNL     1       4.629   5.643  17.072  0.00  0.00    +0.000 OA
BRANCH  18  19
ATOM     19  C   UNL     1       4.366   5.815  18.487  0.00  0.00    +0.000 C 
ATOM     20  C   UNL     1       2.841   5.934  18.646  0.00  0.00    +0.000 C 
ATOM     21  C   UNL     1       2.106   4.575  18.479  0.00  0.00    +0.000 C 
ATOM     22  C   UNL     1       1.348   4.190  19.765  0.00  0.00    +0.000 C 
ATOM     23  C   UNL     1       2.293   3.833  20.914  0.00  0.00    +0.000 C 
ATOM     24  C   UNL     1       3.396   2.878  20.455  0.00  0.00    +0.000 C 
ATOM     25  C   UNL     1       4.060   3.326  19.133  0.00  0.00    +0.000 C 
ATOM     26  C   UNL     1       4.895   4.622  19.303  0.00  0.00    +0.000 C 
ATOM     27  N   UNL     1       3.063   3.536  18.079  0.00  0.00    +0.000 NA
ATOM     28  C   UNL     1       2.465   2.314  17.564  0.00  0.00    +0.000 C 
ENDBRANCH  18  19
ENDBRANCH  16  18
ENDBRANCH   2  16
TORSDOF 6
ENDMDL
MODEL 7
REMARK VINA RESULT:      -8.1      1.641      9.653
REMARK  Name = 
REMARK  8 active torsions:
REMARK  status: ('A' for Active; 'I' for Inactive)
REMARK    1  A    between atoms: C_1  and  N_2
REMARK    2  A    between atoms: C_9  and  O_10
REMARK    3  A    between atoms: O_10  and  C_11
REMARK    4  A    between atoms: C_11  and  C_13
REMARK    5  A    between atoms: C_14  and  C_15
REMARK    6  A    between atoms: C_15  and  O_17
REMARK    7  A    between atoms: O_17  and  C_18
REMARK    8  A    between atoms: N_26  and  C_27
REMARK                            x       y       z     vdW  Elec       q    Type
REMARK                         _______ _______ _______ _____ _____    ______ ____
ROOT
ATOM      1  C   UNL     1       7.127   7.955  17.296  0.00  0.00    +0.000 C 
ATOM      2  C   UNL     1       6.075   7.238  17.710  0.00  0.00    +0.000 C 
ENDROOT
BRANCH   1   3
ATOM      3  C   UNL     1       8.165   8.380  18.260  0.00  0.00    +0.000 C 
ATOM      4  O   UNL     1       8.739   7.620  19.025  0.00  0.00    +0.000 OA
BRANCH   3   5
ATOM      5  O   UNL     1       8.428   9.702  18.087  0.00  0.00    +0.000 OA
BRANCH   5  14
ATOM      6  C   UNL     1       7.966  13.950  18.187  0.00  0.00    +0.000 C 
ATOM      7  N   UNL     1       8.681  12.707  18.437  0.00  0.00    +0.000 NA
ATOM      8  C   UNL     1       9.942  12.588  17.701  0.00  0.00    +0.000 C 
ATOM      9  C   UNL     1      11.037  13.531  18.250  0.00  0.00    +0.000 C 
ATOM     10  C   UNL     1      11.259  13.372  19.751  0.00  0.00    +0.000 C 
ATOM     11  C   UNL     1       9.930  13.369  20.503  0.00  0.00    +0.000 C 
ATOM     12  C   UNL     1       8.897  12.417  19.861  0.00  0.00    +0.000 C 
ATOM     13  C   UNL     1       9.324  10.939  20.032  0.00  0.00    +0.000 C 
ATOM     14  C   UNL     1       9.638  10.209  18.717  0.00  0.00    +0.000 C 
ATOM     15  C   UNL     1      10.387  11.105  17.709  0.00  0.00    +0.000 C 
ENDBRANCH   5  14
ENDBRANCH   3   5
ENDBRANCH   1   3
BRANCH   2  16
ATOM     16  C   UNL     1       5.206   6.562  16.727  0.00  0.00    +0.000 C 
ATOM     17  O   UNL     1       5.191   6.803  15.532  0.00  0.00    +0.000 OA
BRANCH  16  18
ATOM     18  O   UNL     1       4.580   5.531  17.345  0.00  0.00    +0.000 OA
BRANCH  18  19
ATOM     19  C   UNL     1       3.232   5.799  17.806  0.00  0.00    +0.000 C 
ATOM     20  C   UNL     1       2.377   4.578  17.423  0.00  0.00    +0.000 C 
ATOM     21  C   UNL     1       2.647   3.342  18.325  0.00  0.00    +0.000 C 
ATOM     22  C   UNL     1       1.373   2.919  19.082  0.00  0.00    +0.000 C 
ATOM     23  C   UNL     1       0.964   3.934  20.151  0.00  0.00    +0.000 C 
ATOM     24  C   UNL     1       2.160   4.360  21.003  0.00  0.00    +0.000 C 
ATOM     25  C   UNL     1       3.400   4.719  20.154  0.00  0.00    +0.000 C 
ATOM     26  C   UNL     1       3.195   6.016  19.330  0.00  0.00    +0.000 C 
ATOM     27  N   UNL     1       3.757   3.626  19.243  0.00  0.00    +0.000 NA
ATOM     28  C   UNL     1       4.329   2.460  19.897  0.00  0.00    +0.000 C 
ENDBRANCH  18  19
ENDBRANCH  16  18
ENDBRANCH   2  16
TORSDOF 6
ENDMDL
MODEL 8
REMARK VINA RESULT:      -8.1      1.648      9.658
REMARK  Name = 
REMARK  8 active torsions:
REMARK  status: ('A' for Active; 'I' for Inactive)
REMARK    1  A    between atoms: C_1  and  N_2
REMARK    2  A    between atoms: C_9  and  O_10
REMARK    3  A    between atoms: O_10  and  C_11
REMARK    4  A    between atoms: C_11  and  C_13
REMARK    5  A    between atoms: C_14  and  C_15
REMARK    6  A    between atoms: C_15  and  O_17
REMARK    7  A    between atoms: O_17  and  C_18
REMARK    8  A    between atoms: N_26  and  C_27
REMARK                            x       y       z     vdW  Elec       q    Type
REMARK                         _______ _______ _______ _____ _____    ______ ____
ROOT
ATOM      1  C   UNL     1       7.243   7.622  17.073  0.00  0.00    +0.000 C 
ATOM      2  C   UNL     1       6.043   7.172  17.459  0.00  0.00    +0.000 C 
ENDROOT
BRANCH   1   3
ATOM      3  C   UNL     1       8.229   8.073  18.080  0.00  0.00    +0.000 C 
ATOM      4  O   UNL     1       8.603   7.392  19.022  0.00  0.00    +0.000 OA
BRANCH   3   5
ATOM      5  O   UNL     1       8.700   9.299  17.732  0.00  0.00    +0.000 OA
BRANCH   5  14
ATOM      6  C   UNL     1      11.973  12.046  17.594  0.00  0.00    +0.000 C 
ATOM      7  N   UNL     1      10.660  11.597  18.037  0.00  0.00    +0.000 NA
ATOM      8  C   UNL     1      10.571  11.353  19.479  0.00  0.00    +0.000 C 
ATOM      9  C   UNL     1      10.594  12.662  20.302  0.00  0.00    +0.000 C 
ATOM     10  C   UNL     1       9.539  13.666  19.848  0.00  0.00    +0.000 C 
ATOM     11  C   UNL     1       9.551  13.822  18.329  0.00  0.00    +0.000 C 
ATOM     12  C   UNL     1       9.554  12.460  17.601  0.00  0.00    +0.000 C 
ATOM     13  C   UNL     1       8.208  11.722  17.801  0.00  0.00    +0.000 C 
ATOM     14  C   UNL     1       8.312  10.408  18.592  0.00  0.00    +0.000 C 
ATOM     15  C   UNL     1       9.309  10.502  19.765  0.00  0.00    +0.000 C 
ENDBRANCH   5  14
ENDBRANCH   3   5
ENDBRANCH   1   3
BRANCH   2  16
ATOM     16  C   UNL     1       5.180   6.449  16.503  0.00  0.00    +0.000 C 
ATOM     17  O   UNL     1       5.145   6.660  15.303  0.00  0.00    +0.000 OA
BRANCH  16  18
ATOM     18  O   UNL     1       4.590   5.417  17.153  0.00  0.00    +0.000 OA
BRANCH  18  19
ATOM     19  C   UNL     1       3.679   5.784  18.220  0.00  0.00    +0.000 C 
ATOM     20  C   UNL     1       2.281   5.301  17.798  0.00  0.00    +0.000 C 
ATOM     21  C   UNL     1       2.109   3.761  17.921  0.00  0.00    +0.000 C 
ATOM     22  C   UNL     1       0.991   3.404  18.920  0.00  0.00    +0.000 C 
ATOM     23  C   UNL     1       1.370   3.737  20.364  0.00  0.00    +0.000 C 
ATOM     24  C   UNL     1       2.777   3.241  20.701  0.00  0.00    +0.000 C 
ATOM     25  C   UNL     1       3.814   3.608  19.616  0.00  0.00    +0.000 C 
ATOM     26  C   UNL     1       4.087   5.133  19.553  0.00  0.00    +0.000 C 
ATOM     27  N   UNL     1       3.388   3.144  18.292  0.00  0.00    +0.000 NA
ATOM     28  C   UNL     1       3.452   1.702  18.110  0.00  0.00    +0.000 C 
ENDBRANCH  18  19
ENDBRANCH  16  18
ENDBRANCH   2  16
TORSDOF 6
ENDMDL
MODEL 9
REMARK VINA RESULT:      -8.1      1.137      1.676
REMARK  Name = 
REMARK  8 active torsions:
REMARK  status: ('A' for Active; 'I' for Inactive)
REMARK    1  A    between atoms: C_1  and  N_2
REMARK    2  A    between atoms: C_9  and  O_10
REMARK    3  A    between atoms: O_10  and  C_11
REMARK    4  A    between atoms: C_11  and  C_13
REMARK    5  A    between atoms: C_14  and  C_15
REMARK    6  A    between atoms: C_15  and  O_17
REMARK    7  A    between atoms: O_17  and  C_18
REMARK    8  A    between atoms: N_26  and  C_27
REMARK                            x       y       z     vdW  Elec       q    Type
REMARK                         _______ _______ _______ _____ _____    ______ ____
ROOT
ATOM      1  C   UNL     1       7.658   7.042  18.112  0.00  0.00    +0.000 C 
ATOM      2  C   UNL     1       8.336   8.007  18.747  0.00  0.00    +0.000 C 
ENDROOT
BRANCH   1   3
ATOM      3  C   UNL     1       7.349   5.771  18.803  0.00  0.00    +0.000 C 
ATOM      4  O   UNL     1       8.196   4.990  19.207  0.00  0.00    +0.000 OA
BRANCH   3   5
ATOM      5  O   UNL     1       6.006   5.673  18.986  0.00  0.00    +0.000 OA
BRANCH   5  14
ATOM      6  C   UNL     1       2.031   5.528  20.550  0.00  0.00    +0.000 C 
ATOM      7  N   UNL     1       3.099   5.109  19.653  0.00  0.00    +0.000 NA
ATOM      8  C   UNL     1       3.512   3.714  19.832  0.00  0.00    +0.000 C 
ATOM      9  C   UNL     1       2.451   2.715  19.317  0.00  0.00    +0.000 C 
ATOM     10  C   UNL     1       2.033   2.984  17.875  0.00  0.00    +0.000 C 
ATOM     11  C   UNL     1       1.725   4.465  17.663  0.00  0.00    +0.000 C 
ATOM     12  C   UNL     1       2.830   5.379  18.235  0.00  0.00    +0.000 C 
ATOM     13  C   UNL     1       4.140   5.242  17.422  0.00  0.00    +0.000 C 
ATOM     14  C   UNL     1       5.320   4.651  18.209  0.00  0.00    +0.000 C 
ATOM     15  C   UNL     1       4.889   3.511  19.153  0.00  0.00    +0.000 C 
ENDBRANCH   5  14
ENDBRANCH   3   5
ENDBRANCH   1   3
BRANCH   2  16
ATOM     16  C   UNL     1       8.386   9.371  18.183  0.00  0.00    +0.000 C 
ATOM     17  O   UNL     1       7.998   9.676  17.068  0.00  0.00    +0.000 OA
BRANCH  16  18
ATOM     18  O   UNL     1       8.757  10.228  19.165  0.00  0.00    +0.000 OA
BRANCH  18  19
ATOM     19  C   UNL     1      10.146  10.641  19.147  0.00  0.00    +0.000 C 
ATOM     20  C   UNL     1      10.360  11.432  17.845  0.00  0.00    +0.000 C 
ATOM     21  C   UNL     1       9.737  12.855  17.890  0.00  0.00    +0.000 C 
ATOM     22  C   UNL     1      10.818  13.940  17.716  0.00  0.00    +0.000 C 
ATOM     23  C   UNL     1      11.754  14.030  18.922  0.00  0.00    +0.000 C 
ATOM     24  C   UNL     1      10.973  14.042  20.237  0.00  0.00    +0.000 C 
ATOM     25  C   UNL     1       9.883  12.948  20.293  0.00  0.00    +0.000 C 
ATOM     26  C   UNL     1      10.484  11.521  20.364  0.00  0.00    +0.000 C 
ATOM     27  N   UNL     1       8.984  13.031  19.138  0.00  0.00    +0.000 NA
ATOM     28  C   UNL     1       8.082  14.172  19.157  0.00  0.00    +0.000 C 
ENDBRANCH  18  19
ENDBRANCH  16  18
ENDBRANCH   2  16
TORSDOF 6
ENDMDL
