MODEL 1
REMARK VINA RESULT:      -7.7      0.000      0.000
REMARK  Name = 
REMARK  2 active torsions:
REMARK  status: ('A' for Active; 'I' for Inactive)
REMARK    1  A    between atoms: C_1  and  O_2
REMARK    2  A    between atoms: O_2  and  C_3
REMARK                            x       y       z     vdW  Elec       q    Type
REMARK                         _______ _______ _______ _____ _____    ______ ____
ROOT
ATOM      1  C   UNL     1       7.102   6.042  17.601  0.00  0.00    +0.000 A 
ATOM      2  N   UNL     1       6.137   5.488  18.332  0.00  0.00    +0.000 NA
ATOM      3  C   UNL     1       5.390   4.575  17.720  0.00  0.00    +0.000 A 
ATOM      4  N   UNL     1       4.440   3.896  18.443  0.00  0.00    +0.000 N 
ATOM      5  C   UNL     1       3.615   2.861  17.810  0.00  0.00    +0.000 C 
ATOM      6  C   UNL     1       2.175   3.353  17.621  0.00  0.00    +0.000 C 
ATOM      7  O   UNL     1       1.619   3.831  18.857  0.00  0.00    +0.000 OA
ATOM      8  C   UNL     1       2.399   4.928  19.362  0.00  0.00    +0.000 C 
ATOM      9  C   UNL     1       3.853   4.512  19.638  0.00  0.00    +0.000 C 
ATOM     10  N   UNL     1       5.560   4.258  16.443  0.00  0.00    +0.000 NA
ATOM     11  C   UNL     1       6.546   4.884  15.791  0.00  0.00    +0.000 A 
ATOM     12  N   UNL     1       6.707   4.585  14.405  0.00  0.00    +0.000 N 
ATOM     13  C   UNL     1       7.704   5.062  13.575  0.00  0.00    +0.000 A 
ATOM     14  C   UNL     1       7.494   4.577  12.303  0.00  0.00    +0.000 A 
ATOM     15  C   UNL     1       6.333   3.773  12.346  0.00  0.00    +0.000 A 
ATOM     16  C   UNL     1       5.878   3.781  13.646  0.00  0.00    +0.000 A 
ATOM     17  N   UNL     1       7.360   5.783  16.333  0.00  0.00    +0.000 NA
ENDROOT
BRANCH   1  19
ATOM     18  C   UNL     1       7.692   8.305  17.541  0.00  0.00    +0.000 C 
ATOM     19  O   UNL     1       7.890   7.035  18.144  0.00  0.00    +0.000 OA
ENDBRANCH   1  19
TORSDOF 1
ENDMDL
MODEL 2
REMARK VINA RESULT:      -7.1      1.510      1.775
REMARK  Name = 
REMARK  2 active torsions:
REMARK  status: ('A' for Active; 'I' for Inactive)
REMARK    1  A    between atoms: C_1  and  O_2
REMARK    2  A    between atoms: O_2  and  C_3
REMARK                            x       y       z     vdW  Elec       q    Type
REMARK                         _______ _______ _______ _____ _____    ______ ____
ROOT
ATOM      1  C   UNL     1       6.339   4.789  19.114  0.00  0.00    +0.000 A 
ATOM      2  N   UNL     1       5.286   4.177  19.654  0.00  0.00    +0.000 NA
ATOM      3  C   UNL     1       4.488   3.532  18.810  0.00  0.00    +0.000 A 
ATOM      4  N   UNL     1       3.438   2.800  19.310  0.00  0.00    +0.000 N 
ATOM      5  C   UNL     1       2.553   2.051  18.412  0.00  0.00    +0.000 C 
ATOM      6  C   UNL     1       1.179   2.727  18.313  0.00  0.00    +0.000 C 
ATOM      7  O   UNL     1       0.605   2.939  19.613  0.00  0.00    +0.000 OA
ATOM      8  C   UNL     1       1.460   3.785  20.401  0.00  0.00    +0.000 C 
ATOM      9  C   UNL     1       2.850   3.159  20.604  0.00  0.00    +0.000 C 
ATOM     10  N   UNL     1       4.695   3.526  17.499  0.00  0.00    +0.000 NA
ATOM     11  C   UNL     1       5.772   4.185  17.056  0.00  0.00    +0.000 A 
ATOM     12  N   UNL     1       5.979   4.224  15.644  0.00  0.00    +0.000 N 
ATOM     13  C   UNL     1       7.062   4.783  14.990  0.00  0.00    +0.000 A 
ATOM     14  C   UNL     1       6.875   4.656  13.631  0.00  0.00    +0.000 A 
ATOM     15  C   UNL     1       5.640   3.996  13.436  0.00  0.00    +0.000 A 
ATOM     16  C   UNL     1       5.118   3.730  14.683  0.00  0.00    +0.000 A 
ATOM     17  N   UNL     1       6.639   4.827  17.830  0.00  0.00    +0.000 NA
ENDROOT
BRANCH   1  19
ATOM     18  C   UNL     1       8.117   6.307  19.179  0.00  0.00    +0.000 C 
ATOM     19  O   UNL     1       7.188   5.524  19.914  0.00  0.00    +0.000 OA
ENDBRANCH   1  19
TORSDOF 1
ENDMDL
MODEL 3
REMARK VINA RESULT:      -6.9      1.164      1.170
REMARK  Name = 
REMARK  2 active torsions:
REMARK  status: ('A' for Active; 'I' for Inactive)
REMARK    1  A    between atoms: C_1  and  O_2
REMARK    2  A    between atoms: O_2  and  C_3
REMARK                            x       y       z     vdW  Elec       q    Type
REMARK                         _______ _______ _______ _____ _____    ______ ____
ROOT
ATOM      1  C   UNL     1       7.093   4.729  17.721  0.00  0.00    +0.000 A 
ATOM      2  N   UNL     1       6.017   4.396  18.431  0.00  0.00    +0.000 NA
ATOM      3  C   UNL     1       5.003   3.876  17.747  0.00  0.00    +0.000 A 
ATOM      4  N   UNL     1       3.900   3.423  18.429  0.00  0.00    +0.000 N 
ATOM      5  C   UNL     1       2.773   2.817  17.713  0.00  0.00    +0.000 C 
ATOM      6  C   UNL     1       1.564   3.760  17.701  0.00  0.00    +0.000 C 
ATOM      7  O   UNL     1       1.217   4.183  19.029  0.00  0.00    +0.000 OA
ATOM      8  C   UNL     1       2.319   4.883  19.631  0.00  0.00    +0.000 C 
ATOM      9  C   UNL     1       3.568   3.991  19.739  0.00  0.00    +0.000 C 
ATOM     10  N   UNL     1       5.035   3.731  16.429  0.00  0.00    +0.000 NA
ATOM     11  C   UNL     1       6.156   4.112  15.807  0.00  0.00    +0.000 A 
ATOM     12  N   UNL     1       6.184   4.004  14.384  0.00  0.00    +0.000 N 
ATOM     13  C   UNL     1       7.264   4.270  13.563  0.00  0.00    +0.000 A 
ATOM     14  C   UNL     1       6.882   4.087  12.251  0.00  0.00    +0.000 A 
ATOM     15  C   UNL     1       5.525   3.694  12.260  0.00  0.00    +0.000 A 
ATOM     16  C   UNL     1       5.124   3.635  13.576  0.00  0.00    +0.000 A 
ATOM     17  N   UNL     1       7.227   4.609  16.414  0.00  0.00    +0.000 NA
ENDROOT
BRANCH   1  19
ATOM     18  C   UNL     1       7.876   5.791  19.653  0.00  0.00    +0.000 C 
ATOM     19  O   UNL     1       8.170   5.323  18.345  0.00  0.00    +0.000 OA
ENDBRANCH   1  19
TORSDOF 1
ENDMDL
MODEL 4
REMARK VINA RESULT:      -6.6      2.414      3.070
REMARK  Name = 
REMARK  2 active torsions:
REMARK  status: ('A' for Active; 'I' for Inactive)
REMARK    1  A    between atoms: C_1  and  O_2
REMARK    2  A    between atoms: O_2  and  C_3
REMARK                            x       y       z     vdW  Elec       q    Type
REMARK                         _______ _______ _______ _____ _____    ______ ____
ROOT
ATOM      1  C   UNL     1       3.417   7.368  17.957  0.00  0.00    +0.000 A 
ATOM      2  N   UNL     1       2.964   6.620  18.961  0.00  0.00    +0.000 NA
ATOM      3  C   UNL     1       3.369   5.354  18.977  0.00  0.00    +0.000 A 
ATOM      4  N   UNL     1       3.016   4.553  20.036  0.00  0.00    +0.000 N 
ATOM      5  C   UNL     1       3.468   3.160  20.104  0.00  0.00    +0.000 C 
ATOM      6  C   UNL     1       2.304   2.197  19.836  0.00  0.00    +0.000 C 
ATOM      7  O   UNL     1       1.192   2.465  20.706  0.00  0.00    +0.000 OA
ATOM      8  C   UNL     1       0.714   3.805  20.500  0.00  0.00    +0.000 C 
ATOM      9  C   UNL     1       1.802   4.850  20.803  0.00  0.00    +0.000 C 
ATOM     10  N   UNL     1       4.146   4.844  18.030  0.00  0.00    +0.000 NA
ATOM     11  C   UNL     1       4.533   5.675  17.055  0.00  0.00    +0.000 A 
ATOM     12  N   UNL     1       5.330   5.126  16.006  0.00  0.00    +0.000 N 
ATOM     13  C   UNL     1       5.892   5.824  14.954  0.00  0.00    +0.000 A 
ATOM     14  C   UNL     1       6.554   4.936  14.134  0.00  0.00    +0.000 A 
ATOM     15  C   UNL     1       6.399   3.649  14.696  0.00  0.00    +0.000 A 
ATOM     16  C   UNL     1       5.659   3.793  15.849  0.00  0.00    +0.000 A 
ATOM     17  N   UNL     1       4.203   6.959  16.980  0.00  0.00    +0.000 NA
ENDROOT
BRANCH   1  19
ATOM     18  C   UNL     1       1.593   8.831  17.880  0.00  0.00    +0.000 C 
ATOM     19  O   UNL     1       3.004   8.678  17.837  0.00  0.00    +0.000 OA
ENDBRANCH   1  19
TORSDOF 1
ENDMDL
MODEL 5
REMARK VINA RESULT:      -6.4      3.279      5.634
REMARK  Name = 
REMARK  2 active torsions:
REMARK  status: ('A' for Active; 'I' for Inactive)
REMARK    1  A    between atoms: C_1  and  O_2
REMARK    2  A    between atoms: O_2  and  C_3
REMARK                            x       y       z     vdW  Elec       q    Type
REMARK                         _______ _______ _______ _____ _____    ______ ____
ROOT
ATOM      1  C   UNL     1       4.254   6.114  17.149  0.00  0.00    +0.000 A 
ATOM      2  N   UNL     1       3.991   4.964  17.766  0.00  0.00    +0.000 NA
ATOM      3  C   UNL     1       3.010   4.992  18.663  0.00  0.00    +0.000 A 
ATOM      4  N   UNL     1       2.623   3.820  19.266  0.00  0.00    +0.000 N 
ATOM      5  C   UNL     1       1.526   3.805  20.239  0.00  0.00    +0.000 C 
ATOM      6  C   UNL     1       2.062   3.594  21.661  0.00  0.00    +0.000 C 
ATOM      7  O   UNL     1       2.892   2.423  21.739  0.00  0.00    +0.000 OA
ATOM      8  C   UNL     1       4.019   2.554  20.856  0.00  0.00    +0.000 C 
ATOM      9  C   UNL     1       3.577   2.713  19.391  0.00  0.00    +0.000 C 
ATOM     10  N   UNL     1       2.354   6.105  18.964  0.00  0.00    +0.000 NA
ATOM     11  C   UNL     1       2.706   7.211  18.300  0.00  0.00    +0.000 A 
ATOM     12  N   UNL     1       2.039   8.424  18.649  0.00  0.00    +0.000 N 
ATOM     13  C   UNL     1       2.199   9.653  18.036  0.00  0.00    +0.000 A 
ATOM     14  C   UNL     1       1.412  10.580  18.685  0.00  0.00    +0.000 A 
ATOM     15  C   UNL     1       0.743   9.905  19.730  0.00  0.00    +0.000 A 
ATOM     16  C   UNL     1       1.130   8.584  19.678  0.00  0.00    +0.000 A 
ATOM     17  N   UNL     1       3.649   7.266  17.367  0.00  0.00    +0.000 NA
ENDROOT
BRANCH   1  19
ATOM     18  C   UNL     1       6.570   6.261  16.853  0.00  0.00    +0.000 C 
ATOM     19  O   UNL     1       5.290   6.184  16.243  0.00  0.00    +0.000 OA
ENDBRANCH   1  19
TORSDOF 1
ENDMDL
MODEL 6
REMARK VINA RESULT:      -6.4      2.651      6.314
REMARK  Name = 
REMARK  2 active torsions:
REMARK  status: ('A' for Active; 'I' for Inactive)
REMARK    1  A    between atoms: C_1  and  O_2
REMARK    2  A    between atoms: O_2  and  C_3
REMARK                            x       y       z     vdW  Elec       q    Type
REMARK                         _______ _______ _______ _____ _____    ______ ____
ROOT
ATOM      1  C   UNL     1       2.523   7.204  18.760  0.00  0.00    +0.000 A 
ATOM      2  N   UNL     1       3.468   7.097  17.827  0.00  0.00    +0.000 NA
ATOM      3  C   UNL     1       4.002   5.891  17.671  0.00  0.00    +0.000 A 
ATOM      4  N   UNL     1       4.913   5.689  16.662  0.00  0.00    +0.000 N 
ATOM      5  C   UNL     1       5.504   4.366  16.440  0.00  0.00    +0.000 C 
ATOM      6  C   UNL     1       6.973   4.343  16.880  0.00  0.00    +0.000 C 
ATOM      7  O   UNL     1       7.721   5.400  16.257  0.00  0.00    +0.000 OA
ATOM      8  C   UNL     1       7.171   6.678  16.617  0.00  0.00    +0.000 C 
ATOM      9  C   UNL     1       5.708   6.815  16.161  0.00  0.00    +0.000 C 
ATOM     10  N   UNL     1       3.653   4.856  18.423  0.00  0.00    +0.000 NA
ATOM     11  C   UNL     1       2.707   5.071  19.345  0.00  0.00    +0.000 A 
ATOM     12  N   UNL     1       2.356   3.977  20.191  0.00  0.00    +0.000 N 
ATOM     13  C   UNL     1       1.359   3.968  21.148  0.00  0.00    +0.000 A 
ATOM     14  C   UNL     1       1.359   2.743  21.779  0.00  0.00    +0.000 A 
ATOM     15  C   UNL     1       2.386   1.969  21.195  0.00  0.00    +0.000 A 
ATOM     16  C   UNL     1       2.973   2.740  20.216  0.00  0.00    +0.000 A 
ATOM     17  N   UNL     1       2.097   6.233  19.545  0.00  0.00    +0.000 NA
ENDROOT
BRANCH   1  19
ATOM     18  C   UNL     1       1.689   9.192  17.853  0.00  0.00    +0.000 C 
ATOM     19  O   UNL     1       1.954   8.432  19.022  0.00  0.00    +0.000 OA
ENDBRANCH   1  19
TORSDOF 1
ENDMDL
MODEL 7
REMARK VINA RESULT:      -6.4      3.400      6.786
REMARK  Name = 
REMARK  2 active torsions:
REMARK  status: ('A' for Active; 'I' for Inactive)
REMARK    1  A    between atoms: C_1  and  O_2
REMARK    2  A    between atoms: O_2  and  C_3
REMARK                            x       y       z     vdW  Elec       q    Type
REMARK                         _______ _______ _______ _____ _____    ______ ____
ROOT
ATOM      1  C   UNL     1       2.523   5.263  20.441  0.00  0.00    +0.000 A 
ATOM      2  N   UNL     1       3.538   4.936  19.643  0.00  0.00    +0.000 NA
ATOM      3  C   UNL     1       3.928   5.869  18.780  0.00  0.00    +0.000 A 
ATOM      4  N   UNL     1       5.029   5.633  17.994  0.00  0.00    +0.000 N 
ATOM      5  C   UNL     1       5.507   6.648  17.050  0.00  0.00    +0.000 C 
ATOM      6  C   UNL     1       5.203   6.236  15.605  0.00  0.00    +0.000 C 
ATOM      7  O   UNL     1       5.712   4.923  15.317  0.00  0.00    +0.000 OA
ATOM      8  C   UNL     1       5.110   3.954  16.191  0.00  0.00    +0.000 C 
ATOM      9  C   UNL     1       5.412   4.255  17.668  0.00  0.00    +0.000 C 
ATOM     10  N   UNL     1       3.321   7.045  18.682  0.00  0.00    +0.000 NA
ATOM     11  C   UNL     1       2.301   7.269  19.518  0.00  0.00    +0.000 A 
ATOM     12  N   UNL     1       1.611   8.512  19.390  0.00  0.00    +0.000 N 
ATOM     13  C   UNL     1       0.587   8.968  20.199  0.00  0.00    +0.000 A 
ATOM     14  C   UNL     1       0.159  10.190  19.729  0.00  0.00    +0.000 A 
ATOM     15  C   UNL     1       0.943  10.503  18.596  0.00  0.00    +0.000 A 
ATOM     16  C   UNL     1       1.835   9.468  18.417  0.00  0.00    +0.000 A 
ATOM     17  N   UNL     1       1.868   6.408  20.432  0.00  0.00    +0.000 NA
ENDROOT
BRANCH   1  19
ATOM     18  C   UNL     1       1.195   3.358  20.718  0.00  0.00    +0.000 C 
ATOM     19  O   UNL     1       2.023   4.335  21.329  0.00  0.00    +0.000 OA
ENDBRANCH   1  19
TORSDOF 1
ENDMDL
MODEL 8
REMARK VINA RESULT:      -6.3      2.842      6.837
REMARK  Name = 
REMARK  2 active torsions:
REMARK  status: ('A' for Active; 'I' for Inactive)
REMARK    1  A    between atoms: C_1  and  O_2
REMARK    2  A    between atoms: O_2  and  C_3
REMARK                            x       y       z     vdW  Elec       q    Type
REMARK                         _______ _______ _______ _____ _____    ______ ____
ROOT
ATOM      1  C   UNL     1       3.135   3.958  20.105  0.00  0.00    +0.000 A 
ATOM      2  N   UNL     1       4.085   4.005  19.173  0.00  0.00    +0.000 NA
ATOM      3  C   UNL     1       4.299   5.193  18.617  0.00  0.00    +0.000 A 
ATOM      4  N   UNL     1       5.329   5.333  17.718  0.00  0.00    +0.000 N 
ATOM      5  C   UNL     1       5.615   6.634  17.105  0.00  0.00    +0.000 C 
ATOM      6  C   UNL     1       5.198   6.645  15.629  0.00  0.00    +0.000 C 
ATOM      7  O   UNL     1       5.787   5.548  14.911  0.00  0.00    +0.000 OA
ATOM      8  C   UNL     1       5.365   4.298  15.482  0.00  0.00    +0.000 C 
ATOM      9  C   UNL     1       5.794   4.172  16.954  0.00  0.00    +0.000 C 
ATOM     10  N   UNL     1       3.586   6.266  18.934  0.00  0.00    +0.000 NA
ATOM     11  C   UNL     1       2.643   6.109  19.870  0.00  0.00    +0.000 A 
ATOM     12  N   UNL     1       1.839   7.244  20.186  0.00  0.00    +0.000 N 
ATOM     13  C   UNL     1       0.869   7.314  21.169  0.00  0.00    +0.000 A 
ATOM     14  C   UNL     1       0.290   8.564  21.134  0.00  0.00    +0.000 A 
ATOM     15  C   UNL     1       0.921   9.292  20.101  0.00  0.00    +0.000 A 
ATOM     16  C   UNL     1       1.875   8.469  19.545  0.00  0.00    +0.000 A 
ATOM     17  N   UNL     1       2.385   4.969  20.500  0.00  0.00    +0.000 NA
ENDROOT
BRANCH   1  19
ATOM     18  C   UNL     1       1.703   2.835  21.575  0.00  0.00    +0.000 C 
ATOM     19  O   UNL     1       2.813   2.753  20.695  0.00  0.00    +0.000 OA
ENDBRANCH   1  19
TORSDOF 1
ENDMDL
MODEL 9
REMARK VINA RESULT:      -6.1      3.918      6.467
REMARK  Name = 
REMARK  2 active torsions:
REMARK  status: ('A' for Active; 'I' for Inactive)
REMARK    1  A    between atoms: C_1  and  O_2
REMARK    2  A    between atoms: O_2  and  C_3
REMARK                            x       y       z     vdW  Elec       q    Type
REMARK                         _______ _______ _______ _____ _____    ______ ____
ROOT
ATOM      1  C   UNL     1       3.722   6.859  17.535  0.00  0.00    +0.000 A 
ATOM      2  N   UNL     1       3.073   7.979  17.847  0.00  0.00    +0.000 NA
ATOM      3  C   UNL     1       2.370   7.953  18.974  0.00  0.00    +0.000 A 
ATOM      4  N   UNL     1       1.754   9.104  19.403  0.00  0.00    +0.000 N 
ATOM      5  C   UNL     1       0.993   9.123  20.657  0.00  0.00    +0.000 C 
ATOM      6  C   UNL     1      -0.514   9.202  20.378  0.00  0.00    +0.000 C 
ATOM      7  O   UNL     1      -0.829  10.308  19.517  0.00  0.00    +0.000 OA
ATOM      8  C   UNL     1      -0.153  10.165  18.257  0.00  0.00    +0.000 C 
ATOM      9  C   UNL     1       1.375  10.135  18.432  0.00  0.00    +0.000 C 
ATOM     10  N   UNL     1       2.278   6.867  19.730  0.00  0.00    +0.000 NA
ATOM     11  C   UNL     1       2.954   5.788  19.320  0.00  0.00    +0.000 A 
ATOM     12  N   UNL     1       2.827   4.600  20.101  0.00  0.00    +0.000 N 
ATOM     13  C   UNL     1       3.496   3.408  19.895  0.00  0.00    +0.000 A 
ATOM     14  C   UNL     1       3.072   2.492  20.833  0.00  0.00    +0.000 A 
ATOM     15  C   UNL     1       2.112   3.136  21.646  0.00  0.00    +0.000 A 
ATOM     16  C   UNL     1       1.990   4.429  21.188  0.00  0.00    +0.000 A 
ATOM     17  N   UNL     1       3.707   5.736  18.228  0.00  0.00    +0.000 NA
ENDROOT
BRANCH   1  19
ATOM     18  C   UNL     1       5.242   5.622  16.257  0.00  0.00    +0.000 C 
ATOM     19  O   UNL     1       4.433   6.784  16.356  0.00  0.00    +0.000 OA
ENDBRANCH   1  19
TORSDOF 1
ENDMDL
