MODEL 1
REMARK VINA RESULT:      -6.9      0.000      0.000
REMARK  Name = 
REMARK  4 active torsions:
REMARK  status: ('A' for Active; 'I' for Inactive)
REMARK    1  A    between atoms: C_2  and  C_5
REMARK    2  A    between atoms: N_3  and  O_4
REMARK    3  A    between atoms: N_14  and  C_15
REMARK    4  A    between atoms: C_15  and  C_16
REMARK                            x       y       z     vdW  Elec       q    Type
REMARK                         _______ _______ _______ _____ _____    ______ ____
ROOT
ATOM      1  C   UNL     1       0.804  10.226  19.030  0.00  0.00    +0.000 A 
ATOM      2  C   UNL     1       0.913   9.376  20.105  0.00  0.00    +0.000 A 
ATOM      3  N   UNL     1       1.563   8.191  20.067  0.00  0.00    +0.000 NA
ATOM      4  C   UNL     1       2.120   7.824  18.902  0.00  0.00    +0.000 A 
ATOM      5  N   UNL     1       2.884   6.703  18.863  0.00  0.00    +0.000 N 
ATOM      6  C   UNL     1       3.171   5.867  20.001  0.00  0.00    +0.000 C 
ATOM      7  C   UNL     1       4.457   5.127  19.593  0.00  0.00    +0.000 C 
ATOM      8  C   UNL     1       4.557   5.296  18.071  0.00  0.00    +0.000 C 
ATOM      9  C   UNL     1       5.889   5.953  17.606  0.00  0.00    +0.000 C 
ATOM     10  N   UNL     1       5.681   5.246  16.307  0.00  0.00    +0.000 NA
ATOM     11  C   UNL     1       5.035   4.154  17.101  0.00  0.00    +0.000 C 
ATOM     12  C   UNL     1       3.331   6.101  17.627  0.00  0.00    +0.000 C 
ATOM     13  N   UNL     1       2.021   8.571  17.789  0.00  0.00    +0.000 NA
ATOM     14  C   UNL     1       1.387   9.761  17.877  0.00  0.00    +0.000 A 
ENDROOT
BRANCH   1  16
ATOM     15  O   UNL     1      -0.538  11.778  20.171  0.00  0.00    +0.000 OA
ATOM     16  C   UNL     1       0.159  11.540  19.187  0.00  0.00    +0.000 C 
ATOM     17  N   UNL     1       0.362  12.484  18.208  0.00  0.00    +0.000 N 
ATOM     18  H   UNL     1       0.746  12.329  17.284  0.00  0.00    +0.000 HD
BRANCH  17  19
ATOM     19  O   UNL     1      -0.313  13.712  18.400  0.00  0.00    +0.000 OA
ATOM     20  H   UNL     1      -0.817  13.548  19.229  0.00  0.00    +0.000 HD
ENDBRANCH  17  19
ENDBRANCH   1  16
BRANCH  10  21
ATOM     21  C   UNL     1       6.976   4.895  15.738  0.00  0.00    +0.000 C 
BRANCH  21  22
ATOM     22  C   UNL     1       6.848   4.569  14.274  0.00  0.00    +0.000 A 
ATOM     23  C   UNL     1       7.657   5.118  13.214  0.00  0.00    +0.000 A 
ATOM     24  C   UNL     1       7.382   4.555  11.989  0.00  0.00    +0.000 A 
ATOM     25  S   UNL     1       6.152   3.375  12.084  0.00  0.00    +0.000 S 
ATOM     26  C   UNL     1       5.986   3.614  13.771  0.00  0.00    +0.000 A 
ENDBRANCH  21  22
ENDBRANCH  10  21
TORSDOF 4
ENDMDL
MODEL 2
REMARK VINA RESULT:      -6.7      1.005      1.130
REMARK  Name = 
REMARK  4 active torsions:
REMARK  status: ('A' for Active; 'I' for Inactive)
REMARK    1  A    between atoms: C_2  and  C_5
REMARK    2  A    between atoms: N_3  and  O_4
REMARK    3  A    between atoms: N_14  and  C_15
REMARK    4  A    between atoms: C_15  and  C_16
REMARK                            x       y       z     vdW  Elec       q    Type
REMARK                         _______ _______ _______ _____ _____    ______ ____
ROOT
ATOM      1  C   UNL     1       0.886   9.450  20.283  0.00  0.00    +0.000 A 
ATOM      2  C   UNL     1       0.970   8.351  21.106  0.00  0.00    +0.000 A 
ATOM      3  N   UNL     1       1.595   7.201  20.766  0.00  0.00    +0.000 NA
ATOM      4  C   UNL     1       2.151   7.132  19.547  0.00  0.00    +0.000 A 
ATOM      5  N   UNL     1       2.892   6.041  19.223  0.00  0.00    +0.000 N 
ATOM      6  C   UNL     1       3.154   4.936  20.110  0.00  0.00    +0.000 C 
ATOM      7  C   UNL     1       4.426   4.297  19.527  0.00  0.00    +0.000 C 
ATOM      8  C   UNL     1       4.540   4.847  18.099  0.00  0.00    +0.000 C 
ATOM      9  C   UNL     1       5.889   5.572  17.820  0.00  0.00    +0.000 C 
ATOM     10  N   UNL     1       5.675   5.225  16.382  0.00  0.00    +0.000 NA
ATOM     11  C   UNL     1       5.001   3.981  16.870  0.00  0.00    +0.000 C 
ATOM     12  C   UNL     1       3.334   5.766  17.874  0.00  0.00    +0.000 C 
ATOM     13  N   UNL     1       2.076   8.141  18.662  0.00  0.00    +0.000 NA
ATOM     14  C   UNL     1       1.467   9.283  19.051  0.00  0.00    +0.000 A 
ENDROOT
BRANCH   1  16
ATOM     15  O   UNL     1       0.446  11.067  21.928  0.00  0.00    +0.000 OA
ATOM     16  C   UNL     1       0.268  10.694  20.770  0.00  0.00    +0.000 C 
ATOM     17  N   UNL     1      -0.507  11.420  19.897  0.00  0.00    +0.000 N 
ATOM     18  H   UNL     1      -0.871  11.108  19.005  0.00  0.00    +0.000 HD
BRANCH  17  19
ATOM     19  O   UNL     1      -1.101  12.585  20.436  0.00  0.00    +0.000 OA
ATOM     20  H   UNL     1      -1.894  12.224  20.893  0.00  0.00    +0.000 HD
ENDBRANCH  17  19
ENDBRANCH   1  16
BRANCH  10  21
ATOM     21  C   UNL     1       6.966   5.003  15.745  0.00  0.00    +0.000 C 
BRANCH  21  22
ATOM     22  C   UNL     1       6.792   4.625  14.298  0.00  0.00    +0.000 A 
ATOM     23  C   UNL     1       7.618   5.071  13.204  0.00  0.00    +0.000 A 
ATOM     24  C   UNL     1       7.285   4.478  12.009  0.00  0.00    +0.000 A 
ATOM     25  S   UNL     1       5.979   3.391  12.171  0.00  0.00    +0.000 S 
ATOM     26  C   UNL     1       5.857   3.711  13.849  0.00  0.00    +0.000 A 
ENDBRANCH  21  22
ENDBRANCH  10  21
TORSDOF 4
ENDMDL
MODEL 3
REMARK VINA RESULT:      -6.6      1.639      1.926
REMARK  Name = 
REMARK  4 active torsions:
REMARK  status: ('A' for Active; 'I' for Inactive)
REMARK    1  A    between atoms: C_2  and  C_5
REMARK    2  A    between atoms: N_3  and  O_4
REMARK    3  A    between atoms: N_14  and  C_15
REMARK    4  A    between atoms: C_15  and  C_16
REMARK                            x       y       z     vdW  Elec       q    Type
REMARK                         _______ _______ _______ _____ _____    ______ ____
ROOT
ATOM      1  C   UNL     1       1.033   8.896  20.646  0.00  0.00    +0.000 A 
ATOM      2  C   UNL     1       1.058   7.705  21.333  0.00  0.00    +0.000 A 
ATOM      3  N   UNL     1       1.651   6.581  20.871  0.00  0.00    +0.000 NA
ATOM      4  C   UNL     1       2.235   6.637  19.664  0.00  0.00    +0.000 A 
ATOM      5  N   UNL     1       2.945   5.566  19.228  0.00  0.00    +0.000 N 
ATOM      6  C   UNL     1       3.147   4.354  19.981  0.00  0.00    +0.000 C 
ATOM      7  C   UNL     1       4.410   3.742  19.352  0.00  0.00    +0.000 C 
ATOM      8  C   UNL     1       4.578   4.453  18.003  0.00  0.00    +0.000 C 
ATOM      9  C   UNL     1       5.958   5.155  17.839  0.00  0.00    +0.000 C 
ATOM     10  N   UNL     1       5.767   4.990  16.366  0.00  0.00    +0.000 NA
ATOM     11  C   UNL     1       5.039   3.722  16.689  0.00  0.00    +0.000 C 
ATOM     12  C   UNL     1       3.410   5.436  17.865  0.00  0.00    +0.000 C 
ATOM     13  N   UNL     1       2.216   7.746  18.905  0.00  0.00    +0.000 NA
ATOM     14  C   UNL     1       1.637   8.856  19.415  0.00  0.00    +0.000 A 
ENDROOT
BRANCH   1  16
ATOM     15  O   UNL     1       0.313  11.132  20.618  0.00  0.00    +0.000 OA
ATOM     16  C   UNL     1       0.446  10.096  21.266  0.00  0.00    +0.000 C 
ATOM     17  N   UNL     1       0.051  10.020  22.581  0.00  0.00    +0.000 N 
ATOM     18  H   UNL     1       0.290   9.295  23.247  0.00  0.00    +0.000 HD
BRANCH  17  19
ATOM     19  O   UNL     1      -0.472  11.215  23.129  0.00  0.00    +0.000 OA
ATOM     20  H   UNL     1       0.325  11.788  23.182  0.00  0.00    +0.000 HD
ENDBRANCH  17  19
ENDBRANCH   1  16
BRANCH  10  21
ATOM     21  C   UNL     1       7.066   4.797  15.733  0.00  0.00    +0.000 C 
BRANCH  21  22
ATOM     22  C   UNL     1       6.909   4.541  14.258  0.00  0.00    +0.000 A 
ATOM     23  C   UNL     1       7.663   5.179  13.207  0.00  0.00    +0.000 A 
ATOM     24  C   UNL     1       7.377   4.668  11.962  0.00  0.00    +0.000 A 
ATOM     25  S   UNL     1       6.202   3.431  12.027  0.00  0.00    +0.000 S 
ATOM     26  C   UNL     1       6.075   3.575  13.729  0.00  0.00    +0.000 A 
ENDBRANCH  21  22
ENDBRANCH  10  21
TORSDOF 4
ENDMDL
MODEL 4
REMARK VINA RESULT:      -6.5      5.329      8.817
REMARK  Name = 
REMARK  4 active torsions:
REMARK  status: ('A' for Active; 'I' for Inactive)
REMARK    1  A    between atoms: C_2  and  C_5
REMARK    2  A    between atoms: N_3  and  O_4
REMARK    3  A    between atoms: N_14  and  C_15
REMARK    4  A    between atoms: C_15  and  C_16
REMARK                            x       y       z     vdW  Elec       q    Type
REMARK                         _______ _______ _______ _____ _____    ______ ____
ROOT
ATOM      1  C   UNL     1       2.512   4.177  18.893  0.00  0.00    +0.000 A 
ATOM      2  C   UNL     1       2.632   4.522  20.218  0.00  0.00    +0.000 A 
ATOM      3  N   UNL     1       2.414   5.768  20.696  0.00  0.00    +0.000 NA
ATOM      4  C   UNL     1       2.073   6.721  19.814  0.00  0.00    +0.000 A 
ATOM      5  N   UNL     1       1.725   7.949  20.276  0.00  0.00    +0.000 N 
ATOM      6  C   UNL     1       1.670   8.316  21.668  0.00  0.00    +0.000 C 
ATOM      7  C   UNL     1       0.726   9.530  21.687  0.00  0.00    +0.000 C 
ATOM      8  C   UNL     1       0.657  10.014  20.232  0.00  0.00    +0.000 C 
ATOM      9  C   UNL     1      -0.791  10.062  19.662  0.00  0.00    +0.000 C 
ATOM     10  N   UNL     1      -0.291  11.113  18.725  0.00  0.00    +0.000 NA
ATOM     11  C   UNL     1       0.636  11.532  19.823  0.00  0.00    +0.000 C 
ATOM     12  C   UNL     1       1.570   9.097  19.410  0.00  0.00    +0.000 C 
ATOM     13  N   UNL     1       1.979   6.481  18.495  0.00  0.00    +0.000 NA
ATOM     14  C   UNL     1       2.178   5.217  18.062  0.00  0.00    +0.000 A 
ENDROOT
BRANCH   1  16
ATOM     15  O   UNL     1       1.706   2.112  18.116  0.00  0.00    +0.000 OA
ATOM     16  C   UNL     1       2.677   2.775  18.475  0.00  0.00    +0.000 C 
ATOM     17  N   UNL     1       3.941   2.235  18.498  0.00  0.00    +0.000 N 
ATOM     18  H   UNL     1       4.759   2.621  18.953  0.00  0.00    +0.000 HD
BRANCH  17  19
ATOM     19  O   UNL     1       4.028   0.874  18.119  0.00  0.00    +0.000 OA
ATOM     20  H   UNL     1       3.349   0.453  18.692  0.00  0.00    +0.000 HD
ENDBRANCH  17  19
ENDBRANCH   1  16
BRANCH  10  21
ATOM     21  C   UNL     1      -1.366  12.057  18.447  0.00  0.00    +0.000 C 
BRANCH  21  22
ATOM     22  C   UNL     1      -2.379  11.455  17.511  0.00  0.00    +0.000 A 
ATOM     23  C   UNL     1      -3.808  11.454  17.703  0.00  0.00    +0.000 A 
ATOM     24  C   UNL     1      -4.489  10.924  16.631  0.00  0.00    +0.000 A 
ATOM     25  S   UNL     1      -3.436  10.411  15.389  0.00  0.00    +0.000 S 
ATOM     26  C   UNL     1      -2.062  10.902  16.285  0.00  0.00    +0.000 A 
ENDBRANCH  21  22
ENDBRANCH  10  21
TORSDOF 4
ENDMDL
MODEL 5
REMARK VINA RESULT:      -6.5      5.861     10.227
REMARK  Name = 
REMARK  4 active torsions:
REMARK  status: ('A' for Active; 'I' for Inactive)
REMARK    1  A    between atoms: C_2  and  C_5
REMARK    2  A    between atoms: N_3  and  O_4
REMARK    3  A    between atoms: N_14  and  C_15
REMARK    4  A    between atoms: C_15  and  C_16
REMARK                            x       y       z     vdW  Elec       q    Type
REMARK                         _______ _______ _______ _____ _____    ______ ____
ROOT
ATOM      1  C   UNL     1       2.857   5.485  19.690  0.00  0.00    +0.000 A 
ATOM      2  C   UNL     1       3.220   6.190  18.567  0.00  0.00    +0.000 A 
ATOM      3  N   UNL     1       2.768   7.432  18.278  0.00  0.00    +0.000 NA
ATOM      4  C   UNL     1       1.903   7.994  19.137  0.00  0.00    +0.000 A 
ATOM      5  N   UNL     1       1.529   9.284  18.941  0.00  0.00    +0.000 N 
ATOM      6  C   UNL     1       2.011  10.125  17.876  0.00  0.00    +0.000 C 
ATOM      7  C   UNL     1       1.767  11.551  18.399  0.00  0.00    +0.000 C 
ATOM      8  C   UNL     1       0.769  11.395  19.554  0.00  0.00    +0.000 C 
ATOM      9  C   UNL     1       1.284  11.980  20.902  0.00  0.00    +0.000 C 
ATOM     10  N   UNL     1      -0.153  12.150  21.274  0.00  0.00    +0.000 NA
ATOM     11  C   UNL     1      -0.413  12.396  19.821  0.00  0.00    +0.000 C 
ATOM     12  C   UNL     1       0.438   9.902  19.663  0.00  0.00    +0.000 C 
ATOM     13  N   UNL     1       1.459   7.357  20.234  0.00  0.00    +0.000 NA
ATOM     14  C   UNL     1       1.957   6.130  20.501  0.00  0.00    +0.000 A 
ENDROOT
BRANCH   1  16
ATOM     15  O   UNL     1       2.947   3.401  20.769  0.00  0.00    +0.000 OA
ATOM     16  C   UNL     1       3.472   4.177  19.973  0.00  0.00    +0.000 C 
ATOM     17  N   UNL     1       4.639   3.853  19.322  0.00  0.00    +0.000 N 
ATOM     18  H   UNL     1       5.244   4.483  18.810  0.00  0.00    +0.000 HD
BRANCH  17  19
ATOM     19  O   UNL     1       5.197   2.599  19.663  0.00  0.00    +0.000 OA
ATOM     20  H   UNL     1       4.754   1.992  19.027  0.00  0.00    +0.000 HD
ENDBRANCH  17  19
ENDBRANCH   1  16
BRANCH  10  21
ATOM     21  C   UNL     1      -0.293  13.327  22.122  0.00  0.00    +0.000 C 
BRANCH  21  22
ATOM     22  C   UNL     1      -1.590  13.285  22.886  0.00  0.00    +0.000 A 
ATOM     23  C   UNL     1      -2.463  12.144  23.003  0.00  0.00    +0.000 A 
ATOM     24  C   UNL     1      -3.523  12.369  23.851  0.00  0.00    +0.000 A 
ATOM     25  S   UNL     1      -3.497  13.945  24.509  0.00  0.00    +0.000 S 
ATOM     26  C   UNL     1      -2.061  14.329  23.660  0.00  0.00    +0.000 A 
ENDBRANCH  21  22
ENDBRANCH  10  21
TORSDOF 4
ENDMDL
MODEL 6
REMARK VINA RESULT:      -6.4      5.761      9.897
REMARK  Name = 
REMARK  4 active torsions:
REMARK  status: ('A' for Active; 'I' for Inactive)
REMARK    1  A    between atoms: C_2  and  C_5
REMARK    2  A    between atoms: N_3  and  O_4
REMARK    3  A    between atoms: N_14  and  C_15
REMARK    4  A    between atoms: C_15  and  C_16
REMARK                            x       y       z     vdW  Elec       q    Type
REMARK                         _______ _______ _______ _____ _____    ______ ____
ROOT
ATOM      1  C   UNL     1       3.163   4.353  20.036  0.00  0.00    +0.000 A 
ATOM      2  C   UNL     1       3.621   4.959  18.889  0.00  0.00    +0.000 A 
ATOM      3  N   UNL     1       3.189   6.162  18.448  0.00  0.00    +0.000 NA
ATOM      4  C   UNL     1       2.247   6.788  19.170  0.00  0.00    +0.000 A 
ATOM      5  N   UNL     1       1.883   8.049  18.824  0.00  0.00    +0.000 N 
ATOM      6  C   UNL     1       2.454   8.796  17.733  0.00  0.00    +0.000 C 
ATOM      7  C   UNL     1       2.155  10.260  18.099  0.00  0.00    +0.000 C 
ATOM      8  C   UNL     1       1.058  10.195  19.170  0.00  0.00    +0.000 C 
ATOM      9  C   UNL     1       1.445  10.909  20.498  0.00  0.00    +0.000 C 
ATOM     10  N   UNL     1      -0.020  11.091  20.723  0.00  0.00    +0.000 NA
ATOM     11  C   UNL     1      -0.150  11.200  19.236  0.00  0.00    +0.000 C 
ATOM     12  C   UNL     1       0.728   8.714  19.386  0.00  0.00    +0.000 C 
ATOM     13  N   UNL     1       1.710   6.247  20.278  0.00  0.00    +0.000 NA
ATOM     14  C   UNL     1       2.189   5.057  20.700  0.00  0.00    +0.000 A 
ENDROOT
BRANCH   1  16
ATOM     15  O   UNL     1       3.317   2.512  21.485  0.00  0.00    +0.000 OA
ATOM     16  C   UNL     1       3.758   3.086  20.492  0.00  0.00    +0.000 C 
ATOM     17  N   UNL     1       4.811   2.568  19.775  0.00  0.00    +0.000 N 
ATOM     18  H   UNL     1       5.365   3.048  19.076  0.00  0.00    +0.000 HD
BRANCH  17  19
ATOM     19  O   UNL     1       5.360   1.368  20.284  0.00  0.00    +0.000 OA
ATOM     20  H   UNL     1       6.285   1.631  20.488  0.00  0.00    +0.000 HD
ENDBRANCH  17  19
ENDBRANCH   1  16
BRANCH  10  21
ATOM     21  C   UNL     1      -0.244  12.338  21.443  0.00  0.00    +0.000 C 
BRANCH  21  22
ATOM     22  C   UNL     1      -1.651  12.405  21.976  0.00  0.00    +0.000 A 
ATOM     23  C   UNL     1      -2.063  12.062  23.314  0.00  0.00    +0.000 A 
ATOM     24  C   UNL     1      -3.394  12.322  23.544  0.00  0.00    +0.000 A 
ATOM     25  S   UNL     1      -4.171  12.969  22.168  0.00  0.00    +0.000 S 
ATOM     26  C   UNL     1      -2.722  12.903  21.259  0.00  0.00    +0.000 A 
ENDBRANCH  21  22
ENDBRANCH  10  21
TORSDOF 4
ENDMDL
MODEL 7
REMARK VINA RESULT:      -6.3      1.306      1.668
REMARK  Name = 
REMARK  4 active torsions:
REMARK  status: ('A' for Active; 'I' for Inactive)
REMARK    1  A    between atoms: C_2  and  C_5
REMARK    2  A    between atoms: N_3  and  O_4
REMARK    3  A    between atoms: N_14  and  C_15
REMARK    4  A    between atoms: C_15  and  C_16
REMARK                            x       y       z     vdW  Elec       q    Type
REMARK                         _______ _______ _______ _____ _____    ______ ____
ROOT
ATOM      1  C   UNL     1       0.859   9.608  20.259  0.00  0.00    +0.000 A 
ATOM      2  C   UNL     1       0.853   8.511  21.088  0.00  0.00    +0.000 A 
ATOM      3  N   UNL     1       1.439   7.331  20.782  0.00  0.00    +0.000 NA
ATOM      4  C   UNL     1       2.048   7.230  19.591  0.00  0.00    +0.000 A 
ATOM      5  N   UNL     1       2.752   6.105  19.306  0.00  0.00    +0.000 N 
ATOM      6  C   UNL     1       2.920   4.993  20.207  0.00  0.00    +0.000 C 
ATOM      7  C   UNL     1       4.187   4.293  19.687  0.00  0.00    +0.000 C 
ATOM      8  C   UNL     1       4.393   4.829  18.264  0.00  0.00    +0.000 C 
ATOM      9  C   UNL     1       5.787   5.489  18.047  0.00  0.00    +0.000 C 
ATOM     10  N   UNL     1       5.624   5.146  16.602  0.00  0.00    +0.000 NA
ATOM     11  C   UNL     1       4.871   3.937  17.061  0.00  0.00    +0.000 C 
ATOM     12  C   UNL     1       3.244   5.802  17.980  0.00  0.00    +0.000 C 
ATOM     13  N   UNL     1       2.062   8.237  18.700  0.00  0.00    +0.000 NA
ATOM     14  C   UNL     1       1.489   9.408  19.056  0.00  0.00    +0.000 A 
ENDROOT
BRANCH   1  16
ATOM     15  O   UNL     1      -0.050  11.743  19.899  0.00  0.00    +0.000 OA
ATOM     16  C   UNL     1       0.277  10.882  20.713  0.00  0.00    +0.000 C 
ATOM     17  N   UNL     1       0.110  11.075  22.064  0.00  0.00    +0.000 N 
ATOM     18  H   UNL     1       0.518  10.526  22.812  0.00  0.00    +0.000 HD
BRANCH  17  19
ATOM     19  O   UNL     1      -0.421  12.331  22.438  0.00  0.00    +0.000 OA
ATOM     20  H   UNL     1      -1.390  12.181  22.363  0.00  0.00    +0.000 HD
ENDBRANCH  17  19
ENDBRANCH   1  16
BRANCH  10  21
ATOM     21  C   UNL     1       6.933   4.861  16.027  0.00  0.00    +0.000 C 
BRANCH  21  22
ATOM     22  C   UNL     1       6.812   4.511  14.567  0.00  0.00    +0.000 A 
ATOM     23  C   UNL     1       5.792   3.677  13.982  0.00  0.00    +0.000 A 
ATOM     24  C   UNL     1       5.873   3.622  12.609  0.00  0.00    +0.000 A 
ATOM     25  S   UNL     1       7.169   4.553  12.002  0.00  0.00    +0.000 S 
ATOM     26  C   UNL     1       7.625   5.036  13.580  0.00  0.00    +0.000 A 
ENDBRANCH  21  22
ENDBRANCH  10  21
TORSDOF 4
ENDMDL
MODEL 8
REMARK VINA RESULT:      -6.2      5.430      9.038
REMARK  Name = 
REMARK  4 active torsions:
REMARK  status: ('A' for Active; 'I' for Inactive)
REMARK    1  A    between atoms: C_2  and  C_5
REMARK    2  A    between atoms: N_3  and  O_4
REMARK    3  A    between atoms: N_14  and  C_15
REMARK    4  A    between atoms: C_15  and  C_16
REMARK                            x       y       z     vdW  Elec       q    Type
REMARK                         _______ _______ _______ _____ _____    ______ ____
ROOT
ATOM      1  C   UNL     1       2.653   4.630  18.678  0.00  0.00    +0.000 A 
ATOM      2  C   UNL     1       2.116   4.627  19.944  0.00  0.00    +0.000 A 
ATOM      3  N   UNL     1       1.719   5.743  20.597  0.00  0.00    +0.000 NA
ATOM      4  C   UNL     1       1.876   6.919  19.970  0.00  0.00    +0.000 A 
ATOM      5  N   UNL     1       1.374   8.042  20.545  0.00  0.00    +0.000 N 
ATOM      6  C   UNL     1       0.652   8.072  21.791  0.00  0.00    +0.000 C 
ATOM      7  C   UNL     1      -0.153   9.381  21.714  0.00  0.00    +0.000 C 
ATOM      8  C   UNL     1       0.512  10.201  20.600  0.00  0.00    +0.000 C 
ATOM      9  C   UNL     1      -0.469  10.611  19.462  0.00  0.00    +0.000 C 
ATOM     10  N   UNL     1       0.450  11.762  19.208  0.00  0.00    +0.000 NA
ATOM     11  C   UNL     1       0.728  11.756  20.678  0.00  0.00    +0.000 C 
ATOM     12  C   UNL     1       1.690   9.372  20.074  0.00  0.00    +0.000 C 
ATOM     13  N   UNL     1       2.435   7.018  18.752  0.00  0.00    +0.000 NA
ATOM     14  C   UNL     1       2.792   5.878  18.122  0.00  0.00    +0.000 A 
ENDROOT
BRANCH   1  16
ATOM     15  O   UNL     1       2.320   2.991  17.030  0.00  0.00    +0.000 OA
ATOM     16  C   UNL     1       2.970   3.359  18.006  0.00  0.00    +0.000 C 
ATOM     17  N   UNL     1       4.009   2.605  18.498  0.00  0.00    +0.000 N 
ATOM     18  H   UNL     1       4.470   2.717  19.393  0.00  0.00    +0.000 HD
BRANCH  17  19
ATOM     19  O   UNL     1       4.240   1.380  17.831  0.00  0.00    +0.000 OA
ATOM     20  H   UNL     1       4.875   1.641  17.127  0.00  0.00    +0.000 HD
ENDBRANCH  17  19
ENDBRANCH   1  16
BRANCH  10  21
ATOM     21  C   UNL     1      -0.329  12.903  18.744  0.00  0.00    +0.000 C 
BRANCH  21  22
ATOM     22  C   UNL     1       0.512  14.152  18.722  0.00  0.00    +0.000 A 
ATOM     23  C   UNL     1       1.926  14.211  18.446  0.00  0.00    +0.000 A 
ATOM     24  C   UNL     1       2.404  15.500  18.391  0.00  0.00    +0.000 A 
ATOM     25  S   UNL     1       1.179  16.654  18.677  0.00  0.00    +0.000 S 
ATOM     26  C   UNL     1       0.001  15.427  18.873  0.00  0.00    +0.000 A 
ENDBRANCH  21  22
ENDBRANCH  10  21
TORSDOF 4
ENDMDL
MODEL 9
REMARK VINA RESULT:      -6.1      5.235      8.861
REMARK  Name = 
REMARK  4 active torsions:
REMARK  status: ('A' for Active; 'I' for Inactive)
REMARK    1  A    between atoms: C_2  and  C_5
REMARK    2  A    between atoms: N_3  and  O_4
REMARK    3  A    between atoms: N_14  and  C_15
REMARK    4  A    between atoms: C_15  and  C_16
REMARK                            x       y       z     vdW  Elec       q    Type
REMARK                         _______ _______ _______ _____ _____    ______ ____
ROOT
ATOM      1  C   UNL     1       2.996   4.392  19.002  0.00  0.00    +0.000 A 
ATOM      2  C   UNL     1       2.190   4.346  20.116  0.00  0.00    +0.000 A 
ATOM      3  N   UNL     1       1.666   5.441  20.713  0.00  0.00    +0.000 NA
ATOM      4  C   UNL     1       1.968   6.639  20.190  0.00  0.00    +0.000 A 
ATOM      5  N   UNL     1       1.359   7.745  20.689  0.00  0.00    +0.000 N 
ATOM      6  C   UNL     1       0.378   7.736  21.743  0.00  0.00    +0.000 C 
ATOM      7  C   UNL     1      -0.379   9.061  21.546  0.00  0.00    +0.000 C 
ATOM      8  C   UNL     1       0.523   9.914  20.646  0.00  0.00    +0.000 C 
ATOM      9  C   UNL     1      -0.176  10.389  19.338  0.00  0.00    +0.000 C 
ATOM     10  N   UNL     1       0.785  11.533  19.346  0.00  0.00    +0.000 NA
ATOM     11  C   UNL     1       0.728  11.461  20.839  0.00  0.00    +0.000 C 
ATOM     12  C   UNL     1       1.782   9.088  20.359  0.00  0.00    +0.000 C 
ATOM     13  N   UNL     1       2.785   6.779  19.133  0.00  0.00    +0.000 NA
ATOM     14  C   UNL     1       3.265   5.659  18.548  0.00  0.00    +0.000 A 
ENDROOT
BRANCH   1  16
ATOM     15  O   UNL     1       3.513   3.063  17.137  0.00  0.00    +0.000 OA
ATOM     16  C   UNL     1       3.445   3.145  18.362  0.00  0.00    +0.000 C 
ATOM     17  N   UNL     1       3.785   2.086  19.170  0.00  0.00    +0.000 N 
ATOM     18  H   UNL     1       3.582   1.985  20.157  0.00  0.00    +0.000 HD
BRANCH  17  19
ATOM     19  O   UNL     1       4.174   0.906  18.493  0.00  0.00    +0.000 OA
ATOM     20  H   UNL     1       3.438   0.778  17.854  0.00  0.00    +0.000 HD
ENDBRANCH  17  19
ENDBRANCH   1  16
BRANCH  10  21
ATOM     21  C   UNL     1       0.139  12.706  18.771  0.00  0.00    +0.000 C 
BRANCH  21  22
ATOM     22  C   UNL     1       1.134  13.816  18.558  0.00  0.00    +0.000 A 
ATOM     23  C   UNL     1       0.914  15.212  18.842  0.00  0.00    +0.000 A 
ATOM     24  C   UNL     1       2.039  15.979  18.647  0.00  0.00    +0.000 A 
ATOM     25  S   UNL     1       3.368  15.049  18.114  0.00  0.00    +0.000 S 
ATOM     26  C   UNL     1       2.437  13.612  18.146  0.00  0.00    +0.000 A 
ENDBRANCH  21  22
ENDBRANCH  10  21
TORSDOF 4
ENDMDL
