MODEL 1
REMARK VINA RESULT:      -7.9      0.000      0.000
REMARK  Name = 
REMARK  3 active torsions:
REMARK  status: ('A' for Active; 'I' for Inactive)
REMARK    1  A    between atoms: C_1  and  N_2
REMARK    2  A    between atoms: C_8  and  C_10
REMARK    3  A    between atoms: C_13  and  N_14
REMARK                            x       y       z     vdW  Elec       q    Type
REMARK                         _______ _______ _______ _____ _____    ______ ____
ROOT
ATOM      1  C   UNL     1       6.280   4.505  15.116  0.00  0.00    +0.000 C 
ATOM      2  N   UNL     1       6.015   4.301  16.520  0.00  0.00    +0.000 N 
ATOM      3  C   UNL     1       4.752   4.619  17.114  0.00  0.00    +0.000 C 
ATOM      4  C   UNL     1       5.024   4.360  18.591  0.00  0.00    +0.000 C 
ATOM      5  C   UNL     1       4.494   2.994  19.071  0.00  0.00    +0.000 C 
ATOM      6  C   UNL     1       3.334   3.314  20.014  0.00  0.00    +0.000 C 
ATOM      7  N   UNL     1       3.100   4.738  19.867  0.00  0.00    +0.000 N 
ATOM      8  C   UNL     1       1.916   5.297  20.342  0.00  0.00    +0.000 C 
ATOM      9  O   UNL     1       1.025   4.598  20.817  0.00  0.00    +0.000 OA
ATOM     10  C   UNL     1       4.358   5.376  19.518  0.00  0.00    +0.000 C 
ATOM     11  O   UNL     1       6.452   4.428  18.717  0.00  0.00    +0.000 OA
ATOM     12  C   UNL     1       7.008   4.381  17.468  0.00  0.00    +0.000 C 
ATOM     13  O   UNL     1       8.208   4.446  17.261  0.00  0.00    +0.000 OA
ENDROOT
BRANCH   8  14
ATOM     14  C   UNL     1       1.686   6.762  20.206  0.00  0.00    +0.000 A 
ATOM     15  C   UNL     1       1.413   7.507  21.361  0.00  0.00    +0.000 A 
ATOM     16  C   UNL     1       1.172   8.879  21.288  0.00  0.00    +0.000 A 
ATOM     17  C   UNL     1       1.299   9.554  20.070  0.00  0.00    +0.000 A 
ATOM     18  C   UNL     1       1.650   8.832  18.921  0.00  0.00    +0.000 A 
ATOM     19  C   UNL     1       1.830   7.440  18.984  0.00  0.00    +0.000 A 
ATOM     20 CL   UNL     1       2.213   6.645  17.496  0.00  0.00    +0.000 Cl
BRANCH  17  21
ATOM     21  N   UNL     1       1.090  10.960  20.037  0.00  0.00    +0.000 N 
ATOM     22  C   UNL     1       0.813  11.762  18.951  0.00  0.00    +0.000 A 
ATOM     23  C   UNL     1       0.730  13.054  19.412  0.00  0.00    +0.000 A 
ATOM     24  C   UNL     1       0.953  12.951  20.792  0.00  0.00    +0.000 A 
ATOM     25  N   UNL     1       1.166  11.696  21.180  0.00  0.00    +0.000 NA
ENDBRANCH  17  21
ENDBRANCH   8  14
TORSDOF 2
ENDMDL
MODEL 2
REMARK VINA RESULT:      -7.6      1.457      1.811
REMARK  Name = 
REMARK  3 active torsions:
REMARK  status: ('A' for Active; 'I' for Inactive)
REMARK    1  A    between atoms: C_1  and  N_2
REMARK    2  A    between atoms: C_8  and  C_10
REMARK    3  A    between atoms: C_13  and  N_14
REMARK                            x       y       z     vdW  Elec       q    Type
REMARK                         _______ _______ _______ _____ _____    ______ ____
ROOT
ATOM      1  C   UNL     1       6.318   4.285  14.900  0.00  0.00    +0.000 C 
ATOM      2  N   UNL     1       6.028   4.251  16.313  0.00  0.00    +0.000 N 
ATOM      3  C   UNL     1       4.791   4.730  16.853  0.00  0.00    +0.000 C 
ATOM      4  C   UNL     1       5.032   4.606  18.352  0.00  0.00    +0.000 C 
ATOM      5  C   UNL     1       4.390   3.345  18.964  0.00  0.00    +0.000 C 
ATOM      6  C   UNL     1       3.254   3.854  19.851  0.00  0.00    +0.000 C 
ATOM      7  N   UNL     1       3.137   5.269  19.552  0.00  0.00    +0.000 N 
ATOM      8  C   UNL     1       1.999   5.967  19.949  0.00  0.00    +0.000 C 
ATOM      9  O   UNL     1       1.052   5.396  20.481  0.00  0.00    +0.000 OA
ATOM     10  C   UNL     1       4.444   5.764  19.158  0.00  0.00    +0.000 C 
ATOM     11  O   UNL     1       6.460   4.574  18.491  0.00  0.00    +0.000 OA
ATOM     12  C   UNL     1       7.019   4.351  17.263  0.00  0.00    +0.000 C 
ATOM     13  O   UNL     1       8.221   4.298  17.068  0.00  0.00    +0.000 OA
ENDROOT
BRANCH   8  14
ATOM     14  C   UNL     1       1.889   7.424  19.658  0.00  0.00    +0.000 A 
ATOM     15  C   UNL     1       2.243   7.881  18.381  0.00  0.00    +0.000 A 
ATOM     16  C   UNL     1       2.176   9.237  18.062  0.00  0.00    +0.000 A 
ATOM     17  C   UNL     1       1.656  10.153  18.982  0.00  0.00    +0.000 A 
ATOM     18  C   UNL     1       1.225   9.696  20.234  0.00  0.00    +0.000 A 
ATOM     19  C   UNL     1       1.352   8.339  20.578  0.00  0.00    +0.000 A 
ATOM     20 CL   UNL     1       0.832   7.895  22.167  0.00  0.00    +0.000 Cl
BRANCH  17  21
ATOM     21  N   UNL     1       1.559  11.523  18.610  0.00  0.00    +0.000 N 
ATOM     22  C   UNL     1       2.542  12.346  18.105  0.00  0.00    +0.000 A 
ATOM     23  C   UNL     1       1.979  13.589  17.933  0.00  0.00    +0.000 A 
ATOM     24  C   UNL     1       0.648  13.433  18.341  0.00  0.00    +0.000 A 
ATOM     25  N   UNL     1       0.383  12.193  18.746  0.00  0.00    +0.000 NA
ENDBRANCH  17  21
ENDBRANCH   8  14
TORSDOF 2
ENDMDL
MODEL 3
REMARK VINA RESULT:      -7.6      4.052      8.239
REMARK  Name = 
REMARK  3 active torsions:
REMARK  status: ('A' for Active; 'I' for Inactive)
REMARK    1  A    between atoms: C_1  and  N_2
REMARK    2  A    between atoms: C_8  and  C_10
REMARK    3  A    between atoms: C_13  and  N_14
REMARK                            x       y       z     vdW  Elec       q    Type
REMARK                         _______ _______ _______ _____ _____    ______ ____
ROOT
ATOM      1  C   UNL     1       4.940  15.159  21.372  0.00  0.00    +0.000 C 
ATOM      2  N   UNL     1       4.048  14.852  20.280  0.00  0.00    +0.000 N 
ATOM      3  C   UNL     1       3.097  13.783  20.345  0.00  0.00    +0.000 C 
ATOM      4  C   UNL     1       2.519  13.789  18.935  0.00  0.00    +0.000 C 
ATOM      5  C   UNL     1       1.158  14.507  18.845  0.00  0.00    +0.000 C 
ATOM      6  C   UNL     1       0.134  13.408  18.555  0.00  0.00    +0.000 C 
ATOM      7  N   UNL     1       0.855  12.159  18.716  0.00  0.00    +0.000 N 
ATOM      8  C   UNL     1       0.149  10.965  18.834  0.00  0.00    +0.000 C 
ATOM      9  O   UNL     1      -1.078  10.950  18.883  0.00  0.00    +0.000 OA
ATOM     10  C   UNL     1       2.250  12.389  18.384  0.00  0.00    +0.000 C 
ATOM     11  O   UNL     1       3.506  14.460  18.138  0.00  0.00    +0.000 OA
ATOM     12  C   UNL     1       4.392  15.089  18.969  0.00  0.00    +0.000 C 
ATOM     13  O   UNL     1       5.356  15.721  18.573  0.00  0.00    +0.000 OA
ENDROOT
BRANCH   8  14
ATOM     14  C   UNL     1       0.891   9.682  18.980  0.00  0.00    +0.000 A 
ATOM     15  C   UNL     1       1.546   9.155  17.859  0.00  0.00    +0.000 A 
ATOM     16  C   UNL     1       2.240   7.948  17.936  0.00  0.00    +0.000 A 
ATOM     17  C   UNL     1       2.379   7.291  19.163  0.00  0.00    +0.000 A 
ATOM     18  C   UNL     1       1.795   7.850  20.308  0.00  0.00    +0.000 A 
ATOM     19  C   UNL     1       1.043   9.034  20.217  0.00  0.00    +0.000 A 
ATOM     20 CL   UNL     1       0.328   9.606  21.684  0.00  0.00    +0.000 Cl
BRANCH  17  21
ATOM     21  N   UNL     1       3.130   6.085  19.217  0.00  0.00    +0.000 N 
ATOM     22  C   UNL     1       2.858   4.935  19.927  0.00  0.00    +0.000 A 
ATOM     23  C   UNL     1       3.890   4.059  19.688  0.00  0.00    +0.000 A 
ATOM     24  C   UNL     1       4.740   4.745  18.811  0.00  0.00    +0.000 A 
ATOM     25  N   UNL     1       4.291   5.963  18.516  0.00  0.00    +0.000 NA
ENDBRANCH  17  21
ENDBRANCH   8  14
TORSDOF 2
ENDMDL
MODEL 4
REMARK VINA RESULT:      -7.2      3.991      8.646
REMARK  Name = 
REMARK  3 active torsions:
REMARK  status: ('A' for Active; 'I' for Inactive)
REMARK    1  A    between atoms: C_1  and  N_2
REMARK    2  A    between atoms: C_8  and  C_10
REMARK    3  A    between atoms: C_13  and  N_14
REMARK                            x       y       z     vdW  Elec       q    Type
REMARK                         _______ _______ _______ _____ _____    ______ ____
ROOT
ATOM      1  C   UNL     1      -4.016  10.386  14.955  0.00  0.00    +0.000 C 
ATOM      2  N   UNL     1      -3.481  10.841  16.215  0.00  0.00    +0.000 N 
ATOM      3  C   UNL     1      -2.107  10.658  16.574  0.00  0.00    +0.000 C 
ATOM      4  C   UNL     1      -2.086  11.171  18.010  0.00  0.00    +0.000 C 
ATOM      5  C   UNL     1      -1.546  12.610  18.127  0.00  0.00    +0.000 C 
ATOM      6  C   UNL     1      -0.201  12.485  18.844  0.00  0.00    +0.000 C 
ATOM      7  N   UNL     1       0.077  11.062  18.895  0.00  0.00    +0.000 N 
ATOM      8  C   UNL     1       1.362  10.619  19.196  0.00  0.00    +0.000 C 
ATOM      9  O   UNL     1       2.291  11.408  19.347  0.00  0.00    +0.000 OA
ATOM     10  C   UNL     1      -1.188  10.349  18.933  0.00  0.00    +0.000 C 
ATOM     11  O   UNL     1      -3.452  11.099  18.444  0.00  0.00    +0.000 OA
ATOM     12  C   UNL     1      -4.254  10.913  17.352  0.00  0.00    +0.000 C 
ATOM     13  O   UNL     1      -5.464  10.789  17.417  0.00  0.00    +0.000 OA
ENDROOT
BRANCH   8  14
ATOM     14  C   UNL     1       1.641   9.158  19.266  0.00  0.00    +0.000 A 
ATOM     15  C   UNL     1       2.182   8.524  18.140  0.00  0.00    +0.000 A 
ATOM     16  C   UNL     1       2.446   7.155  18.146  0.00  0.00    +0.000 A 
ATOM     17  C   UNL     1       2.268   6.407  19.315  0.00  0.00    +0.000 A 
ATOM     18  C   UNL     1       1.803   7.047  20.472  0.00  0.00    +0.000 A 
ATOM     19  C   UNL     1       1.478   8.413  20.446  0.00  0.00    +0.000 A 
ATOM     20 CL   UNL     1       0.866   9.087  21.918  0.00  0.00    +0.000 Cl
BRANCH  17  21
ATOM     21  N   UNL     1       2.589   5.021  19.301  0.00  0.00    +0.000 N 
ATOM     22  C   UNL     1       2.296   4.063  20.248  0.00  0.00    +0.000 A 
ATOM     23  C   UNL     1       2.841   2.881  19.807  0.00  0.00    +0.000 A 
ATOM     24  C   UNL     1       3.433   3.200  18.579  0.00  0.00    +0.000 A 
ATOM     25  N   UNL     1       3.284   4.484  18.261  0.00  0.00    +0.000 NA
ENDBRANCH  17  21
ENDBRANCH   8  14
TORSDOF 2
ENDMDL
MODEL 5
REMARK VINA RESULT:      -7.2      4.331      6.592
REMARK  Name = 
REMARK  3 active torsions:
REMARK  status: ('A' for Active; 'I' for Inactive)
REMARK    1  A    between atoms: C_1  and  N_2
REMARK    2  A    between atoms: C_8  and  C_10
REMARK    3  A    between atoms: C_13  and  N_14
REMARK                            x       y       z     vdW  Elec       q    Type
REMARK                         _______ _______ _______ _____ _____    ______ ____
ROOT
ATOM      1  C   UNL     1       2.685   3.405  21.652  0.00  0.00    +0.000 C 
ATOM      2  N   UNL     1       2.790   3.866  20.289  0.00  0.00    +0.000 N 
ATOM      3  C   UNL     1       4.051   4.142  19.668  0.00  0.00    +0.000 C 
ATOM      4  C   UNL     1       3.622   4.714  18.322  0.00  0.00    +0.000 C 
ATOM      5  C   UNL     1       3.697   3.684  17.178  0.00  0.00    +0.000 C 
ATOM      6  C   UNL     1       4.838   4.157  16.277  0.00  0.00    +0.000 C 
ATOM      7  N   UNL     1       5.488   5.228  17.009  0.00  0.00    +0.000 N 
ATOM      8  C   UNL     1       6.751   5.664  16.618  0.00  0.00    +0.000 C 
ATOM      9  O   UNL     1       7.366   5.111  15.711  0.00  0.00    +0.000 OA
ATOM     10  C   UNL     1       4.497   5.875  17.851  0.00  0.00    +0.000 C 
ATOM     11  O   UNL     1       2.272   5.156  18.527  0.00  0.00    +0.000 OA
ATOM     12  C   UNL     1       1.806   4.625  19.698  0.00  0.00    +0.000 C 
ATOM     13  O   UNL     1       0.694   4.848  20.145  0.00  0.00    +0.000 OA
ENDROOT
BRANCH   8  14
ATOM     14  C   UNL     1       7.409   6.777  17.359  0.00  0.00    +0.000 A 
ATOM     15  C   UNL     1       7.311   8.076  16.843  0.00  0.00    +0.000 A 
ATOM     16  C   UNL     1       7.923   9.150  17.487  0.00  0.00    +0.000 A 
ATOM     17  C   UNL     1       8.562   8.964  18.717  0.00  0.00    +0.000 A 
ATOM     18  C   UNL     1       8.597   7.683  19.283  0.00  0.00    +0.000 A 
ATOM     19  C   UNL     1       8.035   6.590  18.602  0.00  0.00    +0.000 A 
ATOM     20 CL   UNL     1       8.179   5.047  19.371  0.00  0.00    +0.000 Cl
BRANCH  17  21
ATOM     21  N   UNL     1       9.138  10.089  19.371  0.00  0.00    +0.000 N 
ATOM     22  C   UNL     1       9.043  10.452  20.697  0.00  0.00    +0.000 A 
ATOM     23  C   UNL     1       9.738  11.629  20.845  0.00  0.00    +0.000 A 
ATOM     24  C   UNL     1      10.238  11.906  19.565  0.00  0.00    +0.000 A 
ATOM     25  N   UNL     1       9.888  10.984  18.672  0.00  0.00    +0.000 NA
ENDBRANCH  17  21
ENDBRANCH   8  14
TORSDOF 2
ENDMDL
MODEL 6
REMARK VINA RESULT:      -7.0      6.909     10.246
REMARK  Name = 
REMARK  3 active torsions:
REMARK  status: ('A' for Active; 'I' for Inactive)
REMARK    1  A    between atoms: C_1  and  N_2
REMARK    2  A    between atoms: C_8  and  C_10
REMARK    3  A    between atoms: C_13  and  N_14
REMARK                            x       y       z     vdW  Elec       q    Type
REMARK                         _______ _______ _______ _____ _____    ______ ____
ROOT
ATOM      1  C   UNL     1       0.588  10.600  18.780  0.00  0.00    +0.000 C 
ATOM      2  N   UNL     1       0.982  11.801  19.476  0.00  0.00    +0.000 N 
ATOM      3  C   UNL     1       1.979  12.691  18.964  0.00  0.00    +0.000 C 
ATOM      4  C   UNL     1       2.121  13.694  20.102  0.00  0.00    +0.000 C 
ATOM      5  C   UNL     1       1.346  15.003  19.852  0.00  0.00    +0.000 C 
ATOM      6  C   UNL     1       2.414  16.077  19.644  0.00  0.00    +0.000 C 
ATOM      7  N   UNL     1       3.671  15.358  19.549  0.00  0.00    +0.000 N 
ATOM      8  C   UNL     1       4.799  16.001  19.047  0.00  0.00    +0.000 C 
ATOM      9  O   UNL     1       4.739  17.146  18.607  0.00  0.00    +0.000 OA
ATOM     10  C   UNL     1       3.563  14.143  20.338  0.00  0.00    +0.000 C 
ATOM     11  O   UNL     1       1.614  13.011  21.257  0.00  0.00    +0.000 OA
ATOM     12  C   UNL     1       0.934  11.897  20.848  0.00  0.00    +0.000 C 
ATOM     13  O   UNL     1       0.413  11.105  21.615  0.00  0.00    +0.000 OA
ENDROOT
BRANCH   8  14
ATOM     14  C   UNL     1       6.092  15.266  18.968  0.00  0.00    +0.000 A 
ATOM     15  C   UNL     1       6.382  14.543  17.803  0.00  0.00    +0.000 A 
ATOM     16  C   UNL     1       7.570  13.823  17.684  0.00  0.00    +0.000 A 
ATOM     17  C   UNL     1       8.541  13.893  18.689  0.00  0.00    +0.000 A 
ATOM     18  C   UNL     1       8.296  14.678  19.824  0.00  0.00    +0.000 A 
ATOM     19  C   UNL     1       7.072  15.352  19.971  0.00  0.00    +0.000 A 
ATOM     20 CL   UNL     1       6.859  16.251  21.434  0.00  0.00    +0.000 Cl
BRANCH  17  21
ATOM     21  N   UNL     1       9.762  13.183  18.517  0.00  0.00    +0.000 N 
ATOM     22  C   UNL     1      10.579  13.138  17.409  0.00  0.00    +0.000 A 
ATOM     23  C   UNL     1      11.622  12.293  17.710  0.00  0.00    +0.000 A 
ATOM     24  C   UNL     1      11.372  11.880  19.025  0.00  0.00    +0.000 A 
ATOM     25  N   UNL     1      10.259  12.413  19.523  0.00  0.00    +0.000 NA
ENDBRANCH  17  21
ENDBRANCH   8  14
TORSDOF 2
ENDMDL
MODEL 7
REMARK VINA RESULT:      -6.9      7.237      8.936
REMARK  Name = 
REMARK  3 active torsions:
REMARK  status: ('A' for Active; 'I' for Inactive)
REMARK    1  A    between atoms: C_1  and  N_2
REMARK    2  A    between atoms: C_8  and  C_10
REMARK    3  A    between atoms: C_13  and  N_14
REMARK                            x       y       z     vdW  Elec       q    Type
REMARK                         _______ _______ _______ _____ _____    ______ ____
ROOT
ATOM      1  C   UNL     1      10.526  11.840  20.467  0.00  0.00    +0.000 C 
ATOM      2  N   UNL     1       9.989  12.760  19.493  0.00  0.00    +0.000 N 
ATOM      3  C   UNL     1       8.876  13.613  19.778  0.00  0.00    +0.000 C 
ATOM      4  C   UNL     1       8.621  14.264  18.423  0.00  0.00    +0.000 C 
ATOM      5  C   UNL     1       9.214  15.683  18.316  0.00  0.00    +0.000 C 
ATOM      6  C   UNL     1       8.011  16.625  18.260  0.00  0.00    +0.000 C 
ATOM      7  N   UNL     1       6.858  15.795  18.558  0.00  0.00    +0.000 N 
ATOM      8  C   UNL     1       5.647  16.391  18.898  0.00  0.00    +0.000 C 
ATOM      9  O   UNL     1       5.548  17.609  19.029  0.00  0.00    +0.000 OA
ATOM     10  C   UNL     1       7.137  14.443  18.106  0.00  0.00    +0.000 C 
ATOM     11  O   UNL     1       9.233  13.379  17.473  0.00  0.00    +0.000 OA
ATOM     12  C   UNL     1      10.047  12.506  18.142  0.00  0.00    +0.000 C 
ATOM     13  O   UNL     1      10.680  11.620  17.595  0.00  0.00    +0.000 OA
ENDROOT
BRANCH   8  14
ATOM     14  C   UNL     1       4.461  15.539  19.186  0.00  0.00    +0.000 A 
ATOM     15  C   UNL     1       4.400  14.865  20.413  0.00  0.00    +0.000 A 
ATOM     16  C   UNL     1       3.321  14.040  20.725  0.00  0.00    +0.000 A 
ATOM     17  C   UNL     1       2.228  13.950  19.857  0.00  0.00    +0.000 A 
ATOM     18  C   UNL     1       2.241  14.682  18.663  0.00  0.00    +0.000 A 
ATOM     19  C   UNL     1       3.357  15.464  18.320  0.00  0.00    +0.000 A 
ATOM     20 CL   UNL     1       3.284  16.285  16.799  0.00  0.00    +0.000 Cl
BRANCH  17  21
ATOM     21  N   UNL     1       1.122  13.134  20.226  0.00  0.00    +0.000 N 
ATOM     22  C   UNL     1      -0.060  12.933  19.546  0.00  0.00    +0.000 A 
ATOM     23  C   UNL     1      -0.830  12.092  20.314  0.00  0.00    +0.000 A 
ATOM     24  C   UNL     1      -0.038  11.814  21.435  0.00  0.00    +0.000 A 
ATOM     25  N   UNL     1       1.140  12.432  21.391  0.00  0.00    +0.000 NA
ENDBRANCH  17  21
ENDBRANCH   8  14
TORSDOF 2
ENDMDL
MODEL 8
REMARK VINA RESULT:      -6.8      3.887      8.585
REMARK  Name = 
REMARK  3 active torsions:
REMARK  status: ('A' for Active; 'I' for Inactive)
REMARK    1  A    between atoms: C_1  and  N_2
REMARK    2  A    between atoms: C_8  and  C_10
REMARK    3  A    between atoms: C_13  and  N_14
REMARK                            x       y       z     vdW  Elec       q    Type
REMARK                         _______ _______ _______ _____ _____    ______ ____
ROOT
ATOM      1  C   UNL     1      -3.615  10.958  15.167  0.00  0.00    +0.000 C 
ATOM      2  N   UNL     1      -3.365  11.260  16.555  0.00  0.00    +0.000 N 
ATOM      3  C   UNL     1      -2.073  11.104  17.152  0.00  0.00    +0.000 C 
ATOM      4  C   UNL     1      -2.362  11.410  18.617  0.00  0.00    +0.000 C 
ATOM      5  C   UNL     1      -1.974  12.846  19.021  0.00  0.00    +0.000 C 
ATOM      6  C   UNL     1      -0.781  12.695  19.967  0.00  0.00    +0.000 C 
ATOM      7  N   UNL     1      -0.403  11.297  19.889  0.00  0.00    +0.000 N 
ATOM      8  C   UNL     1       0.835  10.888  20.379  0.00  0.00    +0.000 C 
ATOM      9  O   UNL     1       1.651  11.698  20.809  0.00  0.00    +0.000 OA
ATOM     10  C   UNL     1      -1.590  10.516  19.586  0.00  0.00    +0.000 C 
ATOM     11  O   UNL     1      -3.775  11.201  18.760  0.00  0.00    +0.000 OA
ATOM     12  C   UNL     1      -4.340  11.127  17.517  0.00  0.00    +0.000 C 
ATOM     13  O   UNL     1      -5.527  10.929  17.326  0.00  0.00    +0.000 OA
ENDROOT
BRANCH   8  14
ATOM     14  C   UNL     1       1.214   9.449  20.315  0.00  0.00    +0.000 A 
ATOM     15  C   UNL     1       0.907   8.625  21.407  0.00  0.00    +0.000 A 
ATOM     16  C   UNL     1       1.256   7.276  21.406  0.00  0.00    +0.000 A 
ATOM     17  C   UNL     1       1.831   6.696  20.270  0.00  0.00    +0.000 A 
ATOM     18  C   UNL     1       2.069   7.492  19.142  0.00  0.00    +0.000 A 
ATOM     19  C   UNL     1       1.775   8.866  19.167  0.00  0.00    +0.000 A 
ATOM     20 CL   UNL     1       2.157   9.761  17.736  0.00  0.00    +0.000 Cl
BRANCH  17  21
ATOM     21  N   UNL     1       2.134   5.306  20.285  0.00  0.00    +0.000 N 
ATOM     22  C   UNL     1       3.311   4.681  19.934  0.00  0.00    +0.000 A 
ATOM     23  C   UNL     1       3.110   3.329  20.082  0.00  0.00    +0.000 A 
ATOM     24  C   UNL     1       1.791   3.216  20.542  0.00  0.00    +0.000 A 
ATOM     25  N   UNL     1       1.196   4.399  20.673  0.00  0.00    +0.000 NA
ENDBRANCH  17  21
ENDBRANCH   8  14
TORSDOF 2
ENDMDL
MODEL 9
REMARK VINA RESULT:      -6.8      5.811     10.812
REMARK  Name = 
REMARK  3 active torsions:
REMARK  status: ('A' for Active; 'I' for Inactive)
REMARK    1  A    between atoms: C_1  and  N_2
REMARK    2  A    between atoms: C_8  and  C_10
REMARK    3  A    between atoms: C_13  and  N_14
REMARK                            x       y       z     vdW  Elec       q    Type
REMARK                         _______ _______ _______ _____ _____    ______ ____
ROOT
ATOM      1  C   UNL     1      -7.883  11.458  21.401  0.00  0.00    +0.000 C 
ATOM      2  N   UNL     1      -6.809  12.283  21.898  0.00  0.00    +0.000 N 
ATOM      3  C   UNL     1      -5.629  12.548  21.132  0.00  0.00    +0.000 C 
ATOM      4  C   UNL     1      -4.775  13.326  22.127  0.00  0.00    +0.000 C 
ATOM      5  C   UNL     1      -4.824  14.850  21.899  0.00  0.00    +0.000 C 
ATOM      6  C   UNL     1      -3.429  15.233  21.401  0.00  0.00    +0.000 C 
ATOM      7  N   UNL     1      -2.751  13.976  21.149  0.00  0.00    +0.000 N 
ATOM      8  C   UNL     1      -1.583  13.960  20.393  0.00  0.00    +0.000 C 
ATOM      9  O   UNL     1      -1.149  14.981  19.865  0.00  0.00    +0.000 OA
ATOM     10  C   UNL     1      -3.289  12.975  22.054  0.00  0.00    +0.000 C 
ATOM     11  O   UNL     1      -5.309  12.982  23.413  0.00  0.00    +0.000 OA
ATOM     12  C   UNL     1      -6.522  12.374  23.241  0.00  0.00    +0.000 C 
ATOM     13  O   UNL     1      -7.200  11.949  24.160  0.00  0.00    +0.000 OA
ENDROOT
BRANCH   8  14
ATOM     14  C   UNL     1      -0.878  12.671  20.150  0.00  0.00    +0.000 A 
ATOM     15  C   UNL     1       0.301  12.407  20.860  0.00  0.00    +0.000 A 
ATOM     16  C   UNL     1       1.010  11.224  20.658  0.00  0.00    +0.000 A 
ATOM     17  C   UNL     1       0.500  10.231  19.815  0.00  0.00    +0.000 A 
ATOM     18  C   UNL     1      -0.719  10.450  19.160  0.00  0.00    +0.000 A 
ATOM     19  C   UNL     1      -1.401  11.669  19.316  0.00  0.00    +0.000 A 
ATOM     20 CL   UNL     1      -2.871  11.849  18.422  0.00  0.00    +0.000 Cl
BRANCH  17  21
ATOM     21  N   UNL     1       1.225   9.017  19.664  0.00  0.00    +0.000 N 
ATOM     22  C   UNL     1       1.472   8.043  20.608  0.00  0.00    +0.000 A 
ATOM     23  C   UNL     1       2.242   7.079  20.001  0.00  0.00    +0.000 A 
ATOM     24  C   UNL     1       2.404   7.533  18.686  0.00  0.00    +0.000 A 
ATOM     25  N   UNL     1       1.793   8.695  18.470  0.00  0.00    +0.000 NA
ENDBRANCH  17  21
ENDBRANCH   8  14
TORSDOF 2
ENDMDL
