MODEL 1
REMARK VINA RESULT:      -8.5      0.000      0.000
REMARK  Name = 
REMARK  5 active torsions:
REMARK  status: ('A' for Active; 'I' for Inactive)
REMARK    1  A    between atoms: C_1  and  C_2
REMARK    2  A    between atoms: C_2  and  C_3
REMARK    3  A    between atoms: C_9  and  C_10
REMARK    4  A    between atoms: C_12  and  C_13
REMARK    5  A    between atoms: C_21  and  C_22
REMARK                            x       y       z     vdW  Elec       q    Type
REMARK                         _______ _______ _______ _____ _____    ______ ____
ROOT
ATOM      1  C   UNL     1       4.319   5.331  17.308  0.00  0.00    +0.000 A 
ATOM      2  N   UNL     1       3.701   6.561  17.469  0.00  0.00    +0.000 N 
ATOM      3  C   UNL     1       2.812   6.560  18.516  0.00  0.00    +0.000 A 
ATOM      4  C   UNL     1       2.753   5.257  18.961  0.00  0.00    +0.000 A 
ATOM      5  C   UNL     1       3.723   4.480  18.250  0.00  0.00    +0.000 A 
ATOM      6  H   UNL     1       3.910   7.396  16.940  0.00  0.00    +0.000 HD
ENDROOT
BRANCH   3   7
ATOM      7  C   UNL     1       2.141   7.777  18.977  0.00  0.00    +0.000 A 
ATOM      8  C   UNL     1       1.854   8.805  18.109  0.00  0.00    +0.000 A 
ATOM      9  C   UNL     1       1.199   9.877  18.655  0.00  0.00    +0.000 A 
ATOM     10  N   UNL     1       0.844   9.942  19.949  0.00  0.00    +0.000 NA
ATOM     11  C   UNL     1       1.149   8.882  20.708  0.00  0.00    +0.000 A 
ATOM     12  N   UNL     1       0.787   8.954  22.034  0.00  0.00    +0.000 N 
ATOM     13  N   UNL     1       1.809   7.797  20.285  0.00  0.00    +0.000 NA
ATOM     14  H   UNL     1       0.678   9.924  22.300  0.00  0.00    +0.000 HD
ATOM     15  H   UNL     1       1.406   8.384  22.595  0.00  0.00    +0.000 HD
ENDBRANCH   3   7
BRANCH   1  22
ATOM     16  C   UNL     1       6.723   5.377  16.412  0.00  0.00    +0.000 A 
ATOM     17  C   UNL     1       7.597   5.116  15.331  0.00  0.00    +0.000 A 
ATOM     18  C   UNL     1       7.153   4.511  14.158  0.00  0.00    +0.000 A 
ATOM     19  C   UNL     1       5.812   4.201  14.022  0.00  0.00    +0.000 A 
ATOM     20 CL   UNL     1       5.254   3.437  12.584  0.00  0.00    +0.000 Cl
ATOM     21  C   UNL     1       4.917   4.508  15.044  0.00  0.00    +0.000 A 
ATOM     22  C   UNL     1       5.342   5.081  16.261  0.00  0.00    +0.000 A 
BRANCH  16  24
ATOM     23  C   UNL     1       7.609   7.472  17.631  0.00  0.00    +0.000 C 
ATOM     24  C   UNL     1       7.301   5.980  17.680  0.00  0.00    +0.000 C 
ENDBRANCH  16  24
ENDBRANCH   1  22
BRANCH   5  25
ATOM     25  C   UNL     1       4.037   3.077  18.505  0.00  0.00    +0.000 C 
ATOM     26  N   UNL     1       5.097   2.872  19.341  0.00  0.00    +0.000 N 
ATOM     27  O   UNL     1       3.412   2.123  18.056  0.00  0.00    +0.000 OA
ATOM     28  H   UNL     1       5.485   3.623  19.892  0.00  0.00    +0.000 HD
ATOM     29  H   UNL     1       5.229   1.921  19.659  0.00  0.00    +0.000 HD
ENDBRANCH   5  25
TORSDOF 4
ENDMDL
MODEL 2
REMARK VINA RESULT:      -8.4      0.796      1.390
REMARK  Name = 
REMARK  5 active torsions:
REMARK  status: ('A' for Active; 'I' for Inactive)
REMARK    1  A    between atoms: C_1  and  C_2
REMARK    2  A    between atoms: C_2  and  C_3
REMARK    3  A    between atoms: C_9  and  C_10
REMARK    4  A    between atoms: C_12  and  C_13
REMARK    5  A    between atoms: C_21  and  C_22
REMARK                            x       y       z     vdW  Elec       q    Type
REMARK                         _______ _______ _______ _____ _____    ______ ____
ROOT
ATOM      1  C   UNL     1       4.207   5.279  17.775  0.00  0.00    +0.000 A 
ATOM      2  N   UNL     1       3.571   6.499  17.948  0.00  0.00    +0.000 N 
ATOM      3  C   UNL     1       2.682   6.475  18.993  0.00  0.00    +0.000 A 
ATOM      4  C   UNL     1       2.642   5.167  19.426  0.00  0.00    +0.000 A 
ATOM      5  C   UNL     1       3.623   4.411  18.709  0.00  0.00    +0.000 A 
ATOM      6  H   UNL     1       3.768   7.342  17.427  0.00  0.00    +0.000 HD
ENDROOT
BRANCH   3   7
ATOM      7  C   UNL     1       1.994   7.678  19.466  0.00  0.00    +0.000 A 
ATOM      8  C   UNL     1       1.572   7.792  20.770  0.00  0.00    +0.000 A 
ATOM      9  C   UNL     1       0.966   8.976  21.096  0.00  0.00    +0.000 A 
ATOM     10  N   UNL     1       0.790   9.979  20.221  0.00  0.00    +0.000 NA
ATOM     11  C   UNL     1       1.255   9.781  18.981  0.00  0.00    +0.000 A 
ATOM     12  N   UNL     1       1.069  10.809  18.085  0.00  0.00    +0.000 N 
ATOM     13  N   UNL     1       1.836   8.656  18.548  0.00  0.00    +0.000 NA
ATOM     14  H   UNL     1       0.305  11.393  18.399  0.00  0.00    +0.000 HD
ATOM     15  H   UNL     1       1.022  10.446  17.143  0.00  0.00    +0.000 HD
ENDBRANCH   3   7
BRANCH   1  22
ATOM     16  C   UNL     1       6.626   5.268  16.916  0.00  0.00    +0.000 A 
ATOM     17  C   UNL     1       7.504   5.041  15.831  0.00  0.00    +0.000 A 
ATOM     18  C   UNL     1       7.050   4.546  14.611  0.00  0.00    +0.000 A 
ATOM     19  C   UNL     1       5.697   4.315  14.435  0.00  0.00    +0.000 A 
ATOM     20 CL   UNL     1       5.126   3.687  12.938  0.00  0.00    +0.000 Cl
ATOM     21  C   UNL     1       4.801   4.593  15.465  0.00  0.00    +0.000 A 
ATOM     22  C   UNL     1       5.234   5.054  16.726  0.00  0.00    +0.000 A 
BRANCH  16  24
ATOM     23  C   UNL     1       7.901   7.106  18.202  0.00  0.00    +0.000 C 
ATOM     24  C   UNL     1       7.212   5.747  18.233  0.00  0.00    +0.000 C 
ENDBRANCH  16  24
ENDBRANCH   1  22
BRANCH   5  25
ATOM     25  C   UNL     1       3.957   3.010  18.951  0.00  0.00    +0.000 C 
ATOM     26  N   UNL     1       5.149   2.809  19.585  0.00  0.00    +0.000 N 
ATOM     27  O   UNL     1       3.245   2.057  18.657  0.00  0.00    +0.000 OA
ATOM     28  H   UNL     1       5.643   3.568  20.029  0.00  0.00    +0.000 HD
ATOM     29  H   UNL     1       5.324   1.866  19.906  0.00  0.00    +0.000 HD
ENDBRANCH   5  25
TORSDOF 4
ENDMDL
MODEL 3
REMARK VINA RESULT:      -8.2      3.700      7.111
REMARK  Name = 
REMARK  5 active torsions:
REMARK  status: ('A' for Active; 'I' for Inactive)
REMARK    1  A    between atoms: C_1  and  C_2
REMARK    2  A    between atoms: C_2  and  C_3
REMARK    3  A    between atoms: C_9  and  C_10
REMARK    4  A    between atoms: C_12  and  C_13
REMARK    5  A    between atoms: C_21  and  C_22
REMARK                            x       y       z     vdW  Elec       q    Type
REMARK                         _______ _______ _______ _____ _____    ______ ____
ROOT
ATOM      1  C   UNL     1       5.457   5.289  17.612  0.00  0.00    +0.000 A 
ATOM      2  N   UNL     1       5.355   5.064  16.248  0.00  0.00    +0.000 N 
ATOM      3  C   UNL     1       6.579   5.092  15.628  0.00  0.00    +0.000 A 
ATOM      4  C   UNL     1       7.484   5.478  16.593  0.00  0.00    +0.000 A 
ATOM      5  C   UNL     1       6.811   5.561  17.853  0.00  0.00    +0.000 A 
ATOM      6  H   UNL     1       4.505   4.835  15.753  0.00  0.00    +0.000 HD
ENDROOT
BRANCH   3   7
ATOM      7  C   UNL     1       6.752   4.742  14.216  0.00  0.00    +0.000 A 
ATOM      8  C   UNL     1       7.639   5.424  13.416  0.00  0.00    +0.000 A 
ATOM      9  C   UNL     1       7.730   4.983  12.123  0.00  0.00    +0.000 A 
ATOM     10  N   UNL     1       7.016   3.951  11.644  0.00  0.00    +0.000 NA
ATOM     11  C   UNL     1       6.196   3.338  12.507  0.00  0.00    +0.000 A 
ATOM     12  N   UNL     1       5.463   2.284  12.011  0.00  0.00    +0.000 N 
ATOM     13  N   UNL     1       6.009   3.702  13.781  0.00  0.00    +0.000 NA
ATOM     14  H   UNL     1       5.390   2.368  11.006  0.00  0.00    +0.000 HD
ATOM     15  H   UNL     1       4.604   2.181  12.535  0.00  0.00    +0.000 HD
ENDBRANCH   3   7
BRANCH   1  22
ATOM     16  C   UNL     1       3.321   6.332  18.583  0.00  0.00    +0.000 A 
ATOM     17  C   UNL     1       2.251   6.220  19.500  0.00  0.00    +0.000 A 
ATOM     18  C   UNL     1       2.070   5.081  20.280  0.00  0.00    +0.000 A 
ATOM     19  C   UNL     1       2.987   4.049  20.195  0.00  0.00    +0.000 A 
ATOM     20 CL   UNL     1       2.764   2.628  21.141  0.00  0.00    +0.000 Cl
ATOM     21  C   UNL     1       4.087   4.160  19.348  0.00  0.00    +0.000 A 
ATOM     22  C   UNL     1       4.276   5.282  18.514  0.00  0.00    +0.000 A 
BRANCH  16  24
ATOM     23  C   UNL     1       2.194   8.500  17.755  0.00  0.00    +0.000 C 
ATOM     24  C   UNL     1       3.410   7.581  17.723  0.00  0.00    +0.000 C 
ENDBRANCH  16  24
ENDBRANCH   1  22
BRANCH   5  25
ATOM     25  C   UNL     1       7.447   5.841  19.137  0.00  0.00    +0.000 C 
ATOM     26  N   UNL     1       8.327   6.885  19.122  0.00  0.00    +0.000 N 
ATOM     27  O   UNL     1       7.220   5.240  20.181  0.00  0.00    +0.000 OA
ATOM     28  H   UNL     1       8.368   7.527  18.345  0.00  0.00    +0.000 HD
ATOM     29  H   UNL     1       8.654   7.199  20.026  0.00  0.00    +0.000 HD
ENDBRANCH   5  25
TORSDOF 4
ENDMDL
MODEL 4
REMARK VINA RESULT:      -7.9      3.798      7.198
REMARK  Name = 
REMARK  5 active torsions:
REMARK  status: ('A' for Active; 'I' for Inactive)
REMARK    1  A    between atoms: C_1  and  C_2
REMARK    2  A    between atoms: C_2  and  C_3
REMARK    3  A    between atoms: C_9  and  C_10
REMARK    4  A    between atoms: C_12  and  C_13
REMARK    5  A    between atoms: C_21  and  C_22
REMARK                            x       y       z     vdW  Elec       q    Type
REMARK                         _______ _______ _______ _____ _____    ______ ____
ROOT
ATOM      1  C   UNL     1       5.402   5.270  17.595  0.00  0.00    +0.000 A 
ATOM      2  N   UNL     1       5.312   5.064  16.227  0.00  0.00    +0.000 N 
ATOM      3  C   UNL     1       6.545   5.064  15.623  0.00  0.00    +0.000 A 
ATOM      4  C   UNL     1       7.448   5.413  16.604  0.00  0.00    +0.000 A 
ATOM      5  C   UNL     1       6.760   5.500  17.856  0.00  0.00    +0.000 A 
ATOM      6  H   UNL     1       4.463   4.866  15.718  0.00  0.00    +0.000 HD
ENDROOT
BRANCH   3   7
ATOM      7  C   UNL     1       6.727   4.725  14.210  0.00  0.00    +0.000 A 
ATOM      8  C   UNL     1       7.618   5.414  13.420  0.00  0.00    +0.000 A 
ATOM      9  C   UNL     1       7.718   4.983  12.124  0.00  0.00    +0.000 A 
ATOM     10  N   UNL     1       7.007   3.955  11.633  0.00  0.00    +0.000 NA
ATOM     11  C   UNL     1       6.182   3.335  12.485  0.00  0.00    +0.000 A 
ATOM     12  N   UNL     1       5.453   2.284  11.977  0.00  0.00    +0.000 N 
ATOM     13  N   UNL     1       5.988   3.688  13.761  0.00  0.00    +0.000 NA
ATOM     14  H   UNL     1       5.387   2.377  10.972  0.00  0.00    +0.000 HD
ATOM     15  H   UNL     1       4.591   2.177  12.494  0.00  0.00    +0.000 HD
ENDBRANCH   3   7
BRANCH   1  22
ATOM     16  C   UNL     1       3.707   4.147  19.161  0.00  0.00    +0.000 A 
ATOM     17  C   UNL     1       2.547   4.286  19.958  0.00  0.00    +0.000 A 
ATOM     18  C   UNL     1       1.932   5.520  20.150  0.00  0.00    +0.000 A 
ATOM     19  C   UNL     1       2.437   6.636  19.506  0.00  0.00    +0.000 A 
ATOM     20 CL   UNL     1       1.696   8.170  19.748  0.00  0.00    +0.000 Cl
ATOM     21  C   UNL     1       3.538   6.516  18.661  0.00  0.00    +0.000 A 
ATOM     22  C   UNL     1       4.209   5.288  18.480  0.00  0.00    +0.000 A 
BRANCH  16  24
ATOM     23  C   UNL     1       3.467   1.660  18.518  0.00  0.00    +0.000 C 
ATOM     24  C   UNL     1       4.353   2.776  19.057  0.00  0.00    +0.000 C 
ENDBRANCH  16  24
ENDBRANCH   1  22
BRANCH   5  25
ATOM     25  C   UNL     1       7.387   5.748  19.152  0.00  0.00    +0.000 C 
ATOM     26  N   UNL     1       8.306   6.757  19.158  0.00  0.00    +0.000 N 
ATOM     27  O   UNL     1       7.121   5.149  20.188  0.00  0.00    +0.000 OA
ATOM     28  H   UNL     1       8.384   7.402  18.387  0.00  0.00    +0.000 HD
ATOM     29  H   UNL     1       8.630   7.052  20.069  0.00  0.00    +0.000 HD
ENDBRANCH   5  25
TORSDOF 4
ENDMDL
MODEL 5
REMARK VINA RESULT:      -7.8      2.554      3.634
REMARK  Name = 
REMARK  5 active torsions:
REMARK  status: ('A' for Active; 'I' for Inactive)
REMARK    1  A    between atoms: C_1  and  C_2
REMARK    2  A    between atoms: C_2  and  C_3
REMARK    3  A    between atoms: C_9  and  C_10
REMARK    4  A    between atoms: C_12  and  C_13
REMARK    5  A    between atoms: C_21  and  C_22
REMARK                            x       y       z     vdW  Elec       q    Type
REMARK                         _______ _______ _______ _____ _____    ______ ____
ROOT
ATOM      1  C   UNL     1       3.095   5.631  19.687  0.00  0.00    +0.000 A 
ATOM      2  N   UNL     1       2.646   6.943  19.668  0.00  0.00    +0.000 N 
ATOM      3  C   UNL     1       1.581   7.136  20.513  0.00  0.00    +0.000 A 
ATOM      4  C   UNL     1       1.245   5.888  20.991  0.00  0.00    +0.000 A 
ATOM      5  C   UNL     1       2.208   4.938  20.524  0.00  0.00    +0.000 A 
ATOM      6  H   UNL     1       3.075   7.702  19.158  0.00  0.00    +0.000 HD
ENDROOT
BRANCH   3   7
ATOM      7  C   UNL     1       1.021   8.463  20.778  0.00  0.00    +0.000 A 
ATOM      8  C   UNL     1       1.118   9.475  19.851  0.00  0.00    +0.000 A 
ATOM      9  C   UNL     1       0.530  10.661  20.205  0.00  0.00    +0.000 A 
ATOM     10  N   UNL     1      -0.110  10.847  21.371  0.00  0.00    +0.000 NA
ATOM     11  C   UNL     1      -0.168   9.795  22.197  0.00  0.00    +0.000 A 
ATOM     12  N   UNL     1      -0.821   9.990  23.392  0.00  0.00    +0.000 N 
ATOM     13  N   UNL     1       0.393   8.602  21.964  0.00  0.00    +0.000 NA
ATOM     14  H   UNL     1      -0.836  10.978  23.609  0.00  0.00    +0.000 HD
ATOM     15  H   UNL     1      -0.454   9.364  24.096  0.00  0.00    +0.000 HD
ENDBRANCH   3   7
BRANCH   1  22
ATOM     16  C   UNL     1       4.142   4.359  17.719  0.00  0.00    +0.000 A 
ATOM     17  C   UNL     1       5.323   3.965  17.048  0.00  0.00    +0.000 A 
ATOM     18  C   UNL     1       6.579   4.411  17.451  0.00  0.00    +0.000 A 
ATOM     19  C   UNL     1       6.684   5.222  18.567  0.00  0.00    +0.000 A 
ATOM     20 CL   UNL     1       8.230   5.795  19.064  0.00  0.00    +0.000 Cl
ATOM     21  C   UNL     1       5.544   5.571  19.286  0.00  0.00    +0.000 A 
ATOM     22  C   UNL     1       4.253   5.171  18.879  0.00  0.00    +0.000 A 
BRANCH  16  24
ATOM     23  C   UNL     1       2.421   2.447  17.524  0.00  0.00    +0.000 C 
ATOM     24  C   UNL     1       2.808   3.879  17.175  0.00  0.00    +0.000 C 
ENDBRANCH  16  24
ENDBRANCH   1  22
BRANCH   5  25
ATOM     25  C   UNL     1       2.256   3.526  20.895  0.00  0.00    +0.000 C 
ATOM     26  N   UNL     1       1.038   2.959  21.137  0.00  0.00    +0.000 N 
ATOM     27  O   UNL     1       3.276   2.852  20.967  0.00  0.00    +0.000 OA
ATOM     28  H   UNL     1       0.181   3.422  20.876  0.00  0.00    +0.000 HD
ATOM     29  H   UNL     1       1.033   1.952  21.235  0.00  0.00    +0.000 HD
ENDBRANCH   5  25
TORSDOF 4
ENDMDL
MODEL 6
REMARK VINA RESULT:      -7.7      1.399      1.807
REMARK  Name = 
REMARK  5 active torsions:
REMARK  status: ('A' for Active; 'I' for Inactive)
REMARK    1  A    between atoms: C_1  and  C_2
REMARK    2  A    between atoms: C_2  and  C_3
REMARK    3  A    between atoms: C_9  and  C_10
REMARK    4  A    between atoms: C_12  and  C_13
REMARK    5  A    between atoms: C_21  and  C_22
REMARK                            x       y       z     vdW  Elec       q    Type
REMARK                         _______ _______ _______ _____ _____    ______ ____
ROOT
ATOM      1  C   UNL     1       4.292   5.926  17.516  0.00  0.00    +0.000 A 
ATOM      2  N   UNL     1       3.662   7.158  17.431  0.00  0.00    +0.000 N 
ATOM      3  C   UNL     1       2.794   7.367  18.474  0.00  0.00    +0.000 A 
ATOM      4  C   UNL     1       2.761   6.185  19.182  0.00  0.00    +0.000 A 
ATOM      5  C   UNL     1       3.726   5.285  18.627  0.00  0.00    +0.000 A 
ATOM      6  H   UNL     1       3.849   7.867  16.736  0.00  0.00    +0.000 HD
ENDROOT
BRANCH   3   7
ATOM      7  C   UNL     1       2.117   8.648  18.687  0.00  0.00    +0.000 A 
ATOM      8  C   UNL     1       1.097   8.771  19.603  0.00  0.00    +0.000 A 
ATOM      9  C   UNL     1       0.564  10.026  19.730  0.00  0.00    +0.000 A 
ATOM     10  N   UNL     1       0.995  11.085  19.025  0.00  0.00    +0.000 NA
ATOM     11  C   UNL     1       2.006  10.868  18.175  0.00  0.00    +0.000 A 
ATOM     12  N   UNL     1       2.441  11.954  17.451  0.00  0.00    +0.000 N 
ATOM     13  N   UNL     1       2.581   9.680  17.952  0.00  0.00    +0.000 NA
ATOM     14  H   UNL     1       1.705  12.646  17.409  0.00  0.00    +0.000 HD
ATOM     15  H   UNL     1       2.846  11.649  16.575  0.00  0.00    +0.000 HD
ENDBRANCH   3   7
BRANCH   1  22
ATOM     16  C   UNL     1       6.702   5.587  16.700  0.00  0.00    +0.000 A 
ATOM     17  C   UNL     1       7.559   5.140  15.668  0.00  0.00    +0.000 A 
ATOM     18  C   UNL     1       7.066   4.528  14.519  0.00  0.00    +0.000 A 
ATOM     19  C   UNL     1       5.698   4.395  14.356  0.00  0.00    +0.000 A 
ATOM     20 CL   UNL     1       5.077   3.623  12.948  0.00  0.00    +0.000 Cl
ATOM     21  C   UNL     1       4.828   4.886  15.326  0.00  0.00    +0.000 A 
ATOM     22  C   UNL     1       5.298   5.473  16.521  0.00  0.00    +0.000 A 
BRANCH  16  24
ATOM     23  C   UNL     1       7.818   7.623  17.826  0.00  0.00    +0.000 C 
ATOM     24  C   UNL     1       7.325   6.186  17.949  0.00  0.00    +0.000 C 
ENDBRANCH  16  24
ENDBRANCH   1  22
BRANCH   5  25
ATOM     25  C   UNL     1       4.063   3.968  19.161  0.00  0.00    +0.000 C 
ATOM     26  N   UNL     1       3.006   3.111  19.273  0.00  0.00    +0.000 N 
ATOM     27  O   UNL     1       5.191   3.602  19.468  0.00  0.00    +0.000 OA
ATOM     28  H   UNL     1       2.122   3.305  18.830  0.00  0.00    +0.000 HD
ATOM     29  H   UNL     1       3.240   2.150  19.484  0.00  0.00    +0.000 HD
ENDBRANCH   5  25
TORSDOF 4
ENDMDL
MODEL 7
REMARK VINA RESULT:      -7.7      3.667      7.119
REMARK  Name = 
REMARK  5 active torsions:
REMARK  status: ('A' for Active; 'I' for Inactive)
REMARK    1  A    between atoms: C_1  and  C_2
REMARK    2  A    between atoms: C_2  and  C_3
REMARK    3  A    between atoms: C_9  and  C_10
REMARK    4  A    between atoms: C_12  and  C_13
REMARK    5  A    between atoms: C_21  and  C_22
REMARK                            x       y       z     vdW  Elec       q    Type
REMARK                         _______ _______ _______ _____ _____    ______ ____
ROOT
ATOM      1  C   UNL     1       5.363   5.222  17.811  0.00  0.00    +0.000 A 
ATOM      2  N   UNL     1       5.259   5.025  16.442  0.00  0.00    +0.000 N 
ATOM      3  C   UNL     1       6.487   5.021  15.827  0.00  0.00    +0.000 A 
ATOM      4  C   UNL     1       7.400   5.358  16.803  0.00  0.00    +0.000 A 
ATOM      5  C   UNL     1       6.725   5.442  18.061  0.00  0.00    +0.000 A 
ATOM      6  H   UNL     1       4.404   4.835  15.940  0.00  0.00    +0.000 HD
ENDROOT
BRANCH   3   7
ATOM      7  C   UNL     1       6.653   4.690  14.410  0.00  0.00    +0.000 A 
ATOM      8  C   UNL     1       6.034   3.593  13.858  0.00  0.00    +0.000 A 
ATOM      9  C   UNL     1       6.245   3.407  12.517  0.00  0.00    +0.000 A 
ATOM     10  N   UNL     1       6.997   4.229  11.768  0.00  0.00    +0.000 NA
ATOM     11  C   UNL     1       7.540   5.281  12.393  0.00  0.00    +0.000 A 
ATOM     12  N   UNL     1       8.313   6.120  11.623  0.00  0.00    +0.000 N 
ATOM     13  N   UNL     1       7.422   5.543  13.700  0.00  0.00    +0.000 NA
ATOM     14  H   UNL     1       8.639   5.620  10.807  0.00  0.00    +0.000 HD
ATOM     15  H   UNL     1       9.007   6.579  12.198  0.00  0.00    +0.000 HD
ENDBRANCH   3   7
BRANCH   1  22
ATOM     16  C   UNL     1       3.241   6.307  18.765  0.00  0.00    +0.000 A 
ATOM     17  C   UNL     1       2.166   6.218  19.678  0.00  0.00    +0.000 A 
ATOM     18  C   UNL     1       1.962   5.088  20.465  0.00  0.00    +0.000 A 
ATOM     19  C   UNL     1       2.862   4.040  20.391  0.00  0.00    +0.000 A 
ATOM     20 CL   UNL     1       2.612   2.629  21.345  0.00  0.00    +0.000 Cl
ATOM     21  C   UNL     1       3.968   4.128  19.548  0.00  0.00    +0.000 A 
ATOM     22  C   UNL     1       4.178   5.241  18.707  0.00  0.00    +0.000 A 
BRANCH  16  24
ATOM     23  C   UNL     1       2.108   8.424  17.820  0.00  0.00    +0.000 C 
ATOM     24  C   UNL     1       3.353   7.548  17.897  0.00  0.00    +0.000 C 
ENDBRANCH  16  24
ENDBRANCH   1  22
BRANCH   5  25
ATOM     25  C   UNL     1       7.364   5.677  19.353  0.00  0.00    +0.000 C 
ATOM     26  N   UNL     1       8.301   6.670  19.353  0.00  0.00    +0.000 N 
ATOM     27  O   UNL     1       7.095   5.082  20.390  0.00  0.00    +0.000 OA
ATOM     28  H   UNL     1       8.384   7.315  18.582  0.00  0.00    +0.000 HD
ATOM     29  H   UNL     1       8.637   6.958  20.263  0.00  0.00    +0.000 HD
ENDBRANCH   5  25
TORSDOF 4
ENDMDL
MODEL 8
REMARK VINA RESULT:      -7.7      2.622      3.832
REMARK  Name = 
REMARK  5 active torsions:
REMARK  status: ('A' for Active; 'I' for Inactive)
REMARK    1  A    between atoms: C_1  and  C_2
REMARK    2  A    between atoms: C_2  and  C_3
REMARK    3  A    between atoms: C_9  and  C_10
REMARK    4  A    between atoms: C_12  and  C_13
REMARK    5  A    between atoms: C_21  and  C_22
REMARK                            x       y       z     vdW  Elec       q    Type
REMARK                         _______ _______ _______ _____ _____    ______ ____
ROOT
ATOM      1  C   UNL     1       3.057   5.683  19.703  0.00  0.00    +0.000 A 
ATOM      2  N   UNL     1       2.650   7.008  19.698  0.00  0.00    +0.000 N 
ATOM      3  C   UNL     1       1.588   7.225  20.539  0.00  0.00    +0.000 A 
ATOM      4  C   UNL     1       1.210   5.982  21.001  0.00  0.00    +0.000 A 
ATOM      5  C   UNL     1       2.145   5.008  20.528  0.00  0.00    +0.000 A 
ATOM      6  H   UNL     1       3.105   7.759  19.199  0.00  0.00    +0.000 HD
ENDROOT
BRANCH   3   7
ATOM      7  C   UNL     1       1.068   8.565  20.817  0.00  0.00    +0.000 A 
ATOM      8  C   UNL     1       0.632   8.914  22.075  0.00  0.00    +0.000 A 
ATOM      9  C   UNL     1       0.196  10.205  22.214  0.00  0.00    +0.000 A 
ATOM     10  N   UNL     1       0.190  11.094  21.207  0.00  0.00    +0.000 NA
ATOM     11  C   UNL     1       0.654  10.664  20.027  0.00  0.00    +0.000 A 
ATOM     12  N   UNL     1       0.642  11.576  18.996  0.00  0.00    +0.000 N 
ATOM     13  N   UNL     1       1.078   9.421  19.773  0.00  0.00    +0.000 NA
ATOM     14  H   UNL     1      -0.037  12.298  19.194  0.00  0.00    +0.000 HD
ATOM     15  H   UNL     1       0.569  11.098  18.108  0.00  0.00    +0.000 HD
ENDBRANCH   3   7
BRANCH   1  22
ATOM     16  C   UNL     1       4.079   4.351  17.761  0.00  0.00    +0.000 A 
ATOM     17  C   UNL     1       5.251   3.935  17.088  0.00  0.00    +0.000 A 
ATOM     18  C   UNL     1       6.513   4.388  17.464  0.00  0.00    +0.000 A 
ATOM     19  C   UNL     1       6.633   5.230  18.555  0.00  0.00    +0.000 A 
ATOM     20 CL   UNL     1       8.185   5.811  19.018  0.00  0.00    +0.000 Cl
ATOM     21  C   UNL     1       5.502   5.603  19.277  0.00  0.00    +0.000 A 
ATOM     22  C   UNL     1       4.206   5.196  18.896  0.00  0.00    +0.000 A 
BRANCH  16  24
ATOM     23  C   UNL     1       2.400   2.405  17.543  0.00  0.00    +0.000 C 
ATOM     24  C   UNL     1       2.736   3.861  17.246  0.00  0.00    +0.000 C 
ENDBRANCH  16  24
ENDBRANCH   1  22
BRANCH   5  25
ATOM     25  C   UNL     1       2.147   3.591  20.883  0.00  0.00    +0.000 C 
ATOM     26  N   UNL     1       0.908   3.020  20.956  0.00  0.00    +0.000 N 
ATOM     27  O   UNL     1       3.150   2.916  21.077  0.00  0.00    +0.000 OA
ATOM     28  H   UNL     1       0.092   3.487  20.591  0.00  0.00    +0.000 HD
ATOM     29  H   UNL     1       0.893   2.013  21.038  0.00  0.00    +0.000 HD
ENDBRANCH   5  25
TORSDOF 4
ENDMDL
MODEL 9
REMARK VINA RESULT:      -7.7      1.078      1.173
REMARK  Name = 
REMARK  5 active torsions:
REMARK  status: ('A' for Active; 'I' for Inactive)
REMARK    1  A    between atoms: C_1  and  C_2
REMARK    2  A    between atoms: C_2  and  C_3
REMARK    3  A    between atoms: C_9  and  C_10
REMARK    4  A    between atoms: C_12  and  C_13
REMARK    5  A    between atoms: C_21  and  C_22
REMARK                            x       y       z     vdW  Elec       q    Type
REMARK                         _______ _______ _______ _____ _____    ______ ____
ROOT
ATOM      1  C   UNL     1       3.847   5.397  18.112  0.00  0.00    +0.000 A 
ATOM      2  N   UNL     1       3.415   6.699  18.310  0.00  0.00    +0.000 N 
ATOM      3  C   UNL     1       2.322   6.761  19.137  0.00  0.00    +0.000 A 
ATOM      4  C   UNL     1       1.954   5.454  19.375  0.00  0.00    +0.000 A 
ATOM      5  C   UNL     1       2.922   4.584  18.782  0.00  0.00    +0.000 A 
ATOM      6  H   UNL     1       3.872   7.529  17.957  0.00  0.00    +0.000 HD
ENDROOT
BRANCH   3   7
ATOM      7  C   UNL     1       1.768   8.030  19.613  0.00  0.00    +0.000 A 
ATOM      8  C   UNL     1       1.543   9.078  18.750  0.00  0.00    +0.000 A 
ATOM      9  C   UNL     1       0.996  10.201  19.311  0.00  0.00    +0.000 A 
ATOM     10  N   UNL     1       0.684  10.297  20.614  0.00  0.00    +0.000 NA
ATOM     11  C   UNL     1       0.921   9.216  21.368  0.00  0.00    +0.000 A 
ATOM     12  N   UNL     1       0.604   9.319  22.703  0.00  0.00    +0.000 N 
ATOM     13  N   UNL     1       1.476   8.080  20.930  0.00  0.00    +0.000 NA
ATOM     14  H   UNL     1       0.583  10.295  22.968  0.00  0.00    +0.000 HD
ATOM     15  H   UNL     1       1.188   8.700  23.249  0.00  0.00    +0.000 HD
ENDBRANCH   3   7
BRANCH   1  22
ATOM     16  C   UNL     1       6.369   5.079  17.751  0.00  0.00    +0.000 A 
ATOM     17  C   UNL     1       7.413   4.767  16.851  0.00  0.00    +0.000 A 
ATOM     18  C   UNL     1       7.159   4.378  15.538  0.00  0.00    +0.000 A 
ATOM     19  C   UNL     1       5.853   4.342  15.083  0.00  0.00    +0.000 A 
ATOM     20 CL   UNL     1       5.524   3.846  13.468  0.00  0.00    +0.000 Cl
ATOM     21  C   UNL     1       4.808   4.708  15.929  0.00  0.00    +0.000 A 
ATOM     22  C   UNL     1       5.030   5.065  17.276  0.00  0.00    +0.000 A 
BRANCH  16  24
ATOM     23  C   UNL     1       8.196   5.755  19.442  0.00  0.00    +0.000 C 
ATOM     24  C   UNL     1       6.729   5.430  19.184  0.00  0.00    +0.000 C 
ENDBRANCH  16  24
ENDBRANCH   1  22
BRANCH   5  25
ATOM     25  C   UNL     1       2.939   3.128  18.899  0.00  0.00    +0.000 C 
ATOM     26  N   UNL     1       3.924   2.632  19.704  0.00  0.00    +0.000 N 
ATOM     27  O   UNL     1       2.137   2.370  18.366  0.00  0.00    +0.000 OA
ATOM     28  H   UNL     1       4.451   3.232  20.320  0.00  0.00    +0.000 HD
ATOM     29  H   UNL     1       3.856   1.649  19.928  0.00  0.00    +0.000 HD
ENDBRANCH   5  25
TORSDOF 4
ENDMDL
