MODEL 1
REMARK VINA RESULT:      -8.8      0.000      0.000
REMARK  Name = 
REMARK  11 active torsions:
REMARK  status: ('A' for Active; 'I' for Inactive)
REMARK    1  A    between atoms: C_1  and  C_2
REMARK    2  A    between atoms: C_4  and  C_5
REMARK    3  A    between atoms: C_5  and  C_7
REMARK    4  A    between atoms: C_7  and  O_8
REMARK    5  A    between atoms: O_8  and  C_9
REMARK    6  A    between atoms: C_9  and  C_11
REMARK    7  A    between atoms: C_11  and  C_12
REMARK    8  A    between atoms: C_15  and  O_16
REMARK    9  A    between atoms: C_23  and  C_24
REMARK   10  A    between atoms: N_25  and  C_26
REMARK   11  A    between atoms: C_30  and  C_31
REMARK                            x       y       z     vdW  Elec       q    Type
REMARK                         _______ _______ _______ _____ _____    ______ ____
ROOT
ATOM      1  C   UNL     1       0.929   9.306  20.351  0.00  0.00    +0.000 C 
ATOM      2  O   UNL     1       0.363   9.911  19.439  0.00  0.00    +0.000 OA
ENDROOT
BRANCH   1   6
ATOM      3  C   UNL     1       2.304   4.447  21.086  0.00  0.00    +0.000 C 
ATOM      4  C   UNL     1       2.111   5.786  20.453  0.00  0.00    +0.000 A 
ATOM      5  C   UNL     1       1.374   6.831  20.977  0.00  0.00    +0.000 A 
ATOM      6  C   UNL     1       1.536   7.972  20.152  0.00  0.00    +0.000 A 
ATOM      7  C   UNL     1       2.362   7.574  19.098  0.00  0.00    +0.000 A 
ATOM      8  C   UNL     1       2.742   8.364  17.882  0.00  0.00    +0.000 C 
ATOM      9  N   UNL     1       2.738   6.233  19.290  0.00  0.00    +0.000 N 
BRANCH   9  10
ATOM     10  C   UNL     1       3.603   5.460  18.439  0.00  0.00    +0.000 A 
ATOM     11  C   UNL     1       3.072   4.497  17.570  0.00  0.00    +0.000 A 
ATOM     12  C   UNL     1       3.911   3.710  16.777  0.00  0.00    +0.000 A 
ATOM     13  C   UNL     1       5.290   3.897  16.811  0.00  0.00    +0.000 A 
ATOM     14  C   UNL     1       5.846   4.873  17.648  0.00  0.00    +0.000 A 
ATOM     15  C   UNL     1       4.993   5.641  18.467  0.00  0.00    +0.000 A 
BRANCH  14  16
ATOM     16  C   UNL     1       7.338   5.109  17.680  0.00  0.00    +0.000 C 
ATOM     17  F   UNL     1       8.063   4.132  17.070  0.00  0.00    +0.000 F 
ATOM     18  F   UNL     1       7.687   6.273  17.062  0.00  0.00    +0.000 F 
ATOM     19  F   UNL     1       7.826   5.200  18.948  0.00  0.00    +0.000 F 
ENDBRANCH  14  16
ENDBRANCH   9  10
ENDBRANCH   1   6
BRANCH   1  20
ATOM     20  C   UNL     1       0.998   9.918  21.757  0.00  0.00    +0.000 C 
BRANCH  20  21
ATOM     21  O   UNL     1       0.475  11.248  21.824  0.00  0.00    +0.000 OA
BRANCH  21  22
ATOM     22  C   UNL     1      -0.743  11.360  22.423  0.00  0.00    +0.000 C 
ATOM     23  O   UNL     1      -1.087  10.754  23.431  0.00  0.00    +0.000 OA
BRANCH  22  24
ATOM     24  C   UNL     1      -1.631  12.304  21.661  0.00  0.00    +0.000 C 
BRANCH  24  25
ATOM     25  C   UNL     1      -2.731  12.856  22.521  0.00  0.00    +0.000 A 
ATOM     26  N   UNL     1      -3.951  12.297  22.297  0.00  0.00    +0.000 NA
ATOM     27  N   UNL     1      -5.038  12.730  22.980  0.00  0.00    +0.000 NA
ATOM     28  C   UNL     1      -4.892  13.733  23.864  0.00  0.00    +0.000 A 
ATOM     29  C   UNL     1      -3.679  14.353  24.150  0.00  0.00    +0.000 A 
ATOM     30  C   UNL     1      -3.567  15.413  25.074  0.00  0.00    +0.000 A 
ATOM     31  C   UNL     1      -2.331  16.001  25.346  0.00  0.00    +0.000 A 
ATOM     32  C   UNL     1      -1.192  15.518  24.709  0.00  0.00    +0.000 A 
ATOM     33  C   UNL     1      -1.292  14.475  23.787  0.00  0.00    +0.000 A 
ATOM     34  C   UNL     1      -2.539  13.882  23.472  0.00  0.00    +0.000 A 
BRANCH  28  35
ATOM     35  O   UNL     1      -6.049  14.098  24.486  0.00  0.00    +0.000 OA
ATOM     36  H   UNL     1      -6.650  13.394  24.184  0.00  0.00    +0.000 HD
ENDBRANCH  28  35
ENDBRANCH  24  25
ENDBRANCH  22  24
ENDBRANCH  21  22
ENDBRANCH  20  21
ENDBRANCH   1  20
TORSDOF 9
ENDMDL
MODEL 2
REMARK VINA RESULT:      -8.8      5.446     10.896
REMARK  Name = 
REMARK  11 active torsions:
REMARK  status: ('A' for Active; 'I' for Inactive)
REMARK    1  A    between atoms: C_1  and  C_2
REMARK    2  A    between atoms: C_4  and  C_5
REMARK    3  A    between atoms: C_5  and  C_7
REMARK    4  A    between atoms: C_7  and  O_8
REMARK    5  A    between atoms: O_8  and  C_9
REMARK    6  A    between atoms: C_9  and  C_11
REMARK    7  A    between atoms: C_11  and  C_12
REMARK    8  A    between atoms: C_15  and  O_16
REMARK    9  A    between atoms: C_23  and  C_24
REMARK   10  A    between atoms: N_25  and  C_26
REMARK   11  A    between atoms: C_30  and  C_31
REMARK                            x       y       z     vdW  Elec       q    Type
REMARK                         _______ _______ _______ _____ _____    ______ ____
ROOT
ATOM      1  C   UNL     1       2.428   6.499  19.662  0.00  0.00    +0.000 C 
ATOM      2  O   UNL     1       3.598   6.463  19.274  0.00  0.00    +0.000 OA
ENDROOT
BRANCH   1   6
ATOM      3  C   UNL     1      -0.081  10.048  22.336  0.00  0.00    +0.000 C 
ATOM      4  C   UNL     1       0.686   9.371  21.248  0.00  0.00    +0.000 A 
ATOM      5  C   UNL     1       1.227   8.101  21.307  0.00  0.00    +0.000 A 
ATOM      6  C   UNL     1       1.763   7.765  20.039  0.00  0.00    +0.000 A 
ATOM      7  C   UNL     1       1.562   8.883  19.225  0.00  0.00    +0.000 A 
ATOM      8  C   UNL     1       2.056   9.099  17.826  0.00  0.00    +0.000 C 
ATOM      9  N   UNL     1       0.878   9.868  19.958  0.00  0.00    +0.000 N 
BRANCH   9  10
ATOM     10  C   UNL     1       0.461  11.156  19.473  0.00  0.00    +0.000 A 
ATOM     11  C   UNL     1      -0.776  11.310  18.833  0.00  0.00    +0.000 A 
ATOM     12  C   UNL     1      -1.166  12.549  18.317  0.00  0.00    +0.000 A 
ATOM     13  C   UNL     1      -0.342  13.662  18.465  0.00  0.00    +0.000 A 
ATOM     14  C   UNL     1       0.886  13.544  19.127  0.00  0.00    +0.000 A 
ATOM     15  C   UNL     1       1.283  12.283  19.617  0.00  0.00    +0.000 A 
BRANCH  14  16
ATOM     16  C   UNL     1       1.782  14.745  19.320  0.00  0.00    +0.000 C 
ATOM     17  F   UNL     1       1.388  15.568  20.331  0.00  0.00    +0.000 F 
ATOM     18  F   UNL     1       3.065  14.388  19.609  0.00  0.00    +0.000 F 
ATOM     19  F   UNL     1       1.855  15.528  18.209  0.00  0.00    +0.000 F 
ENDBRANCH  14  16
ENDBRANCH   9  10
ENDBRANCH   1   6
BRANCH   1  20
ATOM     20  C   UNL     1       1.619   5.202  19.795  0.00  0.00    +0.000 C 
BRANCH  20  21
ATOM     21  O   UNL     1       2.428   4.022  19.770  0.00  0.00    +0.000 OA
BRANCH  21  22
ATOM     22  C   UNL     1       2.464   3.371  18.574  0.00  0.00    +0.000 C 
ATOM     23  O   UNL     1       1.552   3.356  17.756  0.00  0.00    +0.000 OA
BRANCH  22  24
ATOM     24  C   UNL     1       3.764   2.636  18.402  0.00  0.00    +0.000 C 
BRANCH  24  25
ATOM     25  C   UNL     1       4.935   3.575  18.337  0.00  0.00    +0.000 A 
ATOM     26  N   UNL     1       5.451   3.911  19.550  0.00  0.00    +0.000 NA
ATOM     27  N   UNL     1       6.486   4.780  19.637  0.00  0.00    +0.000 NA
ATOM     28  C   UNL     1       6.977   5.319  18.506  0.00  0.00    +0.000 A 
ATOM     29  C   UNL     1       6.505   5.025  17.230  0.00  0.00    +0.000 A 
ATOM     30  C   UNL     1       7.037   5.621  16.068  0.00  0.00    +0.000 A 
ATOM     31  C   UNL     1       6.548   5.290  14.803  0.00  0.00    +0.000 A 
ATOM     32  C   UNL     1       5.535   4.343  14.691  0.00  0.00    +0.000 A 
ATOM     33  C   UNL     1       4.997   3.752  15.835  0.00  0.00    +0.000 A 
ATOM     34  C   UNL     1       5.455   4.093  17.131  0.00  0.00    +0.000 A 
BRANCH  28  35
ATOM     35  O   UNL     1       8.008   6.188  18.708  0.00  0.00    +0.000 OA
ATOM     36  H   UNL     1       8.686   5.589  19.070  0.00  0.00    +0.000 HD
ENDBRANCH  28  35
ENDBRANCH  24  25
ENDBRANCH  22  24
ENDBRANCH  21  22
ENDBRANCH  20  21
ENDBRANCH   1  20
TORSDOF 9
ENDMDL
MODEL 3
REMARK VINA RESULT:      -8.6      2.798      3.624
REMARK  Name = 
REMARK  11 active torsions:
REMARK  status: ('A' for Active; 'I' for Inactive)
REMARK    1  A    between atoms: C_1  and  C_2
REMARK    2  A    between atoms: C_4  and  C_5
REMARK    3  A    between atoms: C_5  and  C_7
REMARK    4  A    between atoms: C_7  and  O_8
REMARK    5  A    between atoms: O_8  and  C_9
REMARK    6  A    between atoms: C_9  and  C_11
REMARK    7  A    between atoms: C_11  and  C_12
REMARK    8  A    between atoms: C_15  and  O_16
REMARK    9  A    between atoms: C_23  and  C_24
REMARK   10  A    between atoms: N_25  and  C_26
REMARK   11  A    between atoms: C_30  and  C_31
REMARK                            x       y       z     vdW  Elec       q    Type
REMARK                         _______ _______ _______ _____ _____    ______ ____
ROOT
ATOM      1  C   UNL     1       0.837   9.474  20.305  0.00  0.00    +0.000 C 
ATOM      2  O   UNL     1       1.034  10.156  21.313  0.00  0.00    +0.000 OA
ENDROOT
BRANCH   1   6
ATOM      3  C   UNL     1       2.196   4.621  21.104  0.00  0.00    +0.000 C 
ATOM      4  C   UNL     1       2.015   5.955  20.457  0.00  0.00    +0.000 A 
ATOM      5  C   UNL     1       1.270   7.005  20.959  0.00  0.00    +0.000 A 
ATOM      6  C   UNL     1       1.447   8.138  20.127  0.00  0.00    +0.000 A 
ATOM      7  C   UNL     1       2.290   7.731  19.090  0.00  0.00    +0.000 A 
ATOM      8  C   UNL     1       2.690   8.510  17.874  0.00  0.00    +0.000 C 
ATOM      9  N   UNL     1       2.662   6.391  19.300  0.00  0.00    +0.000 N 
BRANCH   9  10
ATOM     10  C   UNL     1       3.540   5.610  18.471  0.00  0.00    +0.000 A 
ATOM     11  C   UNL     1       3.021   4.657  17.584  0.00  0.00    +0.000 A 
ATOM     12  C   UNL     1       3.872   3.862  16.811  0.00  0.00    +0.000 A 
ATOM     13  C   UNL     1       5.252   4.032  16.884  0.00  0.00    +0.000 A 
ATOM     14  C   UNL     1       5.796   4.999  17.738  0.00  0.00    +0.000 A 
ATOM     15  C   UNL     1       4.931   5.774  18.537  0.00  0.00    +0.000 A 
BRANCH  14  16
ATOM     16  C   UNL     1       7.289   5.217  17.812  0.00  0.00    +0.000 C 
ATOM     17  F   UNL     1       7.763   5.359  19.080  0.00  0.00    +0.000 F 
ATOM     18  F   UNL     1       7.987   4.180  17.268  0.00  0.00    +0.000 F 
ATOM     19  F   UNL     1       7.689   6.329  17.136  0.00  0.00    +0.000 F 
ENDBRANCH  14  16
ENDBRANCH   9  10
ENDBRANCH   1   6
BRANCH   1  20
ATOM     20  C   UNL     1      -0.042  10.013  19.169  0.00  0.00    +0.000 C 
BRANCH  20  21
ATOM     21  O   UNL     1       0.350  11.311  18.713  0.00  0.00    +0.000 OA
BRANCH  21  22
ATOM     22  C   UNL     1      -0.640  12.246  18.711  0.00  0.00    +0.000 C 
ATOM     23  O   UNL     1      -0.643  13.263  18.027  0.00  0.00    +0.000 OA
BRANCH  22  24
ATOM     24  C   UNL     1      -1.721  11.886  19.691  0.00  0.00    +0.000 C 
BRANCH  24  25
ATOM     25  C   UNL     1      -3.085  11.932  19.064  0.00  0.00    +0.000 A 
ATOM     26  N   UNL     1      -3.127  11.479  17.783  0.00  0.00    +0.000 NA
ATOM     27  N   UNL     1      -4.289  11.500  17.086  0.00  0.00    +0.000 NA
ATOM     28  C   UNL     1      -5.390  11.997  17.678  0.00  0.00    +0.000 A 
ATOM     29  C   UNL     1      -5.428  12.477  18.983  0.00  0.00    +0.000 A 
ATOM     30  C   UNL     1      -6.600  13.004  19.566  0.00  0.00    +0.000 A 
ATOM     31  C   UNL     1      -6.604  13.463  20.884  0.00  0.00    +0.000 A 
ATOM     32  C   UNL     1      -5.437  13.379  21.637  0.00  0.00    +0.000 A 
ATOM     33  C   UNL     1      -4.270  12.866  21.069  0.00  0.00    +0.000 A 
ATOM     34  C   UNL     1      -4.233  12.421  19.725  0.00  0.00    +0.000 A 
BRANCH  28  35
ATOM     35  O   UNL     1      -6.500  11.982  16.886  0.00  0.00    +0.000 OA
ATOM     36  H   UNL     1      -6.659  12.937  16.774  0.00  0.00    +0.000 HD
ENDBRANCH  28  35
ENDBRANCH  24  25
ENDBRANCH  22  24
ENDBRANCH  21  22
ENDBRANCH  20  21
ENDBRANCH   1  20
TORSDOF 9
ENDMDL
MODEL 4
REMARK VINA RESULT:      -8.6      2.449      3.620
REMARK  Name = 
REMARK  11 active torsions:
REMARK  status: ('A' for Active; 'I' for Inactive)
REMARK    1  A    between atoms: C_1  and  C_2
REMARK    2  A    between atoms: C_4  and  C_5
REMARK    3  A    between atoms: C_5  and  C_7
REMARK    4  A    between atoms: C_7  and  O_8
REMARK    5  A    between atoms: O_8  and  C_9
REMARK    6  A    between atoms: C_9  and  C_11
REMARK    7  A    between atoms: C_11  and  C_12
REMARK    8  A    between atoms: C_15  and  O_16
REMARK    9  A    between atoms: C_23  and  C_24
REMARK   10  A    between atoms: N_25  and  C_26
REMARK   11  A    between atoms: C_30  and  C_31
REMARK                            x       y       z     vdW  Elec       q    Type
REMARK                         _______ _______ _______ _____ _____    ______ ____
ROOT
ATOM      1  C   UNL     1       0.872   9.368  20.697  0.00  0.00    +0.000 C 
ATOM      2  O   UNL     1       1.464  10.208  21.378  0.00  0.00    +0.000 OA
ENDROOT
BRANCH   1   6
ATOM      3  C   UNL     1       2.257   4.477  21.144  0.00  0.00    +0.000 C 
ATOM      4  C   UNL     1       2.031   5.841  20.579  0.00  0.00    +0.000 A 
ATOM      5  C   UNL     1       1.341   6.869  21.193  0.00  0.00    +0.000 A 
ATOM      6  C   UNL     1       1.453   8.040  20.404  0.00  0.00    +0.000 A 
ATOM      7  C   UNL     1       2.201   7.680  19.280  0.00  0.00    +0.000 A 
ATOM      8  C   UNL     1       2.500   8.516  18.072  0.00  0.00    +0.000 C 
ATOM      9  N   UNL     1       2.579   6.331  19.393  0.00  0.00    +0.000 N 
BRANCH   9  10
ATOM     10  C   UNL     1       3.376   5.587  18.454  0.00  0.00    +0.000 A 
ATOM     11  C   UNL     1       2.790   4.606  17.643  0.00  0.00    +0.000 A 
ATOM     12  C   UNL     1       3.568   3.847  16.764  0.00  0.00    +0.000 A 
ATOM     13  C   UNL     1       4.936   4.082  16.654  0.00  0.00    +0.000 A 
ATOM     14  C   UNL     1       5.542   5.078  17.430  0.00  0.00    +0.000 A 
ATOM     15  C   UNL     1       4.754   5.816  18.336  0.00  0.00    +0.000 A 
BRANCH  14  16
ATOM     16  C   UNL     1       7.020   5.366  17.306  0.00  0.00    +0.000 C 
ATOM     17  F   UNL     1       7.457   6.361  18.126  0.00  0.00    +0.000 F 
ATOM     18  F   UNL     1       7.782   4.276  17.604  0.00  0.00    +0.000 F 
ATOM     19  F   UNL     1       7.377   5.736  16.046  0.00  0.00    +0.000 F 
ENDBRANCH  14  16
ENDBRANCH   9  10
ENDBRANCH   1   6
BRANCH   1  20
ATOM     20  C   UNL     1      -0.503   9.692  20.098  0.00  0.00    +0.000 C 
BRANCH  20  21
ATOM     21  O   UNL     1      -0.431  10.355  18.833  0.00  0.00    +0.000 OA
BRANCH  21  22
ATOM     22  C   UNL     1      -1.631  10.581  18.229  0.00  0.00    +0.000 C 
ATOM     23  O   UNL     1      -2.289   9.732  17.638  0.00  0.00    +0.000 OA
BRANCH  22  24
ATOM     24  C   UNL     1      -2.031  12.025  18.352  0.00  0.00    +0.000 C 
BRANCH  24  25
ATOM     25  C   UNL     1      -3.066  12.231  19.420  0.00  0.00    +0.000 A 
ATOM     26  N   UNL     1      -2.555  12.497  20.651  0.00  0.00    +0.000 NA
ATOM     27  N   UNL     1      -3.379  12.668  21.713  0.00  0.00    +0.000 NA
ATOM     28  C   UNL     1      -4.706  12.547  21.530  0.00  0.00    +0.000 A 
ATOM     29  C   UNL     1      -5.305  12.279  20.303  0.00  0.00    +0.000 A 
ATOM     30  C   UNL     1      -6.702  12.146  20.152  0.00  0.00    +0.000 A 
ATOM     31  C   UNL     1      -7.268  11.891  18.902  0.00  0.00    +0.000 A 
ATOM     32  C   UNL     1      -6.441  11.787  17.788  0.00  0.00    +0.000 A 
ATOM     33  C   UNL     1      -5.057  11.910  17.926  0.00  0.00    +0.000 A 
ATOM     34  C   UNL     1      -4.456  12.139  19.188  0.00  0.00    +0.000 A 
BRANCH  28  35
ATOM     35  O   UNL     1      -5.441  12.726  22.664  0.00  0.00    +0.000 OA
ATOM     36  H   UNL     1      -6.313  12.941  22.286  0.00  0.00    +0.000 HD
ENDBRANCH  28  35
ENDBRANCH  24  25
ENDBRANCH  22  24
ENDBRANCH  21  22
ENDBRANCH  20  21
ENDBRANCH   1  20
TORSDOF 9
ENDMDL
MODEL 5
REMARK VINA RESULT:      -8.6      5.472     10.543
REMARK  Name = 
REMARK  11 active torsions:
REMARK  status: ('A' for Active; 'I' for Inactive)
REMARK    1  A    between atoms: C_1  and  C_2
REMARK    2  A    between atoms: C_4  and  C_5
REMARK    3  A    between atoms: C_5  and  C_7
REMARK    4  A    between atoms: C_7  and  O_8
REMARK    5  A    between atoms: O_8  and  C_9
REMARK    6  A    between atoms: C_9  and  C_11
REMARK    7  A    between atoms: C_11  and  C_12
REMARK    8  A    between atoms: C_15  and  O_16
REMARK    9  A    between atoms: C_23  and  C_24
REMARK   10  A    between atoms: N_25  and  C_26
REMARK   11  A    between atoms: C_30  and  C_31
REMARK                            x       y       z     vdW  Elec       q    Type
REMARK                         _______ _______ _______ _____ _____    ______ ____
ROOT
ATOM      1  C   UNL     1       2.349   6.543  19.479  0.00  0.00    +0.000 C 
ATOM      2  O   UNL     1       3.090   6.474  18.497  0.00  0.00    +0.000 OA
ENDROOT
BRANCH   1   6
ATOM      3  C   UNL     1       0.097  10.107  22.355  0.00  0.00    +0.000 C 
ATOM      4  C   UNL     1       0.772   9.428  21.209  0.00  0.00    +0.000 A 
ATOM      5  C   UNL     1       1.295   8.149  21.219  0.00  0.00    +0.000 A 
ATOM      6  C   UNL     1       1.734   7.816  19.913  0.00  0.00    +0.000 A 
ATOM      7  C   UNL     1       1.493   8.945  19.124  0.00  0.00    +0.000 A 
ATOM      8  C   UNL     1       1.889   9.165  17.695  0.00  0.00    +0.000 C 
ATOM      9  N   UNL     1       0.880   9.934  19.912  0.00  0.00    +0.000 N 
BRANCH   9  10
ATOM     10  C   UNL     1       0.450  11.233  19.469  0.00  0.00    +0.000 A 
ATOM     11  C   UNL     1      -0.885  11.456  19.106  0.00  0.00    +0.000 A 
ATOM     12  C   UNL     1      -1.297  12.703  18.629  0.00  0.00    +0.000 A 
ATOM     13  C   UNL     1      -0.391  13.757  18.541  0.00  0.00    +0.000 A 
ATOM     14  C   UNL     1       0.943  13.570  18.926  0.00  0.00    +0.000 A 
ATOM     15  C   UNL     1       1.355  12.300  19.377  0.00  0.00    +0.000 A 
BRANCH  14  16
ATOM     16  C   UNL     1       1.934  14.708  18.863  0.00  0.00    +0.000 C 
ATOM     17  F   UNL     1       1.363  15.925  18.648  0.00  0.00    +0.000 F 
ATOM     18  F   UNL     1       2.649  14.831  20.017  0.00  0.00    +0.000 F 
ATOM     19  F   UNL     1       2.853  14.546  17.871  0.00  0.00    +0.000 F 
ENDBRANCH  14  16
ENDBRANCH   9  10
ENDBRANCH   1   6
BRANCH   1  20
ATOM     20  C   UNL     1       2.058   5.290  20.315  0.00  0.00    +0.000 C 
BRANCH  20  21
ATOM     21  O   UNL     1       3.213   4.477  20.543  0.00  0.00    +0.000 OA
BRANCH  21  22
ATOM     22  C   UNL     1       3.174   3.243  19.969  0.00  0.00    +0.000 C 
ATOM     23  O   UNL     1       2.194   2.507  19.953  0.00  0.00    +0.000 OA
BRANCH  22  24
ATOM     24  C   UNL     1       4.511   2.880  19.384  0.00  0.00    +0.000 C 
BRANCH  24  25
ATOM     25  C   UNL     1       4.888   3.784  18.245  0.00  0.00    +0.000 A 
ATOM     26  N   UNL     1       4.184   3.567  17.102  0.00  0.00    +0.000 NA
ATOM     27  N   UNL     1       4.450   4.289  15.986  0.00  0.00    +0.000 NA
ATOM     28  C   UNL     1       5.434   5.205  16.026  0.00  0.00    +0.000 A 
ATOM     29  C   UNL     1       6.196   5.485  17.156  0.00  0.00    +0.000 A 
ATOM     30  C   UNL     1       7.231   6.444  17.155  0.00  0.00    +0.000 A 
ATOM     31  C   UNL     1       7.965   6.709  18.313  0.00  0.00    +0.000 A 
ATOM     32  C   UNL     1       7.655   6.030  19.486  0.00  0.00    +0.000 A 
ATOM     33  C   UNL     1       6.638   5.074  19.497  0.00  0.00    +0.000 A 
ATOM     34  C   UNL     1       5.899   4.766  18.329  0.00  0.00    +0.000 A 
BRANCH  28  35
ATOM     35  O   UNL     1       5.626   5.865  14.849  0.00  0.00    +0.000 OA
ATOM     36  H   UNL     1       6.508   6.251  14.996  0.00  0.00    +0.000 HD
ENDBRANCH  28  35
ENDBRANCH  24  25
ENDBRANCH  22  24
ENDBRANCH  21  22
ENDBRANCH  20  21
ENDBRANCH   1  20
TORSDOF 9
ENDMDL
MODEL 6
REMARK VINA RESULT:      -8.5      1.563      2.453
REMARK  Name = 
REMARK  11 active torsions:
REMARK  status: ('A' for Active; 'I' for Inactive)
REMARK    1  A    between atoms: C_1  and  C_2
REMARK    2  A    between atoms: C_4  and  C_5
REMARK    3  A    between atoms: C_5  and  C_7
REMARK    4  A    between atoms: C_7  and  O_8
REMARK    5  A    between atoms: O_8  and  C_9
REMARK    6  A    between atoms: C_9  and  C_11
REMARK    7  A    between atoms: C_11  and  C_12
REMARK    8  A    between atoms: C_15  and  O_16
REMARK    9  A    between atoms: C_23  and  C_24
REMARK   10  A    between atoms: N_25  and  C_26
REMARK   11  A    between atoms: C_30  and  C_31
REMARK                            x       y       z     vdW  Elec       q    Type
REMARK                         _______ _______ _______ _____ _____    ______ ____
ROOT
ATOM      1  C   UNL     1       0.901   9.324  20.414  0.00  0.00    +0.000 C 
ATOM      2  O   UNL     1       0.893   9.875  21.517  0.00  0.00    +0.000 OA
ENDROOT
BRANCH   1   6
ATOM      3  C   UNL     1       2.244   4.449  21.103  0.00  0.00    +0.000 C 
ATOM      4  C   UNL     1       2.066   5.797  20.486  0.00  0.00    +0.000 A 
ATOM      5  C   UNL     1       1.327   6.839  21.013  0.00  0.00    +0.000 A 
ATOM      6  C   UNL     1       1.505   7.990  20.206  0.00  0.00    +0.000 A 
ATOM      7  C   UNL     1       2.345   7.602  19.158  0.00  0.00    +0.000 A 
ATOM      8  C   UNL     1       2.745   8.407  17.958  0.00  0.00    +0.000 C 
ATOM      9  N   UNL     1       2.712   6.258  19.337  0.00  0.00    +0.000 N 
BRANCH   9  10
ATOM     10  C   UNL     1       3.585   5.492  18.489  0.00  0.00    +0.000 A 
ATOM     11  C   UNL     1       3.064   4.530  17.613  0.00  0.00    +0.000 A 
ATOM     12  C   UNL     1       3.912   3.750  16.821  0.00  0.00    +0.000 A 
ATOM     13  C   UNL     1       5.290   3.943  16.864  0.00  0.00    +0.000 A 
ATOM     14  C   UNL     1       5.836   4.919  17.708  0.00  0.00    +0.000 A 
ATOM     15  C   UNL     1       4.975   5.679  18.525  0.00  0.00    +0.000 A 
BRANCH  14  16
ATOM     16  C   UNL     1       7.326   5.162  17.750  0.00  0.00    +0.000 C 
ATOM     17  F   UNL     1       7.826   5.301  19.009  0.00  0.00    +0.000 F 
ATOM     18  F   UNL     1       8.029   4.143  17.181  0.00  0.00    +0.000 F 
ATOM     19  F   UNL     1       7.691   6.288  17.077  0.00  0.00    +0.000 F 
ENDBRANCH  14  16
ENDBRANCH   9  10
ENDBRANCH   1   6
BRANCH   1  20
ATOM     20  C   UNL     1       0.295  10.030  19.194  0.00  0.00    +0.000 C 
BRANCH  20  21
ATOM     21  O   UNL     1      -1.129   9.917  19.120  0.00  0.00    +0.000 OA
BRANCH  21  22
ATOM     22  C   UNL     1      -1.707  10.574  18.077  0.00  0.00    +0.000 C 
ATOM     23  O   UNL     1      -2.013  10.060  17.007  0.00  0.00    +0.000 OA
BRANCH  22  24
ATOM     24  C   UNL     1      -1.891  12.032  18.396  0.00  0.00    +0.000 C 
BRANCH  24  25
ATOM     25  C   UNL     1      -2.872  12.242  19.513  0.00  0.00    +0.000 A 
ATOM     26  N   UNL     1      -4.174  12.087  19.150  0.00  0.00    +0.000 NA
ATOM     27  N   UNL     1      -5.164  12.285  20.053  0.00  0.00    +0.000 NA
ATOM     28  C   UNL     1      -4.837  12.656  21.304  0.00  0.00    +0.000 A 
ATOM     29  C   UNL     1      -3.531  12.833  21.751  0.00  0.00    +0.000 A 
ATOM     30  C   UNL     1      -3.227  13.237  23.068  0.00  0.00    +0.000 A 
ATOM     31  C   UNL     1      -1.904  13.389  23.485  0.00  0.00    +0.000 A 
ATOM     32  C   UNL     1      -0.873  13.118  22.592  0.00  0.00    +0.000 A 
ATOM     33  C   UNL     1      -1.162  12.724  21.284  0.00  0.00    +0.000 A 
ATOM     34  C   UNL     1      -2.496  12.591  20.828  0.00  0.00    +0.000 A 
BRANCH  28  35
ATOM     35  O   UNL     1      -5.909  12.839  22.127  0.00  0.00    +0.000 OA
ATOM     36  H   UNL     1      -6.217  13.716  21.836  0.00  0.00    +0.000 HD
ENDBRANCH  28  35
ENDBRANCH  24  25
ENDBRANCH  22  24
ENDBRANCH  21  22
ENDBRANCH  20  21
ENDBRANCH   1  20
TORSDOF 9
ENDMDL
MODEL 7
REMARK VINA RESULT:      -8.5      2.675      3.735
REMARK  Name = 
REMARK  11 active torsions:
REMARK  status: ('A' for Active; 'I' for Inactive)
REMARK    1  A    between atoms: C_1  and  C_2
REMARK    2  A    between atoms: C_4  and  C_5
REMARK    3  A    between atoms: C_5  and  C_7
REMARK    4  A    between atoms: C_7  and  O_8
REMARK    5  A    between atoms: O_8  and  C_9
REMARK    6  A    between atoms: C_9  and  C_11
REMARK    7  A    between atoms: C_11  and  C_12
REMARK    8  A    between atoms: C_15  and  O_16
REMARK    9  A    between atoms: C_23  and  C_24
REMARK   10  A    between atoms: N_25  and  C_26
REMARK   11  A    between atoms: C_30  and  C_31
REMARK                            x       y       z     vdW  Elec       q    Type
REMARK                         _______ _______ _______ _____ _____    ______ ____
ROOT
ATOM      1  C   UNL     1       0.599   8.297  21.149  0.00  0.00    +0.000 C 
ATOM      2  O   UNL     1      -0.632   8.293  21.220  0.00  0.00    +0.000 OA
ENDROOT
BRANCH   1   6
ATOM      3  C   UNL     1       2.565   3.593  20.931  0.00  0.00    +0.000 C 
ATOM      4  C   UNL     1       2.206   4.998  20.574  0.00  0.00    +0.000 A 
ATOM      5  C   UNL     1       1.348   5.820  21.279  0.00  0.00    +0.000 A 
ATOM      6  C   UNL     1       1.365   7.114  20.702  0.00  0.00    +0.000 A 
ATOM      7  C   UNL     1       2.231   7.039  19.607  0.00  0.00    +0.000 A 
ATOM      8  C   UNL     1       2.506   8.097  18.581  0.00  0.00    +0.000 C 
ATOM      9  N   UNL     1       2.770   5.743  19.536  0.00  0.00    +0.000 N 
BRANCH   9  10
ATOM     10  C   UNL     1       3.721   5.266  18.568  0.00  0.00    +0.000 A 
ATOM     11  C   UNL     1       3.290   4.576  17.426  0.00  0.00    +0.000 A 
ATOM     12  C   UNL     1       4.212   4.070  16.506  0.00  0.00    +0.000 A 
ATOM     13  C   UNL     1       5.576   4.276  16.692  0.00  0.00    +0.000 A 
ATOM     14  C   UNL     1       6.033   4.989  17.808  0.00  0.00    +0.000 A 
ATOM     15  C   UNL     1       5.096   5.470  18.746  0.00  0.00    +0.000 A 
BRANCH  14  16
ATOM     16  C   UNL     1       7.508   5.247  18.014  0.00  0.00    +0.000 C 
ATOM     17  F   UNL     1       7.961   6.371  17.395  0.00  0.00    +0.000 F 
ATOM     18  F   UNL     1       7.824   5.393  19.331  0.00  0.00    +0.000 F 
ATOM     19  F   UNL     1       8.285   4.228  17.554  0.00  0.00    +0.000 F 
ENDBRANCH  14  16
ENDBRANCH   9  10
ENDBRANCH   1   6
BRANCH   1  20
ATOM     20  C   UNL     1       1.390   9.547  21.557  0.00  0.00    +0.000 C 
BRANCH  20  21
ATOM     21  O   UNL     1       1.072  10.702  20.776  0.00  0.00    +0.000 OA
BRANCH  21  22
ATOM     22  C   UNL     1       0.223  11.586  21.370  0.00  0.00    +0.000 C 
ATOM     23  O   UNL     1      -0.176  11.506  22.527  0.00  0.00    +0.000 OA
BRANCH  22  24
ATOM     24  C   UNL     1      -0.194  12.661  20.406  0.00  0.00    +0.000 C 
BRANCH  24  25
ATOM     25  C   UNL     1      -1.632  12.518  19.995  0.00  0.00    +0.000 A 
ATOM     26  N   UNL     1      -2.495  13.298  20.699  0.00  0.00    +0.000 NA
ATOM     27  N   UNL     1      -3.826  13.239  20.454  0.00  0.00    +0.000 NA
ATOM     28  C   UNL     1      -4.276  12.382  19.521  0.00  0.00    +0.000 A 
ATOM     29  C   UNL     1      -3.458  11.554  18.759  0.00  0.00    +0.000 A 
ATOM     30  C   UNL     1      -3.968  10.657  17.797  0.00  0.00    +0.000 A 
ATOM     31  C   UNL     1      -3.115   9.853  17.040  0.00  0.00    +0.000 A 
ATOM     32  C   UNL     1      -1.740   9.955  17.227  0.00  0.00    +0.000 A 
ATOM     33  C   UNL     1      -1.224  10.834  18.180  0.00  0.00    +0.000 A 
ATOM     34  C   UNL     1      -2.070  11.639  18.981  0.00  0.00    +0.000 A 
BRANCH  28  35
ATOM     35  O   UNL     1      -5.631  12.395  19.363  0.00  0.00    +0.000 OA
ATOM     36  H   UNL     1      -5.819  11.440  19.316  0.00  0.00    +0.000 HD
ENDBRANCH  28  35
ENDBRANCH  24  25
ENDBRANCH  22  24
ENDBRANCH  21  22
ENDBRANCH  20  21
ENDBRANCH   1  20
TORSDOF 9
ENDMDL
MODEL 8
REMARK VINA RESULT:      -8.4      1.663      2.189
REMARK  Name = 
REMARK  11 active torsions:
REMARK  status: ('A' for Active; 'I' for Inactive)
REMARK    1  A    between atoms: C_1  and  C_2
REMARK    2  A    between atoms: C_4  and  C_5
REMARK    3  A    between atoms: C_5  and  C_7
REMARK    4  A    between atoms: C_7  and  O_8
REMARK    5  A    between atoms: O_8  and  C_9
REMARK    6  A    between atoms: C_9  and  C_11
REMARK    7  A    between atoms: C_11  and  C_12
REMARK    8  A    between atoms: C_15  and  O_16
REMARK    9  A    between atoms: C_23  and  C_24
REMARK   10  A    between atoms: N_25  and  C_26
REMARK   11  A    between atoms: C_30  and  C_31
REMARK                            x       y       z     vdW  Elec       q    Type
REMARK                         _______ _______ _______ _____ _____    ______ ____
ROOT
ATOM      1  C   UNL     1       0.879   9.587  19.832  0.00  0.00    +0.000 C 
ATOM      2  O   UNL     1       1.155  10.471  19.018  0.00  0.00    +0.000 OA
ENDROOT
BRANCH   1   6
ATOM      3  C   UNL     1       2.252   4.831  21.069  0.00  0.00    +0.000 C 
ATOM      4  C   UNL     1       2.080   6.105  20.308  0.00  0.00    +0.000 A 
ATOM      5  C   UNL     1       1.313   7.185  20.701  0.00  0.00    +0.000 A 
ATOM      6  C   UNL     1       1.504   8.248  19.783  0.00  0.00    +0.000 A 
ATOM      7  C   UNL     1       2.380   7.765  18.807  0.00  0.00    +0.000 A 
ATOM      8  C   UNL     1       2.808   8.446  17.542  0.00  0.00    +0.000 C 
ATOM      9  N   UNL     1       2.756   6.451  19.138  0.00  0.00    +0.000 N 
BRANCH   9  10
ATOM     10  C   UNL     1       3.664   5.614  18.401  0.00  0.00    +0.000 A 
ATOM     11  C   UNL     1       3.178   4.592  17.573  0.00  0.00    +0.000 A 
ATOM     12  C   UNL     1       4.056   3.745  16.893  0.00  0.00    +0.000 A 
ATOM     13  C   UNL     1       5.432   3.927  16.998  0.00  0.00    +0.000 A 
ATOM     14  C   UNL     1       5.945   4.960  17.794  0.00  0.00    +0.000 A 
ATOM     15  C   UNL     1       5.051   5.790  18.501  0.00  0.00    +0.000 A 
BRANCH  14  16
ATOM     16  C   UNL     1       7.434   5.191  17.900  0.00  0.00    +0.000 C 
ATOM     17  F   UNL     1       7.867   6.300  17.241  0.00  0.00    +0.000 F 
ATOM     18  F   UNL     1       7.839   5.344  19.192  0.00  0.00    +0.000 F 
ATOM     19  F   UNL     1       8.161   4.153  17.402  0.00  0.00    +0.000 F 
ENDBRANCH  14  16
ENDBRANCH   9  10
ENDBRANCH   1   6
BRANCH   1  20
ATOM     20  C   UNL     1      -0.164   9.848  20.928  0.00  0.00    +0.000 C 
BRANCH  20  21
ATOM     21  O   UNL     1       0.032  11.086  21.616  0.00  0.00    +0.000 OA
BRANCH  21  22
ATOM     22  C   UNL     1      -0.676  11.223  22.772  0.00  0.00    +0.000 C 
ATOM     23  O   UNL     1      -0.841  10.337  23.603  0.00  0.00    +0.000 OA
BRANCH  22  24
ATOM     24  C   UNL     1      -1.264  12.602  22.882  0.00  0.00    +0.000 C 
BRANCH  24  25
ATOM     25  C   UNL     1      -2.587  12.704  22.178  0.00  0.00    +0.000 A 
ATOM     26  N   UNL     1      -2.492  12.868  20.831  0.00  0.00    +0.000 NA
ATOM     27  N   UNL     1      -3.610  13.011  20.078  0.00  0.00    +0.000 NA
ATOM     28  C   UNL     1      -4.807  13.010  20.690  0.00  0.00    +0.000 A 
ATOM     29  C   UNL     1      -4.987  12.847  22.060  0.00  0.00    +0.000 A 
ATOM     30  C   UNL     1      -6.260  12.865  22.668  0.00  0.00    +0.000 A 
ATOM     31  C   UNL     1      -6.401  12.683  24.045  0.00  0.00    +0.000 A 
ATOM     32  C   UNL     1      -5.269  12.460  24.822  0.00  0.00    +0.000 A 
ATOM     33  C   UNL     1      -4.004  12.447  24.232  0.00  0.00    +0.000 A 
ATOM     34  C   UNL     1      -3.831  12.659  22.842  0.00  0.00    +0.000 A 
BRANCH  28  35
ATOM     35  O   UNL     1      -5.864  13.172  19.843  0.00  0.00    +0.000 OA
ATOM     36  H   UNL     1      -5.605  12.584  19.111  0.00  0.00    +0.000 HD
ENDBRANCH  28  35
ENDBRANCH  24  25
ENDBRANCH  22  24
ENDBRANCH  21  22
ENDBRANCH  20  21
ENDBRANCH   1  20
TORSDOF 9
ENDMDL
MODEL 9
REMARK VINA RESULT:      -8.4      5.447     11.696
REMARK  Name = 
REMARK  11 active torsions:
REMARK  status: ('A' for Active; 'I' for Inactive)
REMARK    1  A    between atoms: C_1  and  C_2
REMARK    2  A    between atoms: C_4  and  C_5
REMARK    3  A    between atoms: C_5  and  C_7
REMARK    4  A    between atoms: C_7  and  O_8
REMARK    5  A    between atoms: O_8  and  C_9
REMARK    6  A    between atoms: C_9  and  C_11
REMARK    7  A    between atoms: C_11  and  C_12
REMARK    8  A    between atoms: C_15  and  O_16
REMARK    9  A    between atoms: C_23  and  C_24
REMARK   10  A    between atoms: N_25  and  C_26
REMARK   11  A    between atoms: C_30  and  C_31
REMARK                            x       y       z     vdW  Elec       q    Type
REMARK                         _______ _______ _______ _____ _____    ______ ____
ROOT
ATOM      1  C   UNL     1       1.957   8.215  18.820  0.00  0.00    +0.000 C 
ATOM      2  O   UNL     1       2.095   8.702  17.696  0.00  0.00    +0.000 OA
ENDROOT
BRANCH   1   6
ATOM      3  C   UNL     1       0.125   9.423  23.427  0.00  0.00    +0.000 C 
ATOM      4  C   UNL     1       0.562   9.528  22.003  0.00  0.00    +0.000 A 
ATOM      5  C   UNL     1       1.204   8.542  21.277  0.00  0.00    +0.000 A 
ATOM      6  C   UNL     1       1.337   8.967  19.932  0.00  0.00    +0.000 A 
ATOM      7  C   UNL     1       0.790  10.252  19.876  0.00  0.00    +0.000 A 
ATOM      8  C   UNL     1       0.793  11.199  18.714  0.00  0.00    +0.000 C 
ATOM      9  N   UNL     1       0.290  10.594  21.145  0.00  0.00    +0.000 N 
BRANCH   9  10
ATOM     10  C   UNL     1      -0.372  11.821  21.498  0.00  0.00    +0.000 A 
ATOM     11  C   UNL     1       0.341  13.027  21.545  0.00  0.00    +0.000 A 
ATOM     12  C   UNL     1      -0.286  14.214  21.933  0.00  0.00    +0.000 A 
ATOM     13  C   UNL     1      -1.643  14.222  22.246  0.00  0.00    +0.000 A 
ATOM     14  C   UNL     1      -2.387  13.038  22.178  0.00  0.00    +0.000 A 
ATOM     15  C   UNL     1      -1.737  11.840  21.814  0.00  0.00    +0.000 A 
BRANCH  14  16
ATOM     16  C   UNL     1      -3.865  13.031  22.487  0.00  0.00    +0.000 C 
ATOM     17  F   UNL     1      -4.185  12.368  23.633  0.00  0.00    +0.000 F 
ATOM     18  F   UNL     1      -4.365  14.290  22.634  0.00  0.00    +0.000 F 
ATOM     19  F   UNL     1      -4.603  12.450  21.502  0.00  0.00    +0.000 F 
ENDBRANCH  14  16
ENDBRANCH   9  10
ENDBRANCH   1   6
BRANCH   1  20
ATOM     20  C   UNL     1       2.460   6.795  19.112  0.00  0.00    +0.000 C 
BRANCH  20  21
ATOM     21  O   UNL     1       2.260   5.887  18.025  0.00  0.00    +0.000 OA
BRANCH  21  22
ATOM     22  C   UNL     1       2.020   4.596  18.388  0.00  0.00    +0.000 C 
ATOM     23  O   UNL     1       1.228   4.247  19.256  0.00  0.00    +0.000 OA
BRANCH  22  24
ATOM     24  C   UNL     1       2.884   3.648  17.604  0.00  0.00    +0.000 C 
BRANCH  24  25
ATOM     25  C   UNL     1       4.344   3.964  17.757  0.00  0.00    +0.000 A 
ATOM     26  N   UNL     1       4.774   4.013  19.047  0.00  0.00    +0.000 NA
ATOM     27  N   UNL     1       6.062   4.324  19.328  0.00  0.00    +0.000 NA
ATOM     28  C   UNL     1       6.898   4.604  18.313  0.00  0.00    +0.000 A 
ATOM     29  C   UNL     1       6.535   4.573  16.969  0.00  0.00    +0.000 A 
ATOM     30  C   UNL     1       7.438   4.887  15.931  0.00  0.00    +0.000 A 
ATOM     31  C   UNL     1       7.042   4.831  14.594  0.00  0.00    +0.000 A 
ATOM     32  C   UNL     1       5.743   4.440  14.284  0.00  0.00    +0.000 A 
ATOM     33  C   UNL     1       4.839   4.135  15.303  0.00  0.00    +0.000 A 
ATOM     34  C   UNL     1       5.208   4.213  16.669  0.00  0.00    +0.000 A 
BRANCH  28  35
ATOM     35  O   UNL     1       8.166   4.915  18.707  0.00  0.00    +0.000 OA
ATOM     36  H   UNL     1       8.576   4.032  18.722  0.00  0.00    +0.000 HD
ENDBRANCH  28  35
ENDBRANCH  24  25
ENDBRANCH  22  24
ENDBRANCH  21  22
ENDBRANCH  20  21
ENDBRANCH   1  20
TORSDOF 9
ENDMDL
