MODEL 1
REMARK VINA RESULT:      -7.2      0.000      0.000
REMARK  Name = 
REMARK  13 active torsions:
REMARK  status: ('A' for Active; 'I' for Inactive)
REMARK    1  A    between atoms: C_1  and  O_2
REMARK    2  A    between atoms: O_2  and  C_3
REMARK    3  A    between atoms: C_6  and  N_7
REMARK    4  A    between atoms: N_7  and  C_8
REMARK    5  A    between atoms: C_9  and  C_10
REMARK    6  A    between atoms: C_10  and  C_12
REMARK    7  A    between atoms: C_14  and  O_15
REMARK    8  A    between atoms: O_15  and  C_16
REMARK    9  A    between atoms: C_17  and  O_18
REMARK   10  A    between atoms: O_18  and  C_19
REMARK   11  A    between atoms: C_20  and  O_21
REMARK   12  A    between atoms: O_21  and  C_22
REMARK   13  A    between atoms: C_25  and  O_26
REMARK                            x       y       z     vdW  Elec       q    Type
REMARK                         _______ _______ _______ _____ _____    ______ ____
ROOT
ATOM      1  C   UNL     1       8.237   7.339  18.607  0.00  0.00    +0.000 C 
ATOM      2  C   UNL     1       7.717   6.143  18.319  0.00  0.00    +0.000 C 
ENDROOT
BRANCH   1   3
ATOM      3  N   UNL     1       8.073   8.514  17.928  0.00  0.00    +0.000 N 
ATOM      4  H   UNL     1       7.621   8.423  17.015  0.00  0.00    +0.000 HD
BRANCH   3   8
ATOM      5  C   UNL     1       9.540  12.346  18.983  0.00  0.00    +0.000 A 
ATOM      6  C   UNL     1       9.845  11.216  19.751  0.00  0.00    +0.000 A 
ATOM      7  C   UNL     1       9.352   9.950  19.406  0.00  0.00    +0.000 A 
ATOM      8  C   UNL     1       8.536   9.787  18.282  0.00  0.00    +0.000 A 
ATOM      9  C   UNL     1       8.236  10.921  17.524  0.00  0.00    +0.000 A 
ATOM     10  C   UNL     1       8.722  12.183  17.863  0.00  0.00    +0.000 A 
BRANCH   5  12
ATOM     11  C   UNL     1      11.471  13.727  19.121  0.00  0.00    +0.000 C 
ATOM     12  O   UNL     1      10.103  13.505  19.443  0.00  0.00    +0.000 OA
ENDBRANCH   5  12
BRANCH  10  13
ATOM     13  O   UNL     1       8.361  13.229  17.057  0.00  0.00    +0.000 OA
ATOM     14  H   UNL     1       8.044  13.961  17.609  0.00  0.00    +0.000 HD
ENDBRANCH  10  13
ENDBRANCH   3   8
ENDBRANCH   1   3
BRANCH   2  15
ATOM     15  C   UNL     1       6.843   5.961  17.142  0.00  0.00    +0.000 C 
ATOM     16  O   UNL     1       7.255   6.071  15.987  0.00  0.00    +0.000 OA
BRANCH  15  17
ATOM     17  C   UNL     1       5.444   5.595  17.404  0.00  0.00    +0.000 A 
ATOM     18  C   UNL     1       4.475   6.557  17.694  0.00  0.00    +0.000 A 
ATOM     19  C   UNL     1       3.155   6.179  17.948  0.00  0.00    +0.000 A 
ATOM     20  C   UNL     1       2.808   4.807  17.887  0.00  0.00    +0.000 A 
ATOM     21  C   UNL     1       3.804   3.842  17.581  0.00  0.00    +0.000 A 
ATOM     22  C   UNL     1       5.113   4.247  17.338  0.00  0.00    +0.000 A 
BRANCH  19  23
ATOM     23  O   UNL     1       2.190   7.103  18.253  0.00  0.00    +0.000 OA
ATOM     24  C   UNL     1       2.387   8.459  17.868  0.00  0.00    +0.000 C 
ENDBRANCH  19  23
BRANCH  20  25
ATOM     25  O   UNL     1       1.558   4.269  18.095  0.00  0.00    +0.000 OA
ATOM     26  C   UNL     1       1.130   3.990  19.419  0.00  0.00    +0.000 C 
ENDBRANCH  20  25
BRANCH  21  27
ATOM     27  O   UNL     1       3.417   2.521  17.539  0.00  0.00    +0.000 OA
ATOM     28  C   UNL     1       3.801   1.699  18.640  0.00  0.00    +0.000 C 
ENDBRANCH  21  27
ENDBRANCH  15  17
ENDBRANCH   2  15
TORSDOF 9
ENDMDL
MODEL 2
REMARK VINA RESULT:      -7.1      2.023      2.626
REMARK  Name = 
REMARK  13 active torsions:
REMARK  status: ('A' for Active; 'I' for Inactive)
REMARK    1  A    between atoms: C_1  and  O_2
REMARK    2  A    between atoms: O_2  and  C_3
REMARK    3  A    between atoms: C_6  and  N_7
REMARK    4  A    between atoms: N_7  and  C_8
REMARK    5  A    between atoms: C_9  and  C_10
REMARK    6  A    between atoms: C_10  and  C_12
REMARK    7  A    between atoms: C_14  and  O_15
REMARK    8  A    between atoms: O_15  and  C_16
REMARK    9  A    between atoms: C_17  and  O_18
REMARK   10  A    between atoms: O_18  and  C_19
REMARK   11  A    between atoms: C_20  and  O_21
REMARK   12  A    between atoms: O_21  and  C_22
REMARK   13  A    between atoms: C_25  and  O_26
REMARK                            x       y       z     vdW  Elec       q    Type
REMARK                         _______ _______ _______ _____ _____    ______ ____
ROOT
ATOM      1  C   UNL     1       8.049   9.160  17.664  0.00  0.00    +0.000 C 
ATOM      2  C   UNL     1       7.505   7.986  17.333  0.00  0.00    +0.000 C 
ENDROOT
BRANCH   1   3
ATOM      3  N   UNL     1       8.707   9.488  18.817  0.00  0.00    +0.000 N 
ATOM      4  H   UNL     1       8.438   8.939  19.636  0.00  0.00    +0.000 HD
BRANCH   3   8
ATOM      5  C   UNL     1      11.482  12.618  19.487  0.00  0.00    +0.000 A 
ATOM      6  C   UNL     1      10.640  12.164  20.510  0.00  0.00    +0.000 A 
ATOM      7  C   UNL     1       9.717  11.134  20.284  0.00  0.00    +0.000 A 
ATOM      8  C   UNL     1       9.611  10.536  19.025  0.00  0.00    +0.000 A 
ATOM      9  C   UNL     1      10.455  10.998  18.011  0.00  0.00    +0.000 A 
ATOM     10  C   UNL     1      11.374  12.023  18.229  0.00  0.00    +0.000 A 
BRANCH   5  12
ATOM     11  C   UNL     1      11.863  14.955  19.717  0.00  0.00    +0.000 C 
ATOM     12  O   UNL     1      12.333  13.620  19.866  0.00  0.00    +0.000 OA
ENDBRANCH   5  12
BRANCH  10  13
ATOM     13  O   UNL     1      12.147  12.405  17.166  0.00  0.00    +0.000 OA
ATOM     14  H   UNL     1      11.790  12.009  16.354  0.00  0.00    +0.000 HD
ENDBRANCH  10  13
ENDBRANCH   3   8
ENDBRANCH   1   3
BRANCH   2  15
ATOM     15  C   UNL     1       7.567   6.836  18.257  0.00  0.00    +0.000 C 
ATOM     16  O   UNL     1       8.423   6.737  19.136  0.00  0.00    +0.000 OA
BRANCH  15  17
ATOM     17  C   UNL     1       6.521   5.812  18.115  0.00  0.00    +0.000 A 
ATOM     18  C   UNL     1       5.600   5.558  19.132  0.00  0.00    +0.000 A 
ATOM     19  C   UNL     1       4.622   4.574  18.974  0.00  0.00    +0.000 A 
ATOM     20  C   UNL     1       4.566   3.849  17.758  0.00  0.00    +0.000 A 
ATOM     21  C   UNL     1       5.505   4.128  16.728  0.00  0.00    +0.000 A 
ATOM     22  C   UNL     1       6.472   5.111  16.917  0.00  0.00    +0.000 A 
BRANCH  19  23
ATOM     23  O   UNL     1       3.719   4.292  19.964  0.00  0.00    +0.000 OA
ATOM     24  C   UNL     1       2.515   5.048  20.035  0.00  0.00    +0.000 C 
ENDBRANCH  19  23
BRANCH  20  25
ATOM     25  O   UNL     1       3.663   2.863  17.433  0.00  0.00    +0.000 OA
ATOM     26  C   UNL     1       3.682   1.638  18.149  0.00  0.00    +0.000 C 
ENDBRANCH  20  25
BRANCH  21  27
ATOM     27  O   UNL     1       5.411   3.393  15.567  0.00  0.00    +0.000 OA
ATOM     28  C   UNL     1       6.114   3.888  14.429  0.00  0.00    +0.000 C 
ENDBRANCH  21  27
ENDBRANCH  15  17
ENDBRANCH   2  15
TORSDOF 9
ENDMDL
MODEL 3
REMARK VINA RESULT:      -7.1      5.309      8.318
REMARK  Name = 
REMARK  13 active torsions:
REMARK  status: ('A' for Active; 'I' for Inactive)
REMARK    1  A    between atoms: C_1  and  O_2
REMARK    2  A    between atoms: O_2  and  C_3
REMARK    3  A    between atoms: C_6  and  N_7
REMARK    4  A    between atoms: N_7  and  C_8
REMARK    5  A    between atoms: C_9  and  C_10
REMARK    6  A    between atoms: C_10  and  C_12
REMARK    7  A    between atoms: C_14  and  O_15
REMARK    8  A    between atoms: O_15  and  C_16
REMARK    9  A    between atoms: C_17  and  O_18
REMARK   10  A    between atoms: O_18  and  C_19
REMARK   11  A    between atoms: C_20  and  O_21
REMARK   12  A    between atoms: O_21  and  C_22
REMARK   13  A    between atoms: C_25  and  O_26
REMARK                            x       y       z     vdW  Elec       q    Type
REMARK                         _______ _______ _______ _____ _____    ______ ____
ROOT
ATOM      1  C   UNL     1       1.598   9.947  17.842  0.00  0.00    +0.000 C 
ATOM      2  C   UNL     1       2.296   8.814  17.960  0.00  0.00    +0.000 C 
ENDROOT
BRANCH   1   3
ATOM      3  N   UNL     1       0.671  10.459  18.707  0.00  0.00    +0.000 N 
ATOM      4  H   UNL     1       1.020  10.646  19.650  0.00  0.00    +0.000 HD
BRANCH   3   8
ATOM      5  C   UNL     1      -3.484  10.991  18.076  0.00  0.00    +0.000 A 
ATOM      6  C   UNL     1      -2.770   9.992  17.402  0.00  0.00    +0.000 A 
ATOM      7  C   UNL     1      -1.394   9.823  17.605  0.00  0.00    +0.000 A 
ATOM      8  C   UNL     1      -0.697  10.655  18.487  0.00  0.00    +0.000 A 
ATOM      9  C   UNL     1      -1.419  11.649  19.153  0.00  0.00    +0.000 A 
ATOM     10  C   UNL     1      -2.787  11.824  18.954  0.00  0.00    +0.000 A 
BRANCH   5  12
ATOM     11  C   UNL     1      -5.263  12.068  16.920  0.00  0.00    +0.000 C 
ATOM     12  O   UNL     1      -4.819  11.023  17.778  0.00  0.00    +0.000 OA
ENDBRANCH   5  12
BRANCH  10  13
ATOM     13  O   UNL     1      -3.396  12.832  19.650  0.00  0.00    +0.000 OA
ATOM     14  H   UNL     1      -3.621  13.551  19.038  0.00  0.00    +0.000 HD
ENDBRANCH  10  13
ENDBRANCH   3   8
ENDBRANCH   1   3
BRANCH   2  15
ATOM     15  C   UNL     1       2.118   7.935  19.133  0.00  0.00    +0.000 C 
ATOM     16  O   UNL     1       1.525   8.297  20.149  0.00  0.00    +0.000 OA
BRANCH  15  17
ATOM     17  C   UNL     1       2.647   6.568  19.025  0.00  0.00    +0.000 A 
ATOM     18  C   UNL     1       3.379   6.150  17.912  0.00  0.00    +0.000 A 
ATOM     19  C   UNL     1       3.862   4.843  17.831  0.00  0.00    +0.000 A 
ATOM     20  C   UNL     1       3.617   3.951  18.904  0.00  0.00    +0.000 A 
ATOM     21  C   UNL     1       2.880   4.395  20.035  0.00  0.00    +0.000 A 
ATOM     22  C   UNL     1       2.405   5.703  20.085  0.00  0.00    +0.000 A 
BRANCH  19  23
ATOM     23  O   UNL     1       4.566   4.403  16.741  0.00  0.00    +0.000 OA
ATOM     24  C   UNL     1       5.376   5.328  16.025  0.00  0.00    +0.000 C 
ENDBRANCH  19  23
BRANCH  20  25
ATOM     25  O   UNL     1       4.032   2.641  18.992  0.00  0.00    +0.000 OA
ATOM     26  C   UNL     1       3.346   1.642  18.254  0.00  0.00    +0.000 C 
ENDBRANCH  20  25
BRANCH  21  27
ATOM     27  O   UNL     1       2.664   3.489  21.049  0.00  0.00    +0.000 OA
ATOM     28  C   UNL     1       1.334   2.998  21.206  0.00  0.00    +0.000 C 
ENDBRANCH  21  27
ENDBRANCH  15  17
ENDBRANCH   2  15
TORSDOF 9
ENDMDL
MODEL 4
REMARK VINA RESULT:      -7.0      5.677      9.647
REMARK  Name = 
REMARK  13 active torsions:
REMARK  status: ('A' for Active; 'I' for Inactive)
REMARK    1  A    between atoms: C_1  and  O_2
REMARK    2  A    between atoms: O_2  and  C_3
REMARK    3  A    between atoms: C_6  and  N_7
REMARK    4  A    between atoms: N_7  and  C_8
REMARK    5  A    between atoms: C_9  and  C_10
REMARK    6  A    between atoms: C_10  and  C_12
REMARK    7  A    between atoms: C_14  and  O_15
REMARK    8  A    between atoms: O_15  and  C_16
REMARK    9  A    between atoms: C_17  and  O_18
REMARK   10  A    between atoms: O_18  and  C_19
REMARK   11  A    between atoms: C_20  and  O_21
REMARK   12  A    between atoms: O_21  and  C_22
REMARK   13  A    between atoms: C_25  and  O_26
REMARK                            x       y       z     vdW  Elec       q    Type
REMARK                         _______ _______ _______ _____ _____    ______ ____
ROOT
ATOM      1  C   UNL     1       2.318   8.382  18.044  0.00  0.00    +0.000 C 
ATOM      2  C   UNL     1       1.559   9.475  17.926  0.00  0.00    +0.000 C 
ENDROOT
BRANCH   1   3
ATOM      3  N   UNL     1       2.397   7.523  19.105  0.00  0.00    +0.000 N 
ATOM      4  H   UNL     1       2.585   7.968  20.006  0.00  0.00    +0.000 HD
BRANCH   3   8
ATOM      5  C   UNL     1       2.335   3.287  19.020  0.00  0.00    +0.000 A 
ATOM      6  C   UNL     1       2.283   4.038  17.839  0.00  0.00    +0.000 A 
ATOM      7  C   UNL     1       2.295   5.438  17.869  0.00  0.00    +0.000 A 
ATOM      8  C   UNL     1       2.355   6.123  19.086  0.00  0.00    +0.000 A 
ATOM      9  C   UNL     1       2.405   5.366  20.259  0.00  0.00    +0.000 A 
ATOM     10  C   UNL     1       2.392   3.972  20.236  0.00  0.00    +0.000 A 
BRANCH   5  12
ATOM     11  C   UNL     1       3.584   1.307  18.597  0.00  0.00    +0.000 C 
ATOM     12  O   UNL     1       2.326   1.933  18.825  0.00  0.00    +0.000 OA
ENDBRANCH   5  12
BRANCH  10  13
ATOM     13  O   UNL     1       2.437   3.327  21.442  0.00  0.00    +0.000 OA
ATOM     14  H   UNL     1       3.360   3.114  21.656  0.00  0.00    +0.000 HD
ENDBRANCH  10  13
ENDBRANCH   3   8
ENDBRANCH   1   3
BRANCH   2  15
ATOM     15  C   UNL     1       0.659   9.893  19.019  0.00  0.00    +0.000 C 
ATOM     16  O   UNL     1       1.010   9.906  20.199  0.00  0.00    +0.000 OA
BRANCH  15  17
ATOM     17  C   UNL     1      -0.687  10.343  18.635  0.00  0.00    +0.000 A 
ATOM     18  C   UNL     1      -1.344   9.825  17.518  0.00  0.00    +0.000 A 
ATOM     19  C   UNL     1      -2.619  10.277  17.172  0.00  0.00    +0.000 A 
ATOM     20  C   UNL     1      -3.244  11.257  17.981  0.00  0.00    +0.000 A 
ATOM     21  C   UNL     1      -2.566  11.767  19.121  0.00  0.00    +0.000 A 
ATOM     22  C   UNL     1      -1.293  11.302  19.438  0.00  0.00    +0.000 A 
BRANCH  19  23
ATOM     23  O   UNL     1      -3.276   9.798  16.070  0.00  0.00    +0.000 OA
ATOM     24  C   UNL     1      -3.075  10.436  14.814  0.00  0.00    +0.000 C 
ENDBRANCH  19  23
BRANCH  20  25
ATOM     25  O   UNL     1      -4.496  11.799  17.791  0.00  0.00    +0.000 OA
ATOM     26  C   UNL     1      -5.643  11.041  18.140  0.00  0.00    +0.000 C 
ENDBRANCH  20  25
BRANCH  21  27
ATOM     27  O   UNL     1      -3.215  12.722  19.871  0.00  0.00    +0.000 OA
ATOM     28  C   UNL     1      -2.398  13.654  20.579  0.00  0.00    +0.000 C 
ENDBRANCH  21  27
ENDBRANCH  15  17
ENDBRANCH   2  15
TORSDOF 9
ENDMDL
MODEL 5
REMARK VINA RESULT:      -7.0      5.247      8.726
REMARK  Name = 
REMARK  13 active torsions:
REMARK  status: ('A' for Active; 'I' for Inactive)
REMARK    1  A    between atoms: C_1  and  O_2
REMARK    2  A    between atoms: O_2  and  C_3
REMARK    3  A    between atoms: C_6  and  N_7
REMARK    4  A    between atoms: N_7  and  C_8
REMARK    5  A    between atoms: C_9  and  C_10
REMARK    6  A    between atoms: C_10  and  C_12
REMARK    7  A    between atoms: C_14  and  O_15
REMARK    8  A    between atoms: O_15  and  C_16
REMARK    9  A    between atoms: C_17  and  O_18
REMARK   10  A    between atoms: O_18  and  C_19
REMARK   11  A    between atoms: C_20  and  O_21
REMARK   12  A    between atoms: O_21  and  C_22
REMARK   13  A    between atoms: C_25  and  O_26
REMARK                            x       y       z     vdW  Elec       q    Type
REMARK                         _______ _______ _______ _____ _____    ______ ____
ROOT
ATOM      1  C   UNL     1       0.395   9.785  19.173  0.00  0.00    +0.000 C 
ATOM      2  C   UNL     1       1.450   9.001  19.415  0.00  0.00    +0.000 C 
ENDROOT
BRANCH   1   3
ATOM      3  N   UNL     1      -0.164  10.094  17.964  0.00  0.00    +0.000 N 
ATOM      4  H   UNL     1       0.495  10.137  17.184  0.00  0.00    +0.000 HD
BRANCH   3   8
ATOM      5  C   UNL     1      -4.156  11.254  17.145  0.00  0.00    +0.000 A 
ATOM      6  C   UNL     1      -3.546  11.565  18.367  0.00  0.00    +0.000 A 
ATOM      7  C   UNL     1      -2.229  11.174  18.640  0.00  0.00    +0.000 A 
ATOM      8  C   UNL     1      -1.490  10.455  17.695  0.00  0.00    +0.000 A 
ATOM      9  C   UNL     1      -2.108  10.148  16.480  0.00  0.00    +0.000 A 
ATOM     10  C   UNL     1      -3.418  10.534  16.203  0.00  0.00    +0.000 A 
BRANCH   5  12
ATOM     11  C   UNL     1      -5.881  12.647  18.005  0.00  0.00    +0.000 C 
ATOM     12  O   UNL     1      -5.439  11.713  17.027  0.00  0.00    +0.000 OA
ENDBRANCH   5  12
BRANCH  10  13
ATOM     13  O   UNL     1      -3.931  10.175  14.986  0.00  0.00    +0.000 OA
ATOM     14  H   UNL     1      -4.886  10.027  15.074  0.00  0.00    +0.000 HD
ENDBRANCH  10  13
ENDBRANCH   3   8
ENDBRANCH   1   3
BRANCH   2  15
ATOM     15  C   UNL     1       2.170   8.340  18.308  0.00  0.00    +0.000 C 
ATOM     16  O   UNL     1       2.370   8.889  17.225  0.00  0.00    +0.000 OA
BRANCH  15  17
ATOM     17  C   UNL     1       2.690   6.989  18.567  0.00  0.00    +0.000 A 
ATOM     18  C   UNL     1       2.335   6.273  19.712  0.00  0.00    +0.000 A 
ATOM     19  C   UNL     1       2.851   4.996  19.937  0.00  0.00    +0.000 A 
ATOM     20  C   UNL     1       3.725   4.427  18.977  0.00  0.00    +0.000 A 
ATOM     21  C   UNL     1       4.067   5.165  17.813  0.00  0.00    +0.000 A 
ATOM     22  C   UNL     1       3.543   6.440  17.618  0.00  0.00    +0.000 A 
BRANCH  19  23
ATOM     23  O   UNL     1       2.533   4.281  21.061  0.00  0.00    +0.000 OA
ATOM     24  C   UNL     1       1.357   3.479  21.059  0.00  0.00    +0.000 C 
ENDBRANCH  19  23
BRANCH  20  25
ATOM     25  O   UNL     1       4.307   3.181  19.037  0.00  0.00    +0.000 OA
ATOM     26  C   UNL     1       3.585   2.052  18.570  0.00  0.00    +0.000 C 
ENDBRANCH  20  25
BRANCH  21  27
ATOM     27  O   UNL     1       4.924   4.571  16.913  0.00  0.00    +0.000 OA
ATOM     28  C   UNL     1       5.500   5.411  15.915  0.00  0.00    +0.000 C 
ENDBRANCH  21  27
ENDBRANCH  15  17
ENDBRANCH   2  15
TORSDOF 9
ENDMDL
MODEL 6
REMARK VINA RESULT:      -7.0      1.344      3.052
REMARK  Name = 
REMARK  13 active torsions:
REMARK  status: ('A' for Active; 'I' for Inactive)
REMARK    1  A    between atoms: C_1  and  O_2
REMARK    2  A    between atoms: O_2  and  C_3
REMARK    3  A    between atoms: C_6  and  N_7
REMARK    4  A    between atoms: N_7  and  C_8
REMARK    5  A    between atoms: C_9  and  C_10
REMARK    6  A    between atoms: C_10  and  C_12
REMARK    7  A    between atoms: C_14  and  O_15
REMARK    8  A    between atoms: O_15  and  C_16
REMARK    9  A    between atoms: C_17  and  O_18
REMARK   10  A    between atoms: O_18  and  C_19
REMARK   11  A    between atoms: C_20  and  O_21
REMARK   12  A    between atoms: O_21  and  C_22
REMARK   13  A    between atoms: C_25  and  O_26
REMARK                            x       y       z     vdW  Elec       q    Type
REMARK                         _______ _______ _______ _____ _____    ______ ____
ROOT
ATOM      1  C   UNL     1       8.022   7.955  17.536  0.00  0.00    +0.000 C 
ATOM      2  C   UNL     1       7.366   6.801  17.384  0.00  0.00    +0.000 C 
ENDROOT
BRANCH   1   3
ATOM      3  N   UNL     1       8.503   8.504  18.692  0.00  0.00    +0.000 N 
ATOM      4  H   UNL     1       8.489   7.881  19.502  0.00  0.00    +0.000 HD
BRANCH   3   8
ATOM      5  C   UNL     1       9.657  12.526  19.360  0.00  0.00    +0.000 A 
ATOM      6  C   UNL     1       9.273  12.082  18.088  0.00  0.00    +0.000 A 
ATOM      7  C   UNL     1       8.900  10.750  17.867  0.00  0.00    +0.000 A 
ATOM      8  C   UNL     1       8.906   9.826  18.916  0.00  0.00    +0.000 A 
ATOM      9  C   UNL     1       9.292  10.278  20.180  0.00  0.00    +0.000 A 
ATOM     10  C   UNL     1       9.666  11.601  20.407  0.00  0.00    +0.000 A 
BRANCH   5  12
ATOM     11  C   UNL     1      10.401  14.465  18.201  0.00  0.00    +0.000 C 
ATOM     12  O   UNL     1       9.982  13.853  19.416  0.00  0.00    +0.000 OA
ENDBRANCH   5  12
BRANCH  10  13
ATOM     13  O   UNL     1      10.034  11.937  21.681  0.00  0.00    +0.000 OA
ATOM     14  H   UNL     1      10.168  11.127  22.198  0.00  0.00    +0.000 HD
ENDBRANCH  10  13
ENDBRANCH   3   8
ENDBRANCH   1   3
BRANCH   2  15
ATOM     15  C   UNL     1       7.073   5.939  18.547  0.00  0.00    +0.000 C 
ATOM     16  O   UNL     1       7.913   5.678  19.407  0.00  0.00    +0.000 OA
BRANCH  15  17
ATOM     17  C   UNL     1       5.699   5.429  18.665  0.00  0.00    +0.000 A 
ATOM     18  C   UNL     1       5.434   4.125  19.088  0.00  0.00    +0.000 A 
ATOM     19  C   UNL     1       4.120   3.664  19.183  0.00  0.00    +0.000 A 
ATOM     20  C   UNL     1       3.057   4.544  18.863  0.00  0.00    +0.000 A 
ATOM     21  C   UNL     1       3.343   5.871  18.445  0.00  0.00    +0.000 A 
ATOM     22  C   UNL     1       4.664   6.301  18.354  0.00  0.00    +0.000 A 
BRANCH  19  23
ATOM     23  O   UNL     1       3.835   2.383  19.577  0.00  0.00    +0.000 OA
ATOM     24  C   UNL     1       3.624   1.387  18.583  0.00  0.00    +0.000 C 
ENDBRANCH  19  23
BRANCH  20  25
ATOM     25  O   UNL     1       1.712   4.257  18.917  0.00  0.00    +0.000 OA
ATOM     26  C   UNL     1       1.058   4.214  20.176  0.00  0.00    +0.000 C 
ENDBRANCH  20  25
BRANCH  21  27
ATOM     27  O   UNL     1       2.276   6.686  18.141  0.00  0.00    +0.000 OA
ATOM     28  C   UNL     1       2.196   7.933  18.829  0.00  0.00    +0.000 C 
ENDBRANCH  21  27
ENDBRANCH  15  17
ENDBRANCH   2  15
TORSDOF 9
ENDMDL
MODEL 7
REMARK VINA RESULT:      -7.0      5.172      8.631
REMARK  Name = 
REMARK  13 active torsions:
REMARK  status: ('A' for Active; 'I' for Inactive)
REMARK    1  A    between atoms: C_1  and  O_2
REMARK    2  A    between atoms: O_2  and  C_3
REMARK    3  A    between atoms: C_6  and  N_7
REMARK    4  A    between atoms: N_7  and  C_8
REMARK    5  A    between atoms: C_9  and  C_10
REMARK    6  A    between atoms: C_10  and  C_12
REMARK    7  A    between atoms: C_14  and  O_15
REMARK    8  A    between atoms: O_15  and  C_16
REMARK    9  A    between atoms: C_17  and  O_18
REMARK   10  A    between atoms: O_18  and  C_19
REMARK   11  A    between atoms: C_20  and  O_21
REMARK   12  A    between atoms: O_21  and  C_22
REMARK   13  A    between atoms: C_25  and  O_26
REMARK                            x       y       z     vdW  Elec       q    Type
REMARK                         _______ _______ _______ _____ _____    ______ ____
ROOT
ATOM      1  C   UNL     1       0.599   9.569  19.761  0.00  0.00    +0.000 C 
ATOM      2  C   UNL     1       1.540   8.629  19.884  0.00  0.00    +0.000 C 
ENDROOT
BRANCH   1   3
ATOM      3  N   UNL     1       0.110  10.127  18.612  0.00  0.00    +0.000 N 
ATOM      4  H   UNL     1       0.819  10.360  17.913  0.00  0.00    +0.000 HD
BRANCH   3   8
ATOM      5  C   UNL     1      -3.902  11.208  17.785  0.00  0.00    +0.000 A 
ATOM      6  C   UNL     1      -3.261  10.190  17.066  0.00  0.00    +0.000 A 
ATOM      7  C   UNL     1      -1.932   9.840  17.335  0.00  0.00    +0.000 A 
ATOM      8  C   UNL     1      -1.208  10.504  18.330  0.00  0.00    +0.000 A 
ATOM      9  C   UNL     1      -1.856  11.518  19.040  0.00  0.00    +0.000 A 
ATOM     10  C   UNL     1      -3.178  11.873  18.776  0.00  0.00    +0.000 A 
BRANCH   5  12
ATOM     11  C   UNL     1      -6.211  10.875  18.250  0.00  0.00    +0.000 C 
ATOM     12  O   UNL     1      -5.200  11.425  17.412  0.00  0.00    +0.000 OA
ENDBRANCH   5  12
BRANCH  10  13
ATOM     13  O   UNL     1      -3.714  12.886  19.524  0.00  0.00    +0.000 OA
ATOM     14  H   UNL     1      -4.431  13.306  19.023  0.00  0.00    +0.000 HD
ENDBRANCH  10  13
ENDBRANCH   3   8
ENDBRANCH   1   3
BRANCH   2  15
ATOM     15  C   UNL     1       2.196   8.055  18.692  0.00  0.00    +0.000 C 
ATOM     16  O   UNL     1       2.367   8.697  17.656  0.00  0.00    +0.000 OA
BRANCH  15  17
ATOM     17  C   UNL     1       2.685   6.674  18.804  0.00  0.00    +0.000 A 
ATOM     18  C   UNL     1       2.364   5.867  19.897  0.00  0.00    +0.000 A 
ATOM     19  C   UNL     1       2.850   4.561  19.982  0.00  0.00    +0.000 A 
ATOM     20  C   UNL     1       3.659   4.059  18.934  0.00  0.00    +0.000 A 
ATOM     21  C   UNL     1       3.969   4.889  17.823  0.00  0.00    +0.000 A 
ATOM     22  C   UNL     1       3.475   6.189  17.768  0.00  0.00    +0.000 A 
BRANCH  19  23
ATOM     23  O   UNL     1       2.564   3.757  21.053  0.00  0.00    +0.000 OA
ATOM     24  C   UNL     1       1.294   3.117  21.116  0.00  0.00    +0.000 C 
ENDBRANCH  19  23
BRANCH  20  25
ATOM     25  O   UNL     1       4.205   2.798  18.853  0.00  0.00    +0.000 OA
ATOM     26  C   UNL     1       3.406   1.721  18.389  0.00  0.00    +0.000 C 
ENDBRANCH  20  25
BRANCH  21  27
ATOM     27  O   UNL     1       4.763   4.356  16.833  0.00  0.00    +0.000 OA
ATOM     28  C   UNL     1       6.057   4.932  16.660  0.00  0.00    +0.000 C 
ENDBRANCH  21  27
ENDBRANCH  15  17
ENDBRANCH   2  15
TORSDOF 9
ENDMDL
MODEL 8
REMARK VINA RESULT:      -7.0      0.939      2.925
REMARK  Name = 
REMARK  13 active torsions:
REMARK  status: ('A' for Active; 'I' for Inactive)
REMARK    1  A    between atoms: C_1  and  O_2
REMARK    2  A    between atoms: O_2  and  C_3
REMARK    3  A    between atoms: C_6  and  N_7
REMARK    4  A    between atoms: N_7  and  C_8
REMARK    5  A    between atoms: C_9  and  C_10
REMARK    6  A    between atoms: C_10  and  C_12
REMARK    7  A    between atoms: C_14  and  O_15
REMARK    8  A    between atoms: O_15  and  C_16
REMARK    9  A    between atoms: C_17  and  O_18
REMARK   10  A    between atoms: O_18  and  C_19
REMARK   11  A    between atoms: C_20  and  O_21
REMARK   12  A    between atoms: O_21  and  C_22
REMARK   13  A    between atoms: C_25  and  O_26
REMARK                            x       y       z     vdW  Elec       q    Type
REMARK                         _______ _______ _______ _____ _____    ______ ____
ROOT
ATOM      1  C   UNL     1       8.457   7.576  18.747  0.00  0.00    +0.000 C 
ATOM      2  C   UNL     1       7.908   6.377  18.530  0.00  0.00    +0.000 C 
ENDROOT
BRANCH   1   3
ATOM      3  N   UNL     1       8.234   8.740  18.066  0.00  0.00    +0.000 N 
ATOM      4  H   UNL     1       7.761   8.628  17.167  0.00  0.00    +0.000 HD
BRANCH   3   8
ATOM      5  C   UNL     1       9.466  12.662  19.090  0.00  0.00    +0.000 A 
ATOM      6  C   UNL     1       8.753  12.410  17.911  0.00  0.00    +0.000 A 
ATOM      7  C   UNL     1       8.354  11.111  17.570  0.00  0.00    +0.000 A 
ATOM      8  C   UNL     1       8.663  10.030  18.400  0.00  0.00    +0.000 A 
ATOM      9  C   UNL     1       9.376  10.292  19.573  0.00  0.00    +0.000 A 
ATOM     10  C   UNL     1       9.777  11.582  19.918  0.00  0.00    +0.000 A 
BRANCH   5  12
ATOM     11  C   UNL     1       8.726  14.824  19.752  0.00  0.00    +0.000 C 
ATOM     12  O   UNL     1       9.774  13.981  19.288  0.00  0.00    +0.000 OA
ENDBRANCH   5  12
BRANCH  10  13
ATOM     13  O   UNL     1      10.477  11.727  21.085  0.00  0.00    +0.000 OA
ATOM     14  H   UNL     1      10.427  12.653  21.373  0.00  0.00    +0.000 HD
ENDBRANCH  10  13
ENDBRANCH   3   8
ENDBRANCH   1   3
BRANCH   2  15
ATOM     15  C   UNL     1       6.928   6.181  17.443  0.00  0.00    +0.000 C 
ATOM     16  O   UNL     1       7.201   6.380  16.259  0.00  0.00    +0.000 OA
BRANCH  15  17
ATOM     17  C   UNL     1       5.599   5.685  17.830  0.00  0.00    +0.000 A 
ATOM     18  C   UNL     1       5.410   4.389  18.312  0.00  0.00    +0.000 A 
ATOM     19  C   UNL     1       4.135   3.942  18.663  0.00  0.00    +0.000 A 
ATOM     20  C   UNL     1       3.037   4.830  18.543  0.00  0.00    +0.000 A 
ATOM     21  C   UNL     1       3.248   6.149  18.061  0.00  0.00    +0.000 A 
ATOM     22  C   UNL     1       4.530   6.565  17.712  0.00  0.00    +0.000 A 
BRANCH  19  23
ATOM     23  O   UNL     1       3.921   2.669  19.120  0.00  0.00    +0.000 OA
ATOM     24  C   UNL     1       3.452   1.679  18.212  0.00  0.00    +0.000 C 
ENDBRANCH  19  23
BRANCH  20  25
ATOM     25  O   UNL     1       1.725   4.557  18.858  0.00  0.00    +0.000 OA
ATOM     26  C   UNL     1       1.338   4.475  20.220  0.00  0.00    +0.000 C 
ENDBRANCH  20  25
BRANCH  21  27
ATOM     27  O   UNL     1       2.148   6.971  17.957  0.00  0.00    +0.000 OA
ATOM     28  C   UNL     1       2.394   8.373  17.861  0.00  0.00    +0.000 C 
ENDBRANCH  21  27
ENDBRANCH  15  17
ENDBRANCH   2  15
TORSDOF 9
ENDMDL
MODEL 9
REMARK VINA RESULT:      -6.9      5.313      8.175
REMARK  Name = 
REMARK  13 active torsions:
REMARK  status: ('A' for Active; 'I' for Inactive)
REMARK    1  A    between atoms: C_1  and  O_2
REMARK    2  A    between atoms: O_2  and  C_3
REMARK    3  A    between atoms: C_6  and  N_7
REMARK    4  A    between atoms: N_7  and  C_8
REMARK    5  A    between atoms: C_9  and  C_10
REMARK    6  A    between atoms: C_10  and  C_12
REMARK    7  A    between atoms: C_14  and  O_15
REMARK    8  A    between atoms: O_15  and  C_16
REMARK    9  A    between atoms: C_17  and  O_18
REMARK   10  A    between atoms: O_18  and  C_19
REMARK   11  A    between atoms: C_20  and  O_21
REMARK   12  A    between atoms: O_21  and  C_22
REMARK   13  A    between atoms: C_25  and  O_26
REMARK                            x       y       z     vdW  Elec       q    Type
REMARK                         _______ _______ _______ _____ _____    ______ ____
ROOT
ATOM      1  C   UNL     1       1.780   9.494  17.881  0.00  0.00    +0.000 C 
ATOM      2  C   UNL     1       2.374   8.315  18.087  0.00  0.00    +0.000 C 
ENDROOT
BRANCH   1   3
ATOM      3  N   UNL     1       0.974  10.191  18.737  0.00  0.00    +0.000 N 
ATOM      4  H   UNL     1       1.397  10.413  19.641  0.00  0.00    +0.000 HD
BRANCH   3   8
ATOM      5  C   UNL     1      -3.079  11.299  18.192  0.00  0.00    +0.000 A 
ATOM      6  C   UNL     1      -2.296  11.882  19.197  0.00  0.00    +0.000 A 
ATOM      7  C   UNL     1      -0.959  11.508  19.382  0.00  0.00    +0.000 A 
ATOM      8  C   UNL     1      -0.372  10.536  18.565  0.00  0.00    +0.000 A 
ATOM      9  C   UNL     1      -1.162   9.961  17.567  0.00  0.00    +0.000 A 
ATOM     10  C   UNL     1      -2.494  10.327  17.379  0.00  0.00    +0.000 A 
BRANCH   5  12
ATOM     11  C   UNL     1      -4.905  12.308  19.336  0.00  0.00    +0.000 C 
ATOM     12  O   UNL     1      -4.360  11.777  18.133  0.00  0.00    +0.000 OA
ENDBRANCH   5  12
BRANCH  10  13
ATOM     13  O   UNL     1      -3.180   9.696  16.377  0.00  0.00    +0.000 OA
ATOM     14  H   UNL     1      -2.866  10.025  15.520  0.00  0.00    +0.000 HD
ENDBRANCH  10  13
ENDBRANCH   3   8
ENDBRANCH   1   3
BRANCH   2  15
ATOM     15  C   UNL     1       2.202   7.594  19.364  0.00  0.00    +0.000 C 
ATOM     16  O   UNL     1       1.689   8.113  20.355  0.00  0.00    +0.000 OA
BRANCH  15  17
ATOM     17  C   UNL     1       2.636   6.189  19.397  0.00  0.00    +0.000 A 
ATOM     18  C   UNL     1       1.816   5.180  19.905  0.00  0.00    +0.000 A 
ATOM     19  C   UNL     1       2.257   3.856  19.932  0.00  0.00    +0.000 A 
ATOM     20  C   UNL     1       3.540   3.547  19.418  0.00  0.00    +0.000 A 
ATOM     21  C   UNL     1       4.358   4.584  18.895  0.00  0.00    +0.000 A 
ATOM     22  C   UNL     1       3.894   5.897  18.886  0.00  0.00    +0.000 A 
BRANCH  19  23
ATOM     23  O   UNL     1       1.479   2.850  20.443  0.00  0.00    +0.000 OA
ATOM     24  C   UNL     1       1.568   2.546  21.830  0.00  0.00    +0.000 C 
ENDBRANCH  19  23
BRANCH  20  25
ATOM     25  O   UNL     1       4.119   2.299  19.356  0.00  0.00    +0.000 OA
ATOM     26  C   UNL     1       3.659   1.365  18.392  0.00  0.00    +0.000 C 
ENDBRANCH  20  25
BRANCH  21  27
ATOM     27  O   UNL     1       5.599   4.233  18.412  0.00  0.00    +0.000 OA
ATOM     28  C   UNL     1       5.825   4.413  17.015  0.00  0.00    +0.000 C 
ENDBRANCH  21  27
ENDBRANCH  15  17
ENDBRANCH   2  15
TORSDOF 9
ENDMDL
