MODEL 1
REMARK VINA RESULT:      -8.2      0.000      0.000
REMARK  Name = 
REMARK  9 active torsions:
REMARK  status: ('A' for Active; 'I' for Inactive)
REMARK    1  A    between atoms: C_1  and  C_2
REMARK    2  A    between atoms: C_2  and  C_3
REMARK    3  A    between atoms: C_3  and  C_4
REMARK    4  A    between atoms: C_4  and  N_5
REMARK    5  A    between atoms: N_5  and  C_6
REMARK    6  A    between atoms: C_6  and  C_7
REMARK    7  A    between atoms: C_7  and  C_8
REMARK    8  A    between atoms: C_7  and  C_28
REMARK    9  A    between atoms: N_13  and  C_14
REMARK                            x       y       z     vdW  Elec       q    Type
REMARK                         _______ _______ _______ _____ _____    ______ ____
ROOT
ATOM      1  C   UNL     1       2.071   8.666  18.296  0.00  0.00    +0.000 C 
ATOM      2  O   UNL     1       2.450   9.013  17.167  0.00  0.00    +0.000 OA
ATOM      3  N   UNL     1       1.551   9.609  19.166  0.00  0.00    +0.000 N 
ATOM      4  C   UNL     1       1.298  10.961  18.662  0.00  0.00    +0.000 C 
ATOM      5  C   UNL     1      -0.203  11.286  18.708  0.00  0.00    +0.000 C 
ATOM      6  N   UNL     1      -0.762  11.019  20.029  0.00  0.00    +0.000 N 
ATOM      7  C   UNL     1      -0.470   9.704  20.615  0.00  0.00    +0.000 C 
ATOM      8  C   UNL     1       1.042   9.416  20.532  0.00  0.00    +0.000 C 
ENDROOT
BRANCH   6   9
ATOM      9  C   UNL     1      -1.689  11.840  20.634  0.00  0.00    +0.000 A 
ATOM     10  N   UNL     1      -1.322  12.371  21.833  0.00  0.00    +0.000 NA
ATOM     11  C   UNL     1      -2.111  13.266  22.441  0.00  0.00    +0.000 A 
ATOM     12  N   UNL     1      -3.287  13.723  22.024  0.00  0.00    +0.000 NA
ATOM     13  C   UNL     1      -3.670  13.157  20.870  0.00  0.00    +0.000 A 
ATOM     14  S   UNL     1      -5.192  13.585  20.191  0.00  0.00    +0.000 S 
ATOM     15  C   UNL     1      -4.964  12.500  18.949  0.00  0.00    +0.000 A 
ATOM     16  C   UNL     1      -3.770  11.829  18.993  0.00  0.00    +0.000 A 
ATOM     17  C   UNL     1      -2.959  12.212  20.114  0.00  0.00    +0.000 A 
ATOM     18  C   UNL     1      -3.718  10.842  17.875  0.00  0.00    +0.000 C 
ATOM     19  C   UNL     1      -4.873  11.306  16.945  0.00  0.00    +0.000 C 
ATOM     20  C   UNL     1      -5.856  12.108  17.833  0.00  0.00    +0.000 C 
ENDBRANCH   6   9
BRANCH   1  21
ATOM     21  C   UNL     1       2.225   7.187  18.676  0.00  0.00    +0.000 C 
BRANCH  21  22
ATOM     22  C   UNL     1       3.212   6.362  17.848  0.00  0.00    +0.000 A 
ATOM     23  C   UNL     1       2.915   4.999  17.634  0.00  0.00    +0.000 A 
ATOM     24  C   UNL     1       3.790   4.166  16.939  0.00  0.00    +0.000 A 
ATOM     25  C   UNL     1       4.974   4.686  16.431  0.00  0.00    +0.000 A 
ATOM     26 CL   UNL     1       6.075   3.659  15.604  0.00  0.00    +0.000 Cl
ATOM     27  C   UNL     1       5.270   6.038  16.591  0.00  0.00    +0.000 A 
ATOM     28  C   UNL     1       4.386   6.874  17.278  0.00  0.00    +0.000 A 
ENDBRANCH  21  22
BRANCH  21  29
ATOM     29  C   UNL     1       2.372   6.923  20.199  0.00  0.00    +0.000 C 
BRANCH  29  30
ATOM     30  N   UNL     1       1.538   5.862  20.778  0.00  0.00    +0.000 NA
ATOM     31  H   UNL     1       1.139   6.199  21.657  0.00  0.00    +0.000 HD
BRANCH  30  32
ATOM     32  C   UNL     1       2.290   4.633  21.048  0.00  0.00    +0.000 C 
BRANCH  32  33
ATOM     33  C   UNL     1       1.362   3.417  21.095  0.00  0.00    +0.000 C 
BRANCH  33  35
ATOM     34  C   UNL     1       0.728   2.449  18.858  0.00  0.00    +0.000 C 
ATOM     35  C   UNL     1       1.702   2.380  20.022  0.00  0.00    +0.000 C 
ENDBRANCH  33  35
ENDBRANCH  32  33
ENDBRANCH  30  32
ENDBRANCH  29  30
ENDBRANCH  21  29
ENDBRANCH   1  21
TORSDOF 8
ENDMDL
MODEL 2
REMARK VINA RESULT:      -8.2      3.663      9.046
REMARK  Name = 
REMARK  9 active torsions:
REMARK  status: ('A' for Active; 'I' for Inactive)
REMARK    1  A    between atoms: C_1  and  C_2
REMARK    2  A    between atoms: C_2  and  C_3
REMARK    3  A    between atoms: C_3  and  C_4
REMARK    4  A    between atoms: C_4  and  N_5
REMARK    5  A    between atoms: N_5  and  C_6
REMARK    6  A    between atoms: C_6  and  C_7
REMARK    7  A    between atoms: C_7  and  C_8
REMARK    8  A    between atoms: C_7  and  C_28
REMARK    9  A    between atoms: N_13  and  C_14
REMARK                            x       y       z     vdW  Elec       q    Type
REMARK                         _______ _______ _______ _____ _____    ______ ____
ROOT
ATOM      1  C   UNL     1      -0.257  10.597  20.849  0.00  0.00    +0.000 C 
ATOM      2  O   UNL     1      -0.656  10.279  21.980  0.00  0.00    +0.000 OA
ATOM      3  N   UNL     1       0.910  10.043  20.352  0.00  0.00    +0.000 N 
ATOM      4  C   UNL     1       1.547   8.959  21.106  0.00  0.00    +0.000 C 
ATOM      5  C   UNL     1       1.547   7.657  20.290  0.00  0.00    +0.000 C 
ATOM      6  N   UNL     1       2.096   7.868  18.955  0.00  0.00    +0.000 N 
ATOM      7  C   UNL     1       1.547   8.993  18.188  0.00  0.00    +0.000 C 
ATOM      8  C   UNL     1       1.552  10.271  19.049  0.00  0.00    +0.000 C 
ENDROOT
BRANCH   6   9
ATOM      9  C   UNL     1       2.928   6.964  18.333  0.00  0.00    +0.000 A 
ATOM     10  N   UNL     1       3.805   7.485  17.429  0.00  0.00    +0.000 NA
ATOM     11  C   UNL     1       4.726   6.699  16.857  0.00  0.00    +0.000 A 
ATOM     12  N   UNL     1       4.904   5.395  17.042  0.00  0.00    +0.000 NA
ATOM     13  C   UNL     1       4.004   4.876  17.890  0.00  0.00    +0.000 A 
ATOM     14  S   UNL     1       4.042   3.188  18.221  0.00  0.00    +0.000 S 
ATOM     15  C   UNL     1       2.699   3.330  19.195  0.00  0.00    +0.000 A 
ATOM     16  C   UNL     1       2.218   4.609  19.316  0.00  0.00    +0.000 A 
ATOM     17  C   UNL     1       2.987   5.563  18.569  0.00  0.00    +0.000 A 
ATOM     18  C   UNL     1       0.981   4.592  20.149  0.00  0.00    +0.000 C 
ATOM     19  C   UNL     1       1.030   3.191  20.822  0.00  0.00    +0.000 C 
ATOM     20  C   UNL     1       1.914   2.300  19.914  0.00  0.00    +0.000 C 
ENDBRANCH   6   9
BRANCH   1  21
ATOM     21  C   UNL     1      -1.086  11.622  20.063  0.00  0.00    +0.000 C 
BRANCH  21  22
ATOM     22  C   UNL     1      -1.738  11.133  18.768  0.00  0.00    +0.000 A 
ATOM     23  C   UNL     1      -1.729  12.002  17.657  0.00  0.00    +0.000 A 
ATOM     24  C   UNL     1      -2.351  11.654  16.458  0.00  0.00    +0.000 A 
ATOM     25  C   UNL     1      -2.980  10.421  16.345  0.00  0.00    +0.000 A 
ATOM     26 CL   UNL     1      -3.779   9.998  14.884  0.00  0.00    +0.000 Cl
ATOM     27  C   UNL     1      -2.965   9.527  17.413  0.00  0.00    +0.000 A 
ATOM     28  C   UNL     1      -2.331   9.872  18.609  0.00  0.00    +0.000 A 
ENDBRANCH  21  22
BRANCH  21  29
ATOM     29  C   UNL     1      -2.061  12.465  20.929  0.00  0.00    +0.000 C 
BRANCH  29  30
ATOM     30  N   UNL     1      -3.491  12.149  20.825  0.00  0.00    +0.000 NA
ATOM     31  H   UNL     1      -3.650  11.616  19.967  0.00  0.00    +0.000 HD
BRANCH  30  32
ATOM     32  C   UNL     1      -4.336  13.347  20.793  0.00  0.00    +0.000 C 
BRANCH  32  33
ATOM     33  C   UNL     1      -5.307  13.306  19.611  0.00  0.00    +0.000 C 
BRANCH  33  35
ATOM     34  C   UNL     1      -6.066  11.939  17.636  0.00  0.00    +0.000 C 
ATOM     35  C   UNL     1      -5.459  11.900  19.028  0.00  0.00    +0.000 C 
ENDBRANCH  33  35
ENDBRANCH  32  33
ENDBRANCH  30  32
ENDBRANCH  29  30
ENDBRANCH  21  29
ENDBRANCH   1  21
TORSDOF 8
ENDMDL
MODEL 3
REMARK VINA RESULT:      -8.1      4.298      9.349
REMARK  Name = 
REMARK  9 active torsions:
REMARK  status: ('A' for Active; 'I' for Inactive)
REMARK    1  A    between atoms: C_1  and  C_2
REMARK    2  A    between atoms: C_2  and  C_3
REMARK    3  A    between atoms: C_3  and  C_4
REMARK    4  A    between atoms: C_4  and  N_5
REMARK    5  A    between atoms: N_5  and  C_6
REMARK    6  A    between atoms: C_6  and  C_7
REMARK    7  A    between atoms: C_7  and  C_8
REMARK    8  A    between atoms: C_7  and  C_28
REMARK    9  A    between atoms: N_13  and  C_14
REMARK                            x       y       z     vdW  Elec       q    Type
REMARK                         _______ _______ _______ _____ _____    ______ ____
ROOT
ATOM      1  C   UNL     1      -0.228  10.258  20.494  0.00  0.00    +0.000 C 
ATOM      2  O   UNL     1      -0.530  10.014  21.673  0.00  0.00    +0.000 OA
ATOM      3  N   UNL     1       0.955   9.766  19.972  0.00  0.00    +0.000 N 
ATOM      4  C   UNL     1       1.735   8.820  20.776  0.00  0.00    +0.000 C 
ATOM      5  C   UNL     1       1.812   7.451  20.082  0.00  0.00    +0.000 C 
ATOM      6  N   UNL     1       2.261   7.583  18.700  0.00  0.00    +0.000 N 
ATOM      7  C   UNL     1       1.564   8.576  17.873  0.00  0.00    +0.000 C 
ATOM      8  C   UNL     1       1.498   9.925  18.615  0.00  0.00    +0.000 C 
ENDROOT
BRANCH   6   9
ATOM      9  C   UNL     1       3.138   6.702  18.107  0.00  0.00    +0.000 A 
ATOM     10  N   UNL     1       4.080   7.255  17.293  0.00  0.00    +0.000 NA
ATOM     11  C   UNL     1       5.042   6.490  16.761  0.00  0.00    +0.000 A 
ATOM     12  N   UNL     1       5.207   5.180  16.908  0.00  0.00    +0.000 NA
ATOM     13  C   UNL     1       4.246   4.630  17.666  0.00  0.00    +0.000 A 
ATOM     14  S   UNL     1       4.260   2.930  17.933  0.00  0.00    +0.000 S 
ATOM     15  C   UNL     1       2.847   3.038  18.808  0.00  0.00    +0.000 A 
ATOM     16  C   UNL     1       2.357   4.311  18.941  0.00  0.00    +0.000 A 
ATOM     17  C   UNL     1       3.180   5.292  18.292  0.00  0.00    +0.000 A 
ATOM     18  C   UNL     1       1.061   4.265  19.678  0.00  0.00    +0.000 C 
ATOM     19  C   UNL     1       1.060   2.839  20.298  0.00  0.00    +0.000 C 
ATOM     20  C   UNL     1       2.011   1.982  19.425  0.00  0.00    +0.000 C 
ENDBRANCH   6   9
BRANCH   1  21
ATOM     21  C   UNL     1      -1.195  11.125  19.675  0.00  0.00    +0.000 C 
BRANCH  21  22
ATOM     22  C   UNL     1      -0.899  12.625  19.623  0.00  0.00    +0.000 A 
ATOM     23  C   UNL     1      -1.229  13.402  20.754  0.00  0.00    +0.000 A 
ATOM     24  C   UNL     1      -1.044  14.784  20.764  0.00  0.00    +0.000 A 
ATOM     25  C   UNL     1      -0.510  15.412  19.648  0.00  0.00    +0.000 A 
ATOM     26 CL   UNL     1      -0.311  17.119  19.639  0.00  0.00    +0.000 Cl
ATOM     27  C   UNL     1      -0.134  14.662  18.535  0.00  0.00    +0.000 A 
ATOM     28  C   UNL     1      -0.310  13.276  18.530  0.00  0.00    +0.000 A 
ENDBRANCH  21  22
BRANCH  21  29
ATOM     29  C   UNL     1      -1.554  10.549  18.279  0.00  0.00    +0.000 C 
BRANCH  29  30
ATOM     30  N   UNL     1      -2.970  10.261  18.019  0.00  0.00    +0.000 NA
ATOM     31  H   UNL     1      -3.056   9.298  17.685  0.00  0.00    +0.000 HD
BRANCH  30  32
ATOM     32  C   UNL     1      -3.558  11.156  17.018  0.00  0.00    +0.000 C 
BRANCH  32  33
ATOM     33  C   UNL     1      -2.798  11.076  15.692  0.00  0.00    +0.000 C 
BRANCH  33  35
ATOM     34  C   UNL     1      -3.628   9.948  13.598  0.00  0.00    +0.000 C 
ATOM     35  C   UNL     1      -3.016   9.743  14.974  0.00  0.00    +0.000 C 
ENDBRANCH  33  35
ENDBRANCH  32  33
ENDBRANCH  30  32
ENDBRANCH  29  30
ENDBRANCH  21  29
ENDBRANCH   1  21
TORSDOF 8
ENDMDL
MODEL 4
REMARK VINA RESULT:      -8.1      4.446      9.898
REMARK  Name = 
REMARK  9 active torsions:
REMARK  status: ('A' for Active; 'I' for Inactive)
REMARK    1  A    between atoms: C_1  and  C_2
REMARK    2  A    between atoms: C_2  and  C_3
REMARK    3  A    between atoms: C_3  and  C_4
REMARK    4  A    between atoms: C_4  and  N_5
REMARK    5  A    between atoms: N_5  and  C_6
REMARK    6  A    between atoms: C_6  and  C_7
REMARK    7  A    between atoms: C_7  and  C_8
REMARK    8  A    between atoms: C_7  and  C_28
REMARK    9  A    between atoms: N_13  and  C_14
REMARK                            x       y       z     vdW  Elec       q    Type
REMARK                         _______ _______ _______ _____ _____    ______ ____
ROOT
ATOM      1  C   UNL     1      -0.220  10.828  20.139  0.00  0.00    +0.000 C 
ATOM      2  O   UNL     1      -0.766  10.574  21.223  0.00  0.00    +0.000 OA
ATOM      3  N   UNL     1       0.976  10.213  19.811  0.00  0.00    +0.000 N 
ATOM      4  C   UNL     1       1.472   9.141  20.679  0.00  0.00    +0.000 C 
ATOM      5  C   UNL     1       1.519   7.806  19.921  0.00  0.00    +0.000 C 
ATOM      6  N   UNL     1       2.235   7.940  18.657  0.00  0.00    +0.000 N 
ATOM      7  C   UNL     1       1.830   9.049  17.784  0.00  0.00    +0.000 C 
ATOM      8  C   UNL     1       1.781  10.361  18.590  0.00  0.00    +0.000 C 
ENDROOT
BRANCH   6   9
ATOM      9  C   UNL     1       3.100   6.981  18.177  0.00  0.00    +0.000 A 
ATOM     10  N   UNL     1       4.001   7.403  17.247  0.00  0.00    +0.000 NA
ATOM     11  C   UNL     1       4.952   6.569  16.805  0.00  0.00    +0.000 A 
ATOM     12  N   UNL     1       5.140   5.301  17.153  0.00  0.00    +0.000 NA
ATOM     13  C   UNL     1       4.218   4.873  18.028  0.00  0.00    +0.000 A 
ATOM     14  S   UNL     1       4.265   3.238  18.563  0.00  0.00    +0.000 S 
ATOM     15  C   UNL     1       2.887   3.475  19.467  0.00  0.00    +0.000 A 
ATOM     16  C   UNL     1       2.385   4.750  19.415  0.00  0.00    +0.000 A 
ATOM     17  C   UNL     1       3.168   5.620  18.583  0.00  0.00    +0.000 A 
ATOM     18  C   UNL     1       1.120   4.813  20.202  0.00  0.00    +0.000 C 
ATOM     19  C   UNL     1       1.163   3.506  21.041  0.00  0.00    +0.000 C 
ATOM     20  C   UNL     1       2.089   2.526  20.279  0.00  0.00    +0.000 C 
ENDBRANCH   6   9
BRANCH   1  21
ATOM     21  C   UNL     1      -0.905  11.847  19.217  0.00  0.00    +0.000 C 
BRANCH  21  22
ATOM     22  C   UNL     1      -2.378  11.595  18.887  0.00  0.00    +0.000 A 
ATOM     23  C   UNL     1      -3.346  12.352  19.579  0.00  0.00    +0.000 A 
ATOM     24  C   UNL     1      -4.710  12.143  19.378  0.00  0.00    +0.000 A 
ATOM     25  C   UNL     1      -5.129  11.183  18.466  0.00  0.00    +0.000 A 
ATOM     26 CL   UNL     1      -6.807  10.895  18.236  0.00  0.00    +0.000 Cl
ATOM     27  C   UNL     1      -4.192  10.454  17.737  0.00  0.00    +0.000 A 
ATOM     28  C   UNL     1      -2.826  10.672  17.932  0.00  0.00    +0.000 A 
ENDBRANCH  21  22
BRANCH  21  29
ATOM     29  C   UNL     1      -0.629  13.332  19.577  0.00  0.00    +0.000 C 
BRANCH  29  30
ATOM     30  N   UNL     1      -0.502  14.278  18.461  0.00  0.00    +0.000 NA
ATOM     31  H   UNL     1      -0.020  13.814  17.688  0.00  0.00    +0.000 HD
BRANCH  30  32
ATOM     32  C   UNL     1       0.249  15.484  18.822  0.00  0.00    +0.000 C 
BRANCH  32  33
ATOM     33  C   UNL     1      -0.667  16.709  18.878  0.00  0.00    +0.000 C 
BRANCH  33  35
ATOM     34  C   UNL     1       0.838  18.065  17.381  0.00  0.00    +0.000 C 
ATOM     35  C   UNL     1      -0.578  17.563  17.612  0.00  0.00    +0.000 C 
ENDBRANCH  33  35
ENDBRANCH  32  33
ENDBRANCH  30  32
ENDBRANCH  29  30
ENDBRANCH  21  29
ENDBRANCH   1  21
TORSDOF 8
ENDMDL
MODEL 5
REMARK VINA RESULT:      -8.1      6.469      9.633
REMARK  Name = 
REMARK  9 active torsions:
REMARK  status: ('A' for Active; 'I' for Inactive)
REMARK    1  A    between atoms: C_1  and  C_2
REMARK    2  A    between atoms: C_2  and  C_3
REMARK    3  A    between atoms: C_3  and  C_4
REMARK    4  A    between atoms: C_4  and  N_5
REMARK    5  A    between atoms: N_5  and  C_6
REMARK    6  A    between atoms: C_6  and  C_7
REMARK    7  A    between atoms: C_7  and  C_8
REMARK    8  A    between atoms: C_7  and  C_28
REMARK    9  A    between atoms: N_13  and  C_14
REMARK                            x       y       z     vdW  Elec       q    Type
REMARK                         _______ _______ _______ _____ _____    ______ ____
ROOT
ATOM      1  C   UNL     1       2.277  13.598  19.913  0.00  0.00    +0.000 C 
ATOM      2  O   UNL     1       2.144  13.268  21.101  0.00  0.00    +0.000 OA
ATOM      3  N   UNL     1       3.146  14.621  19.577  0.00  0.00    +0.000 N 
ATOM      4  C   UNL     1       4.021  15.167  20.620  0.00  0.00    +0.000 C 
ATOM      5  C   UNL     1       5.496  14.903  20.284  0.00  0.00    +0.000 C 
ATOM      6  N   UNL     1       5.820  15.347  18.932  0.00  0.00    +0.000 N 
ATOM      7  C   UNL     1       4.927  14.892  17.859  0.00  0.00    +0.000 C 
ATOM      8  C   UNL     1       3.460  15.162  18.246  0.00  0.00    +0.000 C 
ENDROOT
BRANCH   6   9
ATOM      9  C   UNL     1       7.001  15.978  18.610  0.00  0.00    +0.000 A 
ATOM     10  N   UNL     1       6.978  17.339  18.645  0.00  0.00    +0.000 NA
ATOM     11  C   UNL     1       8.106  18.036  18.454  0.00  0.00    +0.000 A 
ATOM     12  N   UNL     1       9.319  17.556  18.199  0.00  0.00    +0.000 NA
ATOM     13  C   UNL     1       9.327  16.218  18.111  0.00  0.00    +0.000 A 
ATOM     14  S   UNL     1      10.800  15.411  17.737  0.00  0.00    +0.000 S 
ATOM     15  C   UNL     1      10.017  13.942  17.739  0.00  0.00    +0.000 A 
ATOM     16  C   UNL     1       8.680  14.011  18.035  0.00  0.00    +0.000 A 
ATOM     17  C   UNL     1       8.236  15.352  18.287  0.00  0.00    +0.000 A 
ATOM     18  C   UNL     1       8.083  12.647  17.933  0.00  0.00    +0.000 C 
ATOM     19  C   UNL     1       9.329  11.718  17.924  0.00  0.00    +0.000 C 
ATOM     20  C   UNL     1      10.516  12.581  17.428  0.00  0.00    +0.000 C 
ENDBRANCH   6   9
BRANCH   1  21
ATOM     21  C   UNL     1       1.437  12.852  18.867  0.00  0.00    +0.000 C 
BRANCH  21  22
ATOM     22  C   UNL     1       1.553  11.326  18.851  0.00  0.00    +0.000 A 
ATOM     23  C   UNL     1       0.992  10.611  19.929  0.00  0.00    +0.000 A 
ATOM     24  C   UNL     1       1.106   9.224  20.018  0.00  0.00    +0.000 A 
ATOM     25  C   UNL     1       1.770   8.525  19.018  0.00  0.00    +0.000 A 
ATOM     26 CL   UNL     1       1.945   6.821  19.136  0.00  0.00    +0.000 Cl
ATOM     27  C   UNL     1       2.295   9.204  17.920  0.00  0.00    +0.000 A 
ATOM     28  C   UNL     1       2.170  10.593  17.828  0.00  0.00    +0.000 A 
ENDBRANCH  21  22
BRANCH  21  29
ATOM     29  C   UNL     1      -0.037  13.329  18.763  0.00  0.00    +0.000 C 
BRANCH  29  30
ATOM     30  N   UNL     1      -0.836  12.796  17.652  0.00  0.00    +0.000 NA
ATOM     31  H   UNL     1      -1.251  13.577  17.140  0.00  0.00    +0.000 HD
BRANCH  30  32
ATOM     32  C   UNL     1      -1.912  11.908  18.102  0.00  0.00    +0.000 C 
BRANCH  32  33
ATOM     33  C   UNL     1      -1.820  10.540  17.421  0.00  0.00    +0.000 C 
BRANCH  33  35
ATOM     34  C   UNL     1      -2.957   9.795  15.301  0.00  0.00    +0.000 C 
ATOM     35  C   UNL     1      -3.141  10.120  16.774  0.00  0.00    +0.000 C 
ENDBRANCH  33  35
ENDBRANCH  32  33
ENDBRANCH  30  32
ENDBRANCH  29  30
ENDBRANCH  21  29
ENDBRANCH   1  21
TORSDOF 8
ENDMDL
MODEL 6
REMARK VINA RESULT:      -8.1      4.207      9.471
REMARK  Name = 
REMARK  9 active torsions:
REMARK  status: ('A' for Active; 'I' for Inactive)
REMARK    1  A    between atoms: C_1  and  C_2
REMARK    2  A    between atoms: C_2  and  C_3
REMARK    3  A    between atoms: C_3  and  C_4
REMARK    4  A    between atoms: C_4  and  N_5
REMARK    5  A    between atoms: N_5  and  C_6
REMARK    6  A    between atoms: C_6  and  C_7
REMARK    7  A    between atoms: C_7  and  C_8
REMARK    8  A    between atoms: C_7  and  C_28
REMARK    9  A    between atoms: N_13  and  C_14
REMARK                            x       y       z     vdW  Elec       q    Type
REMARK                         _______ _______ _______ _____ _____    ______ ____
ROOT
ATOM      1  C   UNL     1      -0.297   9.772  20.269  0.00  0.00    +0.000 C 
ATOM      2  O   UNL     1      -0.680   9.366  21.378  0.00  0.00    +0.000 OA
ATOM      3  N   UNL     1       0.973   9.452  19.822  0.00  0.00    +0.000 N 
ATOM      4  C   UNL     1       1.766   8.492  20.595  0.00  0.00    +0.000 C 
ATOM      5  C   UNL     1       2.043   7.226  19.769  0.00  0.00    +0.000 C 
ATOM      6  N   UNL     1       2.602   7.558  18.463  0.00  0.00    +0.000 N 
ATOM      7  C   UNL     1       1.888   8.575  17.680  0.00  0.00    +0.000 C 
ATOM      8  C   UNL     1       1.619   9.816  18.552  0.00  0.00    +0.000 C 
ENDROOT
BRANCH   6   9
ATOM      9  C   UNL     1       3.614   6.834  17.872  0.00  0.00    +0.000 A 
ATOM     10  N   UNL     1       4.682   7.555  17.428  0.00  0.00    +0.000 NA
ATOM     11  C   UNL     1       5.760   6.927  16.940  0.00  0.00    +0.000 A 
ATOM     12  N   UNL     1       5.939   5.618  16.800  0.00  0.00    +0.000 NA
ATOM     13  C   UNL     1       4.864   4.915  17.187  0.00  0.00    +0.000 A 
ATOM     14  S   UNL     1       4.885   3.201  17.037  0.00  0.00    +0.000 S 
ATOM     15  C   UNL     1       3.321   3.114  17.599  0.00  0.00    +0.000 A 
ATOM     16  C   UNL     1       2.768   4.324  17.929  0.00  0.00    +0.000 A 
ATOM     17  C   UNL     1       3.669   5.421  17.718  0.00  0.00    +0.000 A 
ATOM     18  C   UNL     1       1.350   4.119  18.347  0.00  0.00    +0.000 C 
ATOM     19  C   UNL     1       1.275   2.586  18.593  0.00  0.00    +0.000 C 
ATOM     20  C   UNL     1       2.415   1.952  17.758  0.00  0.00    +0.000 C 
ENDBRANCH   6   9
BRANCH   1  21
ATOM     21  C   UNL     1      -1.267  10.638  19.454  0.00  0.00    +0.000 C 
BRANCH  21  22
ATOM     22  C   UNL     1      -1.092  12.155  19.561  0.00  0.00    +0.000 A 
ATOM     23  C   UNL     1      -0.490  12.827  18.477  0.00  0.00    +0.000 A 
ATOM     24  C   UNL     1      -0.243  14.199  18.520  0.00  0.00    +0.000 A 
ATOM     25  C   UNL     1      -0.611  14.926  19.645  0.00  0.00    +0.000 A 
ATOM     26 CL   UNL     1      -0.280  16.610  19.721  0.00  0.00    +0.000 Cl
ATOM     27  C   UNL     1      -1.248  14.294  20.710  0.00  0.00    +0.000 A 
ATOM     28  C   UNL     1      -1.504  12.921  20.661  0.00  0.00    +0.000 A 
ENDBRANCH  21  22
BRANCH  21  29
ATOM     29  C   UNL     1      -1.470  10.173  17.987  0.00  0.00    +0.000 C 
BRANCH  29  30
ATOM     30  N   UNL     1      -2.854  10.008  17.524  0.00  0.00    +0.000 NA
ATOM     31  H   UNL     1      -2.926   9.130  17.006  0.00  0.00    +0.000 HD
BRANCH  30  32
ATOM     32  C   UNL     1      -3.295  11.101  16.651  0.00  0.00    +0.000 C 
BRANCH  32  33
ATOM     33  C   UNL     1      -4.752  11.476  16.929  0.00  0.00    +0.000 C 
BRANCH  33  35
ATOM     34  C   UNL     1      -6.609  10.791  18.486  0.00  0.00    +0.000 C 
ATOM     35  C   UNL     1      -5.155  11.217  18.382  0.00  0.00    +0.000 C 
ENDBRANCH  33  35
ENDBRANCH  32  33
ENDBRANCH  30  32
ENDBRANCH  29  30
ENDBRANCH  21  29
ENDBRANCH   1  21
TORSDOF 8
ENDMDL
MODEL 7
REMARK VINA RESULT:      -8.0      3.700      9.147
REMARK  Name = 
REMARK  9 active torsions:
REMARK  status: ('A' for Active; 'I' for Inactive)
REMARK    1  A    between atoms: C_1  and  C_2
REMARK    2  A    between atoms: C_2  and  C_3
REMARK    3  A    between atoms: C_3  and  C_4
REMARK    4  A    between atoms: C_4  and  N_5
REMARK    5  A    between atoms: N_5  and  C_6
REMARK    6  A    between atoms: C_6  and  C_7
REMARK    7  A    between atoms: C_7  and  C_8
REMARK    8  A    between atoms: C_7  and  C_28
REMARK    9  A    between atoms: N_13  and  C_14
REMARK                            x       y       z     vdW  Elec       q    Type
REMARK                         _______ _______ _______ _____ _____    ______ ____
ROOT
ATOM      1  C   UNL     1      -0.339  10.637  20.851  0.00  0.00    +0.000 C 
ATOM      2  O   UNL     1      -0.718  10.327  21.991  0.00  0.00    +0.000 OA
ATOM      3  N   UNL     1       0.834  10.101  20.348  0.00  0.00    +0.000 N 
ATOM      4  C   UNL     1       1.503   9.043  21.110  0.00  0.00    +0.000 C 
ATOM      5  C   UNL     1       1.522   7.729  20.314  0.00  0.00    +0.000 C 
ATOM      6  N   UNL     1       2.051   7.932  18.970  0.00  0.00    +0.000 N 
ATOM      7  C   UNL     1       1.469   9.033  18.192  0.00  0.00    +0.000 C 
ATOM      8  C   UNL     1       1.456  10.323  19.034  0.00  0.00    +0.000 C 
ENDROOT
BRANCH   6   9
ATOM      9  C   UNL     1       2.896   7.036  18.350  0.00  0.00    +0.000 A 
ATOM     10  N   UNL     1       3.760   7.565  17.440  0.00  0.00    +0.000 NA
ATOM     11  C   UNL     1       4.692   6.790  16.869  0.00  0.00    +0.000 A 
ATOM     12  N   UNL     1       4.892   5.491  17.063  0.00  0.00    +0.000 NA
ATOM     13  C   UNL     1       4.004   4.963  17.920  0.00  0.00    +0.000 A 
ATOM     14  S   UNL     1       4.071   3.278  18.264  0.00  0.00    +0.000 S 
ATOM     15  C   UNL     1       2.730   3.406  19.242  0.00  0.00    +0.000 A 
ATOM     16  C   UNL     1       2.228   4.677  19.354  0.00  0.00    +0.000 A 
ATOM     17  C   UNL     1       2.978   5.638  18.597  0.00  0.00    +0.000 A 
ATOM     18  C   UNL     1       0.995   4.646  20.193  0.00  0.00    +0.000 C 
ATOM     19  C   UNL     1       1.069   3.252  20.876  0.00  0.00    +0.000 C 
ATOM     20  C   UNL     1       1.964   2.369  19.972  0.00  0.00    +0.000 C 
ENDBRANCH   6   9
BRANCH   1  21
ATOM     21  C   UNL     1      -1.199  11.631  20.059  0.00  0.00    +0.000 C 
BRANCH  21  22
ATOM     22  C   UNL     1      -1.812  11.124  18.752  0.00  0.00    +0.000 A 
ATOM     23  C   UNL     1      -1.684  11.936  17.606  0.00  0.00    +0.000 A 
ATOM     24  C   UNL     1      -2.263  11.572  16.390  0.00  0.00    +0.000 A 
ATOM     25  C   UNL     1      -2.968  10.379  16.297  0.00  0.00    +0.000 A 
ATOM     26 CL   UNL     1      -3.714   9.940  14.813  0.00  0.00    +0.000 Cl
ATOM     27  C   UNL     1      -3.071   9.538  17.403  0.00  0.00    +0.000 A 
ATOM     28  C   UNL     1      -2.481   9.899  18.617  0.00  0.00    +0.000 A 
ENDBRANCH  21  22
BRANCH  21  29
ATOM     29  C   UNL     1      -2.221  12.427  20.917  0.00  0.00    +0.000 C 
BRANCH  29  30
ATOM     30  N   UNL     1      -2.711  13.696  20.365  0.00  0.00    +0.000 NA
ATOM     31  H   UNL     1      -2.066  14.443  20.631  0.00  0.00    +0.000 HD
BRANCH  30  32
ATOM     32  C   UNL     1      -4.052  14.044  20.848  0.00  0.00    +0.000 C 
BRANCH  32  33
ATOM     33  C   UNL     1      -4.789  12.809  21.370  0.00  0.00    +0.000 C 
BRANCH  33  35
ATOM     34  C   UNL     1      -4.469  13.844  23.645  0.00  0.00    +0.000 C 
ATOM     35  C   UNL     1      -5.398  13.036  22.755  0.00  0.00    +0.000 C 
ENDBRANCH  33  35
ENDBRANCH  32  33
ENDBRANCH  30  32
ENDBRANCH  29  30
ENDBRANCH  21  29
ENDBRANCH   1  21
TORSDOF 8
ENDMDL
MODEL 8
REMARK VINA RESULT:      -8.0      4.383      9.830
REMARK  Name = 
REMARK  9 active torsions:
REMARK  status: ('A' for Active; 'I' for Inactive)
REMARK    1  A    between atoms: C_1  and  C_2
REMARK    2  A    between atoms: C_2  and  C_3
REMARK    3  A    between atoms: C_3  and  C_4
REMARK    4  A    between atoms: C_4  and  N_5
REMARK    5  A    between atoms: N_5  and  C_6
REMARK    6  A    between atoms: C_6  and  C_7
REMARK    7  A    between atoms: C_7  and  C_8
REMARK    8  A    between atoms: C_7  and  C_28
REMARK    9  A    between atoms: N_13  and  C_14
REMARK                            x       y       z     vdW  Elec       q    Type
REMARK                         _______ _______ _______ _____ _____    ______ ____
ROOT
ATOM      1  C   UNL     1      -0.122  10.591  19.700  0.00  0.00    +0.000 C 
ATOM      2  O   UNL     1      -0.668  10.472  20.808  0.00  0.00    +0.000 OA
ATOM      3  N   UNL     1       1.098   9.981  19.466  0.00  0.00    +0.000 N 
ATOM      4  C   UNL     1       1.627   9.062  20.479  0.00  0.00    +0.000 C 
ATOM      5  C   UNL     1       1.729   7.636  19.917  0.00  0.00    +0.000 C 
ATOM      6  N   UNL     1       2.450   7.616  18.649  0.00  0.00    +0.000 N 
ATOM      7  C   UNL     1       2.010   8.575  17.627  0.00  0.00    +0.000 C 
ATOM      8  C   UNL     1       1.907   9.985  18.238  0.00  0.00    +0.000 C 
ENDROOT
BRANCH   6   9
ATOM      9  C   UNL     1       3.354   6.633  18.312  0.00  0.00    +0.000 A 
ATOM     10  N   UNL     1       4.343   7.002  17.451  0.00  0.00    +0.000 NA
ATOM     11  C   UNL     1       5.329   6.145  17.154  0.00  0.00    +0.000 A 
ATOM     12  N   UNL     1       5.477   4.899  17.591  0.00  0.00    +0.000 NA
ATOM     13  C   UNL     1       4.471   4.521  18.395  0.00  0.00    +0.000 A 
ATOM     14  S   UNL     1       4.459   2.920  19.026  0.00  0.00    +0.000 S 
ATOM     15  C   UNL     1       3.000   3.207  19.775  0.00  0.00    +0.000 A 
ATOM     16  C   UNL     1       2.512   4.476  19.601  0.00  0.00    +0.000 A 
ATOM     17  C   UNL     1       3.376   5.297  18.801  0.00  0.00    +0.000 A 
ATOM     18  C   UNL     1       1.176   4.583  20.256  0.00  0.00    +0.000 C 
ATOM     19  C   UNL     1       1.131   3.326  21.169  0.00  0.00    +0.000 C 
ATOM     20  C   UNL     1       2.123   2.306  20.559  0.00  0.00    +0.000 C 
ENDBRANCH   6   9
BRANCH   1  21
ATOM     21  C   UNL     1      -0.838  11.442  18.642  0.00  0.00    +0.000 C 
BRANCH  21  22
ATOM     22  C   UNL     1      -2.365  11.362  18.610  0.00  0.00    +0.000 A 
ATOM     23  C   UNL     1      -2.957  10.364  17.808  0.00  0.00    +0.000 A 
ATOM     24  C   UNL     1      -4.342  10.261  17.681  0.00  0.00    +0.000 A 
ATOM     25  C   UNL     1      -5.161  11.147  18.369  0.00  0.00    +0.000 A 
ATOM     26 CL   UNL     1      -6.867  11.050  18.191  0.00  0.00    +0.000 Cl
ATOM     27  C   UNL     1      -4.602  12.113  19.202  0.00  0.00    +0.000 A 
ATOM     28  C   UNL     1      -3.215  12.208  19.337  0.00  0.00    +0.000 A 
ENDBRANCH  21  22
BRANCH  21  29
ATOM     29  C   UNL     1      -0.323  12.903  18.532  0.00  0.00    +0.000 C 
BRANCH  29  30
ATOM     30  N   UNL     1       0.321  13.476  19.720  0.00  0.00    +0.000 NA
ATOM     31  H   UNL     1      -0.318  13.393  20.514  0.00  0.00    +0.000 HD
BRANCH  30  32
ATOM     32  C   UNL     1       0.673  14.889  19.550  0.00  0.00    +0.000 C 
BRANCH  32  33
ATOM     33  C   UNL     1      -0.277  15.580  18.569  0.00  0.00    +0.000 C 
BRANCH  33  35
ATOM     34  C   UNL     1       1.063  17.690  18.259  0.00  0.00    +0.000 C 
ATOM     35  C   UNL     1      -0.262  17.103  18.716  0.00  0.00    +0.000 C 
ENDBRANCH  33  35
ENDBRANCH  32  33
ENDBRANCH  30  32
ENDBRANCH  29  30
ENDBRANCH  21  29
ENDBRANCH   1  21
TORSDOF 8
ENDMDL
MODEL 9
REMARK VINA RESULT:      -8.0      4.387      9.597
REMARK  Name = 
REMARK  9 active torsions:
REMARK  status: ('A' for Active; 'I' for Inactive)
REMARK    1  A    between atoms: C_1  and  C_2
REMARK    2  A    between atoms: C_2  and  C_3
REMARK    3  A    between atoms: C_3  and  C_4
REMARK    4  A    between atoms: C_4  and  N_5
REMARK    5  A    between atoms: N_5  and  C_6
REMARK    6  A    between atoms: C_6  and  C_7
REMARK    7  A    between atoms: C_7  and  C_8
REMARK    8  A    between atoms: C_7  and  C_28
REMARK    9  A    between atoms: N_13  and  C_14
REMARK                            x       y       z     vdW  Elec       q    Type
REMARK                         _______ _______ _______ _____ _____    ______ ____
ROOT
ATOM      1  C   UNL     1      -0.221  10.434  21.999  0.00  0.00    +0.000 C 
ATOM      2  O   UNL     1      -0.456   9.989  23.133  0.00  0.00    +0.000 OA
ATOM      3  N   UNL     1       0.874   9.969  21.292  0.00  0.00    +0.000 N 
ATOM      4  C   UNL     1       1.626   8.833  21.834  0.00  0.00    +0.000 C 
ATOM      5  C   UNL     1       1.534   7.622  20.892  0.00  0.00    +0.000 C 
ATOM      6  N   UNL     1       1.891   7.986  19.525  0.00  0.00    +0.000 N 
ATOM      7  C   UNL     1       1.224   9.167  18.962  0.00  0.00    +0.000 C 
ATOM      8  C   UNL     1       1.328  10.349  19.946  0.00  0.00    +0.000 C 
ENDROOT
BRANCH   6   9
ATOM      9  C   UNL     1       2.643   7.176  18.703  0.00  0.00    +0.000 A 
ATOM     10  N   UNL     1       3.409   7.815  17.775  0.00  0.00    +0.000 NA
ATOM     11  C   UNL     1       4.256   7.118  17.007  0.00  0.00    +0.000 A 
ATOM     12  N   UNL     1       4.453   5.804  17.007  0.00  0.00    +0.000 NA
ATOM     13  C   UNL     1       3.657   5.172  17.884  0.00  0.00    +0.000 A 
ATOM     14  S   UNL     1       3.731   3.457  17.998  0.00  0.00    +0.000 S 
ATOM     15  C   UNL     1       2.512   3.461  19.131  0.00  0.00    +0.000 A 
ATOM     16  C   UNL     1       2.049   4.709  19.463  0.00  0.00    +0.000 A 
ATOM     17  C   UNL     1       2.727   5.758  18.756  0.00  0.00    +0.000 A 
ATOM     18  C   UNL     1       0.918   4.573  20.426  0.00  0.00    +0.000 C 
ATOM     19  C   UNL     1       1.043   3.102  20.911  0.00  0.00    +0.000 C 
ATOM     20  C   UNL     1       1.814   2.340  19.804  0.00  0.00    +0.000 C 
ENDBRANCH   6   9
BRANCH   1  21
ATOM     21  C   UNL     1      -1.167  11.509  21.445  0.00  0.00    +0.000 C 
BRANCH  21  22
ATOM     22  C   UNL     1      -1.704  12.535  22.444  0.00  0.00    +0.000 A 
ATOM     23  C   UNL     1      -3.070  12.466  22.789  0.00  0.00    +0.000 A 
ATOM     24  C   UNL     1      -3.649  13.399  23.648  0.00  0.00    +0.000 A 
ATOM     25  C   UNL     1      -2.867  14.410  24.190  0.00  0.00    +0.000 A 
ATOM     26 CL   UNL     1      -3.579  15.585  25.222  0.00  0.00    +0.000 Cl
ATOM     27  C   UNL     1      -1.506  14.474  23.900  0.00  0.00    +0.000 A 
ATOM     28  C   UNL     1      -0.924  13.532  23.048  0.00  0.00    +0.000 A 
ENDBRANCH  21  22
BRANCH  21  29
ATOM     29  C   UNL     1      -0.689  12.169  20.123  0.00  0.00    +0.000 C 
BRANCH  29  30
ATOM     30  N   UNL     1      -1.716  12.483  19.123  0.00  0.00    +0.000 NA
ATOM     31  H   UNL     1      -2.632  12.481  19.578  0.00  0.00    +0.000 HD
BRANCH  30  32
ATOM     32  C   UNL     1      -1.744  11.521  18.016  0.00  0.00    +0.000 C 
BRANCH  32  33
ATOM     33  C   UNL     1      -3.142  10.927  17.835  0.00  0.00    +0.000 C 
BRANCH  33  35
ATOM     34  C   UNL     1      -2.896  10.638  15.345  0.00  0.00    +0.000 C 
ATOM     35  C   UNL     1      -3.214   9.949  16.661  0.00  0.00    +0.000 C 
ENDBRANCH  33  35
ENDBRANCH  32  33
ENDBRANCH  30  32
ENDBRANCH  29  30
ENDBRANCH  21  29
ENDBRANCH   1  21
TORSDOF 8
ENDMDL
