MODEL 1
REMARK VINA RESULT:      -6.9      0.000      0.000
REMARK  Name = 
REMARK  12 active torsions:
REMARK  status: ('A' for Active; 'I' for Inactive)
REMARK    1  A    between atoms: C_1  and  N_2
REMARK    2  A    between atoms: C_3  and  C_5
REMARK    3  A    between atoms: C_5  and  N_6
REMARK    4  A    between atoms: C_5  and  C_23
REMARK    5  A    between atoms: C_7  and  C_9
REMARK    6  A    between atoms: C_12  and  C_13
REMARK    7  A    between atoms: C_16  and  O_17
REMARK    8  A    between atoms: O_17  and  C_18
REMARK    9  A    between atoms: C_18  and  C_19
REMARK   10  A    between atoms: C_23  and  C_24
REMARK   11  A    between atoms: C_23  and  C_25
REMARK   12  A    between atoms: C_23  and  C_26
REMARK                            x       y       z     vdW  Elec       q    Type
REMARK                         _______ _______ _______ _____ _____    ______ ____
ROOT
ATOM      1  N   UNL     1       1.146   9.460  18.859  0.00  0.00    +0.000 N 
ATOM      2  C   UNL     1       2.027   8.618  18.217  0.00  0.00    +0.000 C 
ATOM      3  O   UNL     1       2.556   8.909  17.142  0.00  0.00    +0.000 OA
ATOM      4  H   UNL     1       0.901   9.211  19.814  0.00  0.00    +0.000 HD
ENDROOT
BRANCH   2   5
ATOM      5  C   UNL     1       2.380   7.349  18.914  0.00  0.00    +0.000 A 
ATOM      6  C   UNL     1       1.738   7.030  20.106  0.00  0.00    +0.000 A 
ATOM      7  N   UNL     1       1.906   5.839  20.732  0.00  0.00    +0.000 NA
ATOM      8  C   UNL     1       2.737   4.944  20.122  0.00  0.00    +0.000 A 
ATOM      9  C   UNL     1       3.431   5.322  18.952  0.00  0.00    +0.000 A 
ATOM     10  N   UNL     1       3.270   6.513  18.315  0.00  0.00    +0.000 NA
BRANCH   8  11
ATOM     11  C   UNL     1       2.861   3.547  20.700  0.00  0.00    +0.000 C 
ATOM     12  C   UNL     1       1.856   2.999  21.686  0.00  0.00    +0.000 C 
ATOM     13  C   UNL     1       1.841   2.514  20.269  0.00  0.00    +0.000 C 
ENDBRANCH   8  11
BRANCH   9  14
ATOM     14  O   UNL     1       4.240   4.359  18.384  0.00  0.00    +0.000 OA
BRANCH  14  15
ATOM     15  C   UNL     1       3.960   4.106  17.007  0.00  0.00    +0.000 C 
BRANCH  15  16
ATOM     16  C   UNL     1       5.271   3.928  16.299  0.00  0.00    +0.000 C 
ATOM     17  C   UNL     1       5.484   4.546  14.935  0.00  0.00    +0.000 C 
ATOM     18  C   UNL     1       6.221   5.087  16.126  0.00  0.00    +0.000 C 
ENDBRANCH  15  16
ENDBRANCH  14  15
ENDBRANCH   9  14
ENDBRANCH   2   5
BRANCH   1  19
ATOM     19  C   UNL     1       0.736  10.776  18.326  0.00  0.00    +0.000 C 
BRANCH  19  22
ATOM     20  C   UNL     1       3.261  13.668  18.250  0.00  0.00    +0.000 C 
ATOM     21  N   UNL     1       2.399  12.575  17.882  0.00  0.00    +0.000 N 
ATOM     22  C   UNL     1       1.710  11.880  18.851  0.00  0.00    +0.000 C 
ATOM     23  O   UNL     1       1.829  12.186  20.035  0.00  0.00    +0.000 OA
ATOM     24  H   UNL     1       2.304  12.296  16.909  0.00  0.00    +0.000 HD
ENDBRANCH  19  22
BRANCH  19  25
ATOM     25  C   UNL     1      -0.776  11.083  18.616  0.00  0.00    +0.000 C 
ATOM     26  C   UNL     1      -1.116  10.856  20.110  0.00  0.00    +0.000 C 
ATOM     27  C   UNL     1      -1.106  12.555  18.275  0.00  0.00    +0.000 C 
ATOM     28  C   UNL     1      -1.712  10.203  17.766  0.00  0.00    +0.000 C 
ENDBRANCH  19  25
ENDBRANCH   1  19
TORSDOF 8
ENDMDL
MODEL 2
REMARK VINA RESULT:      -6.9      1.004      1.149
REMARK  Name = 
REMARK  12 active torsions:
REMARK  status: ('A' for Active; 'I' for Inactive)
REMARK    1  A    between atoms: C_1  and  N_2
REMARK    2  A    between atoms: C_3  and  C_5
REMARK    3  A    between atoms: C_5  and  N_6
REMARK    4  A    between atoms: C_5  and  C_23
REMARK    5  A    between atoms: C_7  and  C_9
REMARK    6  A    between atoms: C_12  and  C_13
REMARK    7  A    between atoms: C_16  and  O_17
REMARK    8  A    between atoms: O_17  and  C_18
REMARK    9  A    between atoms: C_18  and  C_19
REMARK   10  A    between atoms: C_23  and  C_24
REMARK   11  A    between atoms: C_23  and  C_25
REMARK   12  A    between atoms: C_23  and  C_26
REMARK                            x       y       z     vdW  Elec       q    Type
REMARK                         _______ _______ _______ _____ _____    ______ ____
ROOT
ATOM      1  N   UNL     1       1.236   9.714  19.224  0.00  0.00    +0.000 N 
ATOM      2  C   UNL     1       1.949   8.851  18.423  0.00  0.00    +0.000 C 
ATOM      3  O   UNL     1       2.354   9.170  17.303  0.00  0.00    +0.000 OA
ATOM      4  H   UNL     1       1.098   9.423  20.189  0.00  0.00    +0.000 HD
ENDROOT
BRANCH   2   5
ATOM      5  C   UNL     1       2.280   7.515  18.994  0.00  0.00    +0.000 A 
ATOM      6  C   UNL     1       1.734   7.149  20.220  0.00  0.00    +0.000 A 
ATOM      7  N   UNL     1       1.881   5.907  20.744  0.00  0.00    +0.000 NA
ATOM      8  C   UNL     1       2.588   5.011  19.996  0.00  0.00    +0.000 A 
ATOM      9  C   UNL     1       3.192   5.431  18.791  0.00  0.00    +0.000 A 
ATOM     10  N   UNL     1       3.051   6.673  18.254  0.00  0.00    +0.000 NA
BRANCH   8  11
ATOM     11  C   UNL     1       2.672   3.570  20.463  0.00  0.00    +0.000 C 
ATOM     12  C   UNL     1       1.802   3.041  21.580  0.00  0.00    +0.000 C 
ATOM     13  C   UNL     1       1.497   2.663  20.163  0.00  0.00    +0.000 C 
ENDBRANCH   8  11
BRANCH   9  14
ATOM     14  O   UNL     1       3.877   4.466  18.081  0.00  0.00    +0.000 OA
BRANCH  14  15
ATOM     15  C   UNL     1       5.020   4.961  17.385  0.00  0.00    +0.000 C 
BRANCH  15  16
ATOM     16  C   UNL     1       6.221   4.730  18.255  0.00  0.00    +0.000 C 
ATOM     17  C   UNL     1       7.595   4.615  17.633  0.00  0.00    +0.000 C 
ATOM     18  C   UNL     1       7.245   5.817  18.462  0.00  0.00    +0.000 C 
ENDBRANCH  15  16
ENDBRANCH  14  15
ENDBRANCH   9  14
ENDBRANCH   2   5
BRANCH   1  19
ATOM     19  C   UNL     1       0.874  11.091  18.826  0.00  0.00    +0.000 C 
BRANCH  19  22
ATOM     20  C   UNL     1       3.020  14.120  19.809  0.00  0.00    +0.000 C 
ATOM     21  N   UNL     1       2.353  13.078  19.071  0.00  0.00    +0.000 N 
ATOM     22  C   UNL     1       1.628  12.115  19.735  0.00  0.00    +0.000 C 
ATOM     23  O   UNL     1       1.546  12.136  20.961  0.00  0.00    +0.000 OA
ATOM     24  H   UNL     1       2.426  13.035  18.058  0.00  0.00    +0.000 HD
ENDBRANCH  19  22
BRANCH  19  25
ATOM     25  C   UNL     1      -0.681  11.305  18.795  0.00  0.00    +0.000 C 
ATOM     26  C   UNL     1      -1.288  11.206  20.216  0.00  0.00    +0.000 C 
ATOM     27  C   UNL     1      -1.026  12.703  18.230  0.00  0.00    +0.000 C 
ATOM     28  C   UNL     1      -1.383  10.270  17.894  0.00  0.00    +0.000 C 
ENDBRANCH  19  25
ENDBRANCH   1  19
TORSDOF 8
ENDMDL
MODEL 3
REMARK VINA RESULT:      -6.8      0.997      1.269
REMARK  Name = 
REMARK  12 active torsions:
REMARK  status: ('A' for Active; 'I' for Inactive)
REMARK    1  A    between atoms: C_1  and  N_2
REMARK    2  A    between atoms: C_3  and  C_5
REMARK    3  A    between atoms: C_5  and  N_6
REMARK    4  A    between atoms: C_5  and  C_23
REMARK    5  A    between atoms: C_7  and  C_9
REMARK    6  A    between atoms: C_12  and  C_13
REMARK    7  A    between atoms: C_16  and  O_17
REMARK    8  A    between atoms: O_17  and  C_18
REMARK    9  A    between atoms: C_18  and  C_19
REMARK   10  A    between atoms: C_23  and  C_24
REMARK   11  A    between atoms: C_23  and  C_25
REMARK   12  A    between atoms: C_23  and  C_26
REMARK                            x       y       z     vdW  Elec       q    Type
REMARK                         _______ _______ _______ _____ _____    ______ ____
ROOT
ATOM      1  N   UNL     1       1.144   9.812  19.298  0.00  0.00    +0.000 N 
ATOM      2  C   UNL     1       1.898   9.011  18.471  0.00  0.00    +0.000 C 
ATOM      3  O   UNL     1       2.390   9.424  17.417  0.00  0.00    +0.000 OA
ATOM      4  H   UNL     1       0.932   9.434  20.219  0.00  0.00    +0.000 HD
ENDROOT
BRANCH   2   5
ATOM      5  C   UNL     1       2.165   7.620  18.934  0.00  0.00    +0.000 A 
ATOM      6  C   UNL     1       1.749   7.239  20.206  0.00  0.00    +0.000 A 
ATOM      7  N   UNL     1       1.838   5.961  20.651  0.00  0.00    +0.000 NA
ATOM      8  C   UNL     1       2.348   5.046  19.776  0.00  0.00    +0.000 A 
ATOM      9  C   UNL     1       2.829   5.474  18.520  0.00  0.00    +0.000 A 
ATOM     10  N   UNL     1       2.745   6.752  18.062  0.00  0.00    +0.000 NA
BRANCH   8  11
ATOM     11  C   UNL     1       2.347   3.580  20.166  0.00  0.00    +0.000 C 
ATOM     12  C   UNL     1       1.566   3.070  21.354  0.00  0.00    +0.000 C 
ATOM     13  C   UNL     1       1.064   2.799  19.969  0.00  0.00    +0.000 C 
ENDBRANCH   8  11
BRANCH   9  14
ATOM     14  O   UNL     1       3.316   4.490  17.684  0.00  0.00    +0.000 OA
BRANCH  14  15
ATOM     15  C   UNL     1       4.727   4.552  17.477  0.00  0.00    +0.000 C 
BRANCH  15  16
ATOM     16  C   UNL     1       4.991   4.256  16.030  0.00  0.00    +0.000 C 
ATOM     17  C   UNL     1       5.583   5.321  15.135  0.00  0.00    +0.000 C 
ATOM     18  C   UNL     1       6.401   4.120  15.513  0.00  0.00    +0.000 C 
ENDBRANCH  15  16
ENDBRANCH  14  15
ENDBRANCH   9  14
ENDBRANCH   2   5
BRANCH   1  19
ATOM     19  C   UNL     1       0.834  11.227  19.008  0.00  0.00    +0.000 C 
BRANCH  19  22
ATOM     20  C   UNL     1       2.317  14.330  20.717  0.00  0.00    +0.000 C 
ATOM     21  N   UNL     1       1.838  13.384  19.743  0.00  0.00    +0.000 N 
ATOM     22  C   UNL     1       1.419  12.134  20.139  0.00  0.00    +0.000 C 
ATOM     23  O   UNL     1       1.454  11.816  21.326  0.00  0.00    +0.000 OA
ATOM     24  H   UNL     1       1.819  13.624  18.755  0.00  0.00    +0.000 HD
ENDBRANCH  19  22
BRANCH  19  25
ATOM     25  C   UNL     1      -0.698  11.454  18.751  0.00  0.00    +0.000 C 
ATOM     26  C   UNL     1      -1.302  10.298  17.916  0.00  0.00    +0.000 C 
ATOM     27  C   UNL     1      -1.469  11.522  20.091  0.00  0.00    +0.000 C 
ATOM     28  C   UNL     1      -0.964  12.779  18.011  0.00  0.00    +0.000 C 
ENDBRANCH  19  25
ENDBRANCH   1  19
TORSDOF 8
ENDMDL
MODEL 4
REMARK VINA RESULT:      -6.7      0.750      1.213
REMARK  Name = 
REMARK  12 active torsions:
REMARK  status: ('A' for Active; 'I' for Inactive)
REMARK    1  A    between atoms: C_1  and  N_2
REMARK    2  A    between atoms: C_3  and  C_5
REMARK    3  A    between atoms: C_5  and  N_6
REMARK    4  A    between atoms: C_5  and  C_23
REMARK    5  A    between atoms: C_7  and  C_9
REMARK    6  A    between atoms: C_12  and  C_13
REMARK    7  A    between atoms: C_16  and  O_17
REMARK    8  A    between atoms: O_17  and  C_18
REMARK    9  A    between atoms: C_18  and  C_19
REMARK   10  A    between atoms: C_23  and  C_24
REMARK   11  A    between atoms: C_23  and  C_25
REMARK   12  A    between atoms: C_23  and  C_26
REMARK                            x       y       z     vdW  Elec       q    Type
REMARK                         _______ _______ _______ _____ _____    ______ ____
ROOT
ATOM      1  N   UNL     1       1.238   9.755  19.249  0.00  0.00    +0.000 N 
ATOM      2  C   UNL     1       1.928   8.882  18.439  0.00  0.00    +0.000 C 
ATOM      3  O   UNL     1       2.323   9.195  17.313  0.00  0.00    +0.000 OA
ATOM      4  H   UNL     1       1.109   9.465  20.216  0.00  0.00    +0.000 HD
ENDROOT
BRANCH   2   5
ATOM      5  C   UNL     1       2.251   7.542  19.006  0.00  0.00    +0.000 A 
ATOM      6  C   UNL     1       1.716   7.183  20.239  0.00  0.00    +0.000 A 
ATOM      7  N   UNL     1       1.854   5.940  20.762  0.00  0.00    +0.000 NA
ATOM      8  C   UNL     1       2.541   5.035  20.005  0.00  0.00    +0.000 A 
ATOM      9  C   UNL     1       3.135   5.447  18.793  0.00  0.00    +0.000 A 
ATOM     10  N   UNL     1       3.002   6.691  18.257  0.00  0.00    +0.000 NA
BRANCH   8  11
ATOM     11  C   UNL     1       2.613   3.593  20.472  0.00  0.00    +0.000 C 
ATOM     12  C   UNL     1       1.761   3.079  21.609  0.00  0.00    +0.000 C 
ATOM     13  C   UNL     1       1.418   2.704  20.200  0.00  0.00    +0.000 C 
ENDBRANCH   8  11
BRANCH   9  14
ATOM     14  O   UNL     1       3.799   4.473  18.075  0.00  0.00    +0.000 OA
BRANCH  14  15
ATOM     15  C   UNL     1       5.217   4.635  18.055  0.00  0.00    +0.000 C 
BRANCH  15  16
ATOM     16  C   UNL     1       5.624   4.924  16.640  0.00  0.00    +0.000 C 
ATOM     17  C   UNL     1       7.017   4.572  16.167  0.00  0.00    +0.000 C 
ATOM     18  C   UNL     1       5.834   3.805  15.652  0.00  0.00    +0.000 C 
ENDBRANCH  15  16
ENDBRANCH  14  15
ENDBRANCH   9  14
ENDBRANCH   2   5
BRANCH   1  19
ATOM     19  C   UNL     1       0.887  11.135  18.854  0.00  0.00    +0.000 C 
BRANCH  19  22
ATOM     20  C   UNL     1       3.075  14.129  19.852  0.00  0.00    +0.000 C 
ATOM     21  N   UNL     1       2.399  13.097  19.110  0.00  0.00    +0.000 N 
ATOM     22  C   UNL     1       1.647  12.150  19.769  0.00  0.00    +0.000 C 
ATOM     23  O   UNL     1       1.549  12.179  20.994  0.00  0.00    +0.000 OA
ATOM     24  H   UNL     1       2.485  13.047  18.098  0.00  0.00    +0.000 HD
ENDBRANCH  19  22
BRANCH  19  25
ATOM     25  C   UNL     1      -0.666  11.362  18.821  0.00  0.00    +0.000 C 
ATOM     26  C   UNL     1      -1.015  12.767  18.273  0.00  0.00    +0.000 C 
ATOM     27  C   UNL     1      -1.347  10.316  17.907  0.00  0.00    +0.000 C 
ATOM     28  C   UNL     1      -1.296  11.215  20.220  0.00  0.00    +0.000 C 
ENDBRANCH  19  25
ENDBRANCH   1  19
TORSDOF 8
ENDMDL
MODEL 5
REMARK VINA RESULT:      -6.7      1.636      4.226
REMARK  Name = 
REMARK  12 active torsions:
REMARK  status: ('A' for Active; 'I' for Inactive)
REMARK    1  A    between atoms: C_1  and  N_2
REMARK    2  A    between atoms: C_3  and  C_5
REMARK    3  A    between atoms: C_5  and  N_6
REMARK    4  A    between atoms: C_5  and  C_23
REMARK    5  A    between atoms: C_7  and  C_9
REMARK    6  A    between atoms: C_12  and  C_13
REMARK    7  A    between atoms: C_16  and  O_17
REMARK    8  A    between atoms: O_17  and  C_18
REMARK    9  A    between atoms: C_18  and  C_19
REMARK   10  A    between atoms: C_23  and  C_24
REMARK   11  A    between atoms: C_23  and  C_25
REMARK   12  A    between atoms: C_23  and  C_26
REMARK                            x       y       z     vdW  Elec       q    Type
REMARK                         _______ _______ _______ _____ _____    ______ ____
ROOT
ATOM      1  N   UNL     1       1.475   9.547  18.570  0.00  0.00    +0.000 N 
ATOM      2  C   UNL     1       1.852   8.402  19.234  0.00  0.00    +0.000 C 
ATOM      3  O   UNL     1       1.537   8.181  20.405  0.00  0.00    +0.000 OA
ATOM      4  H   UNL     1       1.633   9.557  17.565  0.00  0.00    +0.000 HD
ENDROOT
BRANCH   2   5
ATOM      5  C   UNL     1       2.611   7.385  18.451  0.00  0.00    +0.000 A 
ATOM      6  C   UNL     1       3.585   7.810  17.554  0.00  0.00    +0.000 A 
ATOM      7  N   UNL     1       4.405   6.948  16.903  0.00  0.00    +0.000 NA
ATOM      8  C   UNL     1       4.239   5.622  17.183  0.00  0.00    +0.000 A 
ATOM      9  C   UNL     1       3.196   5.215  18.041  0.00  0.00    +0.000 A 
ATOM     10  N   UNL     1       2.368   6.070  18.701  0.00  0.00    +0.000 NA
BRANCH   8  11
ATOM     11  C   UNL     1       5.214   4.621  16.591  0.00  0.00    +0.000 C 
ATOM     12  C   UNL     1       6.116   4.974  15.432  0.00  0.00    +0.000 C 
ATOM     13  C   UNL     1       6.693   4.863  16.809  0.00  0.00    +0.000 C 
ENDBRANCH   8  11
BRANCH   9  14
ATOM     14  O   UNL     1       3.101   3.861  18.289  0.00  0.00    +0.000 OA
BRANCH  14  15
ATOM     15  C   UNL     1       3.386   3.498  19.639  0.00  0.00    +0.000 C 
BRANCH  15  16
ATOM     16  C   UNL     1       2.247   2.658  20.139  0.00  0.00    +0.000 C 
ATOM     17  C   UNL     1       1.291   3.216  21.169  0.00  0.00    +0.000 C 
ATOM     18  C   UNL     1       0.824   2.983  19.761  0.00  0.00    +0.000 C 
ENDBRANCH  15  16
ENDBRANCH  14  15
ENDBRANCH   9  14
ENDBRANCH   2   5
BRANCH   1  19
ATOM     19  C   UNL     1       0.676  10.626  19.188  0.00  0.00    +0.000 C 
BRANCH  19  22
ATOM     20  C   UNL     1      -2.276   9.825  16.866  0.00  0.00    +0.000 C 
ATOM     21  N   UNL     1      -0.956  10.017  17.409  0.00  0.00    +0.000 N 
ATOM     22  C   UNL     1      -0.797  10.550  18.668  0.00  0.00    +0.000 C 
ATOM     23  O   UNL     1      -1.778  10.867  19.336  0.00  0.00    +0.000 OA
ATOM     24  H   UNL     1      -0.133   9.777  16.863  0.00  0.00    +0.000 HD
ENDBRANCH  19  22
BRANCH  19  25
ATOM     25  C   UNL     1       1.339  12.035  18.991  0.00  0.00    +0.000 C 
ATOM     26  C   UNL     1       0.321  13.060  18.433  0.00  0.00    +0.000 C 
ATOM     27  C   UNL     1       1.866  12.580  20.340  0.00  0.00    +0.000 C 
ATOM     28  C   UNL     1       2.542  11.972  18.031  0.00  0.00    +0.000 C 
ENDBRANCH  19  25
ENDBRANCH   1  19
TORSDOF 8
ENDMDL
MODEL 6
REMARK VINA RESULT:      -6.5      1.839      3.978
REMARK  Name = 
REMARK  12 active torsions:
REMARK  status: ('A' for Active; 'I' for Inactive)
REMARK    1  A    between atoms: C_1  and  N_2
REMARK    2  A    between atoms: C_3  and  C_5
REMARK    3  A    between atoms: C_5  and  N_6
REMARK    4  A    between atoms: C_5  and  C_23
REMARK    5  A    between atoms: C_7  and  C_9
REMARK    6  A    between atoms: C_12  and  C_13
REMARK    7  A    between atoms: C_16  and  O_17
REMARK    8  A    between atoms: O_17  and  C_18
REMARK    9  A    between atoms: C_18  and  C_19
REMARK   10  A    between atoms: C_23  and  C_24
REMARK   11  A    between atoms: C_23  and  C_25
REMARK   12  A    between atoms: C_23  and  C_26
REMARK                            x       y       z     vdW  Elec       q    Type
REMARK                         _______ _______ _______ _____ _____    ______ ____
ROOT
ATOM      1  N   UNL     1       0.702   9.862  18.802  0.00  0.00    +0.000 N 
ATOM      2  C   UNL     1       1.272   8.953  19.664  0.00  0.00    +0.000 C 
ATOM      3  O   UNL     1       1.025   8.939  20.872  0.00  0.00    +0.000 OA
ATOM      4  H   UNL     1       0.832   9.685  17.809  0.00  0.00    +0.000 HD
ENDROOT
BRANCH   2   5
ATOM      5  C   UNL     1       2.165   7.921  19.064  0.00  0.00    +0.000 A 
ATOM      6  C   UNL     1       2.747   8.166  17.825  0.00  0.00    +0.000 A 
ATOM      7  N   UNL     1       3.669   7.339  17.273  0.00  0.00    +0.000 NA
ATOM      8  C   UNL     1       4.018   6.242  18.007  0.00  0.00    +0.000 A 
ATOM      9  C   UNL     1       3.359   5.980  19.227  0.00  0.00    +0.000 A 
ATOM     10  N   UNL     1       2.434   6.803  19.791  0.00  0.00    +0.000 NA
BRANCH   8  11
ATOM     11  C   UNL     1       5.141   5.353  17.507  0.00  0.00    +0.000 C 
ATOM     12  C   UNL     1       6.009   5.746  16.334  0.00  0.00    +0.000 C 
ATOM     13  C   UNL     1       6.564   5.825  17.723  0.00  0.00    +0.000 C 
ENDBRANCH   8  11
BRANCH   9  14
ATOM     14  O   UNL     1       3.777   4.862  19.920  0.00  0.00    +0.000 OA
BRANCH  14  15
ATOM     15  C   UNL     1       2.717   3.980  20.289  0.00  0.00    +0.000 C 
BRANCH  15  16
ATOM     16  C   UNL     1       2.463   3.060  19.131  0.00  0.00    +0.000 C 
ATOM     17  C   UNL     1       1.270   2.131  19.150  0.00  0.00    +0.000 C 
ATOM     18  C   UNL     1       1.300   3.293  18.200  0.00  0.00    +0.000 C 
ENDBRANCH  15  16
ENDBRANCH  14  15
ENDBRANCH   9  14
ENDBRANCH   2   5
BRANCH   1  19
ATOM     19  C   UNL     1      -0.244  10.914  19.231  0.00  0.00    +0.000 C 
BRANCH  19  22
ATOM     20  C   UNL     1      -2.527  10.063  16.262  0.00  0.00    +0.000 C 
ATOM     21  N   UNL     1      -1.385  10.252  17.119  0.00  0.00    +0.000 N 
ATOM     22  C   UNL     1      -1.536  10.845  18.352  0.00  0.00    +0.000 C 
ATOM     23  O   UNL     1      -2.644  11.220  18.729  0.00  0.00    +0.000 OA
ATOM     24  H   UNL     1      -0.458   9.965  16.816  0.00  0.00    +0.000 HD
ENDBRANCH  19  22
BRANCH  19  25
ATOM     25  C   UNL     1       0.425  12.334  19.254  0.00  0.00    +0.000 C 
ATOM     26  C   UNL     1       0.624  12.835  20.706  0.00  0.00    +0.000 C 
ATOM     27  C   UNL     1       1.814  12.290  18.575  0.00  0.00    +0.000 C 
ATOM     28  C   UNL     1      -0.417  13.375  18.491  0.00  0.00    +0.000 C 
ENDBRANCH  19  25
ENDBRANCH   1  19
TORSDOF 8
ENDMDL
MODEL 7
REMARK VINA RESULT:      -6.5      1.956      4.057
REMARK  Name = 
REMARK  12 active torsions:
REMARK  status: ('A' for Active; 'I' for Inactive)
REMARK    1  A    between atoms: C_1  and  N_2
REMARK    2  A    between atoms: C_3  and  C_5
REMARK    3  A    between atoms: C_5  and  N_6
REMARK    4  A    between atoms: C_5  and  C_23
REMARK    5  A    between atoms: C_7  and  C_9
REMARK    6  A    between atoms: C_12  and  C_13
REMARK    7  A    between atoms: C_16  and  O_17
REMARK    8  A    between atoms: O_17  and  C_18
REMARK    9  A    between atoms: C_18  and  C_19
REMARK   10  A    between atoms: C_23  and  C_24
REMARK   11  A    between atoms: C_23  and  C_25
REMARK   12  A    between atoms: C_23  and  C_26
REMARK                            x       y       z     vdW  Elec       q    Type
REMARK                         _______ _______ _______ _____ _____    ______ ____
ROOT
ATOM      1  N   UNL     1       0.491  10.434  18.963  0.00  0.00    +0.000 N 
ATOM      2  C   UNL     1       1.056   9.531  19.835  0.00  0.00    +0.000 C 
ATOM      3  O   UNL     1       0.890   9.596  21.055  0.00  0.00    +0.000 OA
ATOM      4  H   UNL     1       0.542  10.198  17.975  0.00  0.00    +0.000 HD
ENDROOT
BRANCH   2   5
ATOM      5  C   UNL     1       1.833   8.409  19.237  0.00  0.00    +0.000 A 
ATOM      6  C   UNL     1       2.379   8.564  17.967  0.00  0.00    +0.000 A 
ATOM      7  N   UNL     1       3.205   7.645  17.409  0.00  0.00    +0.000 NA
ATOM      8  C   UNL     1       3.494   6.547  18.167  0.00  0.00    +0.000 A 
ATOM      9  C   UNL     1       2.869   6.381  19.421  0.00  0.00    +0.000 A 
ATOM     10  N   UNL     1       2.040   7.296  19.992  0.00  0.00    +0.000 NA
BRANCH   8  11
ATOM     11  C   UNL     1       4.517   5.551  17.653  0.00  0.00    +0.000 C 
ATOM     12  C   UNL     1       5.276   5.777  16.367  0.00  0.00    +0.000 C 
ATOM     13  C   UNL     1       5.974   5.961  17.678  0.00  0.00    +0.000 C 
ENDBRANCH   8  11
BRANCH   9  14
ATOM     14  O   UNL     1       3.223   5.255  20.136  0.00  0.00    +0.000 OA
BRANCH  14  15
ATOM     15  C   UNL     1       2.117   4.430  20.502  0.00  0.00    +0.000 C 
BRANCH  15  16
ATOM     16  C   UNL     1       2.088   3.260  19.562  0.00  0.00    +0.000 C 
ATOM     17  C   UNL     1       0.782   2.557  19.269  0.00  0.00    +0.000 C 
ATOM     18  C   UNL     1       1.447   3.377  18.202  0.00  0.00    +0.000 C 
ENDBRANCH  15  16
ENDBRANCH  14  15
ENDBRANCH   9  14
ENDBRANCH   2   5
BRANCH   1  19
ATOM     19  C   UNL     1      -0.350  11.571  19.393  0.00  0.00    +0.000 C 
BRANCH  19  22
ATOM     20  C   UNL     1      -2.678  11.090  16.376  0.00  0.00    +0.000 C 
ATOM     21  N   UNL     1      -1.523  11.171  17.233  0.00  0.00    +0.000 N 
ATOM     22  C   UNL     1      -1.654  11.612  18.531  0.00  0.00    +0.000 C 
ATOM     23  O   UNL     1      -2.755  11.941  18.966  0.00  0.00    +0.000 OA
ATOM     24  H   UNL     1      -0.602  10.921  16.884  0.00  0.00    +0.000 HD
ENDBRANCH  19  22
BRANCH  19  25
ATOM     25  C   UNL     1       0.445  12.924  19.393  0.00  0.00    +0.000 C 
ATOM     26  C   UNL     1       1.645  12.869  18.416  0.00  0.00    +0.000 C 
ATOM     27  C   UNL     1      -0.469  14.092  18.954  0.00  0.00    +0.000 C 
ATOM     28  C   UNL     1       0.978  13.274  20.797  0.00  0.00    +0.000 C 
ENDBRANCH  19  25
ENDBRANCH   1  19
TORSDOF 8
ENDMDL
MODEL 8
REMARK VINA RESULT:      -6.5      1.931      2.658
REMARK  Name = 
REMARK  12 active torsions:
REMARK  status: ('A' for Active; 'I' for Inactive)
REMARK    1  A    between atoms: C_1  and  N_2
REMARK    2  A    between atoms: C_3  and  C_5
REMARK    3  A    between atoms: C_5  and  N_6
REMARK    4  A    between atoms: C_5  and  C_23
REMARK    5  A    between atoms: C_7  and  C_9
REMARK    6  A    between atoms: C_12  and  C_13
REMARK    7  A    between atoms: C_16  and  O_17
REMARK    8  A    between atoms: O_17  and  C_18
REMARK    9  A    between atoms: C_18  and  C_19
REMARK   10  A    between atoms: C_23  and  C_24
REMARK   11  A    between atoms: C_23  and  C_25
REMARK   12  A    between atoms: C_23  and  C_26
REMARK                            x       y       z     vdW  Elec       q    Type
REMARK                         _______ _______ _______ _____ _____    ______ ____
ROOT
ATOM      1  N   UNL     1      -0.651  10.227  18.309  0.00  0.00    +0.000 N 
ATOM      2  C   UNL     1       0.695  10.326  18.578  0.00  0.00    +0.000 C 
ATOM      3  O   UNL     1       1.299  11.401  18.554  0.00  0.00    +0.000 OA
ATOM      4  H   UNL     1      -1.088   9.334  18.523  0.00  0.00    +0.000 HD
ENDROOT
BRANCH   2   5
ATOM      5  C   UNL     1       1.400   9.073  18.975  0.00  0.00    +0.000 A 
ATOM      6  C   UNL     1       1.217   8.572  20.259  0.00  0.00    +0.000 A 
ATOM      7  N   UNL     1       1.716   7.375  20.655  0.00  0.00    +0.000 NA
ATOM      8  C   UNL     1       2.405   6.663  19.716  0.00  0.00    +0.000 A 
ATOM      9  C   UNL     1       2.637   7.229  18.443  0.00  0.00    +0.000 A 
ATOM     10  N   UNL     1       2.141   8.428  18.034  0.00  0.00    +0.000 NA
BRANCH   8  11
ATOM     11  C   UNL     1       2.871   5.260  20.055  0.00  0.00    +0.000 C 
ATOM     12  C   UNL     1       2.226   4.449  21.155  0.00  0.00    +0.000 C 
ATOM     13  C   UNL     1       1.942   4.110  19.724  0.00  0.00    +0.000 C 
ENDBRANCH   8  11
BRANCH   9  14
ATOM     14  O   UNL     1       3.327   6.444  17.542  0.00  0.00    +0.000 OA
BRANCH  14  15
ATOM     15  C   UNL     1       4.597   6.976  17.165  0.00  0.00    +0.000 C 
BRANCH  15  16
ATOM     16  C   UNL     1       5.149   6.110  16.071  0.00  0.00    +0.000 C 
ATOM     17  C   UNL     1       6.392   5.283  16.314  0.00  0.00    +0.000 C 
ATOM     18  C   UNL     1       5.060   4.607  16.155  0.00  0.00    +0.000 C 
ENDBRANCH  15  16
ENDBRANCH  14  15
ENDBRANCH   9  14
ENDBRANCH   2   5
BRANCH   1  19
ATOM     19  C   UNL     1      -1.501  11.383  17.953  0.00  0.00    +0.000 C 
BRANCH  19  22
ATOM     20  C   UNL     1      -1.313  14.539  20.132  0.00  0.00    +0.000 C 
ATOM     21  N   UNL     1      -1.141  13.576  19.076  0.00  0.00    +0.000 N 
ATOM     22  C   UNL     1      -1.671  12.311  19.199  0.00  0.00    +0.000 C 
ATOM     23  O   UNL     1      -2.291  11.995  20.213  0.00  0.00    +0.000 OA
ATOM     24  H   UNL     1      -0.615  13.814  18.239  0.00  0.00    +0.000 HD
ENDBRANCH  19  22
BRANCH  19  25
ATOM     25  C   UNL     1      -2.863  10.936  17.313  0.00  0.00    +0.000 C 
ATOM     26  C   UNL     1      -4.014  11.888  17.723  0.00  0.00    +0.000 C 
ATOM     27  C   UNL     1      -2.767  10.949  15.769  0.00  0.00    +0.000 C 
ATOM     28  C   UNL     1      -3.247   9.502  17.727  0.00  0.00    +0.000 C 
ENDBRANCH  19  25
ENDBRANCH   1  19
TORSDOF 8
ENDMDL
MODEL 9
REMARK VINA RESULT:      -6.5      1.762      2.815
REMARK  Name = 
REMARK  12 active torsions:
REMARK  status: ('A' for Active; 'I' for Inactive)
REMARK    1  A    between atoms: C_1  and  N_2
REMARK    2  A    between atoms: C_3  and  C_5
REMARK    3  A    between atoms: C_5  and  N_6
REMARK    4  A    between atoms: C_5  and  C_23
REMARK    5  A    between atoms: C_7  and  C_9
REMARK    6  A    between atoms: C_12  and  C_13
REMARK    7  A    between atoms: C_16  and  O_17
REMARK    8  A    between atoms: O_17  and  C_18
REMARK    9  A    between atoms: C_18  and  C_19
REMARK   10  A    between atoms: C_23  and  C_24
REMARK   11  A    between atoms: C_23  and  C_25
REMARK   12  A    between atoms: C_23  and  C_26
REMARK                            x       y       z     vdW  Elec       q    Type
REMARK                         _______ _______ _______ _____ _____    ______ ____
ROOT
ATOM      1  N   UNL     1       0.777   9.811  19.305  0.00  0.00    +0.000 N 
ATOM      2  C   UNL     1       1.219   9.007  20.331  0.00  0.00    +0.000 C 
ATOM      3  O   UNL     1       1.058   9.298  21.518  0.00  0.00    +0.000 OA
ATOM      4  H   UNL     1       0.801   9.406  18.372  0.00  0.00    +0.000 HD
ENDROOT
BRANCH   2   5
ATOM      5  C   UNL     1       1.851   7.712  19.950  0.00  0.00    +0.000 A 
ATOM      6  C   UNL     1       1.675   6.605  20.774  0.00  0.00    +0.000 A 
ATOM      7  N   UNL     1       2.106   5.365  20.435  0.00  0.00    +0.000 NA
ATOM      8  C   UNL     1       2.719   5.245  19.221  0.00  0.00    +0.000 A 
ATOM      9  C   UNL     1       2.949   6.397  18.439  0.00  0.00    +0.000 A 
ATOM     10  N   UNL     1       2.520   7.646  18.768  0.00  0.00    +0.000 NA
BRANCH   8  11
ATOM     11  C   UNL     1       3.101   3.863  18.726  0.00  0.00    +0.000 C 
ATOM     12  C   UNL     1       2.455   2.612  19.273  0.00  0.00    +0.000 C 
ATOM     13  C   UNL     1       2.081   3.100  17.907  0.00  0.00    +0.000 C 
ENDBRANCH   8  11
BRANCH   9  14
ATOM     14  O   UNL     1       3.559   6.196  17.218  0.00  0.00    +0.000 OA
BRANCH  14  15
ATOM     15  C   UNL     1       4.956   6.487  17.213  0.00  0.00    +0.000 C 
BRANCH  15  16
ATOM     16  C   UNL     1       5.551   5.860  15.986  0.00  0.00    +0.000 C 
ATOM     17  C   UNL     1       6.848   5.089  16.083  0.00  0.00    +0.000 C 
ATOM     18  C   UNL     1       5.562   4.362  15.812  0.00  0.00    +0.000 C 
ENDBRANCH  15  16
ENDBRANCH  14  15
ENDBRANCH   9  14
ENDBRANCH   2   5
BRANCH   1  19
ATOM     19  C   UNL     1       0.084  11.100  19.516  0.00  0.00    +0.000 C 
BRANCH  19  22
ATOM     20  C   UNL     1      -2.347  10.415  16.623  0.00  0.00    +0.000 C 
ATOM     21  N   UNL     1      -1.168  10.519  17.444  0.00  0.00    +0.000 N 
ATOM     22  C   UNL     1      -1.235  11.128  18.677  0.00  0.00    +0.000 C 
ATOM     23  O   UNL     1      -2.299  11.590  19.083  0.00  0.00    +0.000 OA
ATOM     24  H   UNL     1      -0.276  10.159  17.115  0.00  0.00    +0.000 HD
ENDBRANCH  19  22
BRANCH  19  25
ATOM     25  C   UNL     1       1.027  12.326  19.246  0.00  0.00    +0.000 C 
ATOM     26  C   UNL     1       1.686  12.823  20.556  0.00  0.00    +0.000 C 
ATOM     27  C   UNL     1       2.158  11.935  18.266  0.00  0.00    +0.000 C 
ATOM     28  C   UNL     1       0.265  13.504  18.608  0.00  0.00    +0.000 C 
ENDBRANCH  19  25
ENDBRANCH   1  19
TORSDOF 8
ENDMDL
