MODEL 1
REMARK VINA RESULT:      -9.4      0.000      0.000
REMARK  Name = 
REMARK  8 active torsions:
REMARK  status: ('A' for Active; 'I' for Inactive)
REMARK    1  A    between atoms: O_1  and  C_2
REMARK    2  A    between atoms: C_2  and  C_3
REMARK    3  A    between atoms: C_2  and  C_26
REMARK    4  A    between atoms: C_3  and  O_4
REMARK    5  A    between atoms: O_4  and  C_5
REMARK    6  A    between atoms: C_9  and  C_10
REMARK    7  A    between atoms: N_16  and  C_17
REMARK    8  A    between atoms: C_26  and  N_27
REMARK                            x       y       z     vdW  Elec       q    Type
REMARK                         _______ _______ _______ _____ _____    ______ ____
ROOT
ATOM      1  C   UNL     1       1.040  10.082  20.835  0.00  0.00    +0.000 A 
ATOM      2  C   UNL     1       1.174  10.710  19.597  0.00  0.00    +0.000 A 
ATOM      3  C   UNL     1       1.591   9.989  18.480  0.00  0.00    +0.000 A 
ATOM      4  C   UNL     1       1.876   8.628  18.589  0.00  0.00    +0.000 A 
ATOM      5  C   UNL     1       1.744   7.955  19.813  0.00  0.00    +0.000 A 
ATOM      6  C   UNL     1       1.316   8.713  20.930  0.00  0.00    +0.000 A 
ENDROOT
BRANCH   5   7
ATOM      7  C   UNL     1       2.070   6.511  19.926  0.00  0.00    +0.000 A 
ATOM      8  C   UNL     1       1.564   5.695  20.952  0.00  0.00    +0.000 A 
ATOM      9  C   UNL     1       1.900   4.332  21.059  0.00  0.00    +0.000 A 
ATOM     10  C   UNL     1       2.776   3.767  20.117  0.00  0.00    +0.000 A 
ATOM     11  N   UNL     1       3.287   2.497  20.056  0.00  0.00    +0.000 NA
ATOM     12  C   UNL     1       4.141   2.530  19.058  0.00  0.00    +0.000 A 
ATOM     13  N   UNL     1       4.197   3.759  18.436  0.00  0.00    +0.000 N 
ATOM     14  C   UNL     1       3.279   4.564  19.094  0.00  0.00    +0.000 A 
ATOM     15  C   UNL     1       2.926   5.920  18.982  0.00  0.00    +0.000 A 
BRANCH  13  16
ATOM     16  C   UNL     1       5.139   4.181  17.459  0.00  0.00    +0.000 A 
ATOM     17  C   UNL     1       6.403   4.660  17.830  0.00  0.00    +0.000 A 
ATOM     18  C   UNL     1       7.403   4.835  16.879  0.00  0.00    +0.000 A 
ATOM     19  C   UNL     1       7.137   4.574  15.540  0.00  0.00    +0.000 A 
ATOM     20  C   UNL     1       5.857   4.181  15.145  0.00  0.00    +0.000 A 
ATOM     21  C   UNL     1       4.849   3.997  16.091  0.00  0.00    +0.000 A 
ENDBRANCH  13  16
ENDBRANCH   5   7
BRANCH   1  22
ATOM     22  O   UNL     1       0.653  10.696  22.005  0.00  0.00    +0.000 OA
BRANCH  22  23
ATOM     23  C   UNL     1      -0.743  11.003  22.084  0.00  0.00    +0.000 C 
BRANCH  23  24
ATOM     24  C   UNL     1      -0.986  12.520  22.147  0.00  0.00    +0.000 C 
BRANCH  24  25
ATOM     25  O   UNL     1      -0.497  13.023  23.395  0.00  0.00    +0.000 OA
ATOM     26  H   UNL     1       0.114  12.348  23.744  0.00  0.00    +0.000 HD
ENDBRANCH  24  25
BRANCH  24  27
ATOM     27  C   UNL     1      -2.514  12.747  22.033  0.00  0.00    +0.000 C 
BRANCH  27  28
ATOM     28  N   UNL     1      -3.073  12.964  20.693  0.00  0.00    +0.000 NA
ATOM     29  C   UNL     1      -4.329  12.207  20.544  0.00  0.00    +0.000 C 
ATOM     30  C   UNL     1      -4.895  12.396  19.136  0.00  0.00    +0.000 C 
ATOM     31  C   UNL     1      -3.955  11.639  18.241  0.00  0.00    +0.000 A 
ATOM     32  C   UNL     1      -4.421  10.713  17.308  0.00  0.00    +0.000 A 
ATOM     33  C   UNL     1      -3.514   9.878  16.661  0.00  0.00    +0.000 A 
ATOM     34  C   UNL     1      -2.146  10.004  16.914  0.00  0.00    +0.000 A 
ATOM     35  C   UNL     1      -1.674  10.966  17.812  0.00  0.00    +0.000 A 
ATOM     36  C   UNL     1      -2.578  11.773  18.509  0.00  0.00    +0.000 A 
ATOM     37  C   UNL     1      -2.121  12.758  19.579  0.00  0.00    +0.000 C 
ENDBRANCH  27  28
ENDBRANCH  24  27
ENDBRANCH  23  24
ENDBRANCH  22  23
ENDBRANCH   1  22
TORSDOF 8
ENDMDL
MODEL 2
REMARK VINA RESULT:      -9.1      1.547      2.544
REMARK  Name = 
REMARK  8 active torsions:
REMARK  status: ('A' for Active; 'I' for Inactive)
REMARK    1  A    between atoms: O_1  and  C_2
REMARK    2  A    between atoms: C_2  and  C_3
REMARK    3  A    between atoms: C_2  and  C_26
REMARK    4  A    between atoms: C_3  and  O_4
REMARK    5  A    between atoms: O_4  and  C_5
REMARK    6  A    between atoms: C_9  and  C_10
REMARK    7  A    between atoms: N_16  and  C_17
REMARK    8  A    between atoms: C_26  and  N_27
REMARK                            x       y       z     vdW  Elec       q    Type
REMARK                         _______ _______ _______ _____ _____    ______ ____
ROOT
ATOM      1  C   UNL     1       0.899  10.242  20.014  0.00  0.00    +0.000 A 
ATOM      2  C   UNL     1       1.247  10.763  18.768  0.00  0.00    +0.000 A 
ATOM      3  C   UNL     1       1.887   9.964  17.822  0.00  0.00    +0.000 A 
ATOM      4  C   UNL     1       2.185   8.634  18.113  0.00  0.00    +0.000 A 
ATOM      5  C   UNL     1       1.844   8.067  19.349  0.00  0.00    +0.000 A 
ATOM      6  C   UNL     1       1.192   8.901  20.290  0.00  0.00    +0.000 A 
ENDROOT
BRANCH   5   7
ATOM      7  C   UNL     1       2.183   6.655  19.659  0.00  0.00    +0.000 A 
ATOM      8  C   UNL     1       1.694   5.986  20.794  0.00  0.00    +0.000 A 
ATOM      9  C   UNL     1       2.043   4.653  21.086  0.00  0.00    +0.000 A 
ATOM     10  C   UNL     1       2.916   3.970  20.224  0.00  0.00    +0.000 A 
ATOM     11  N   UNL     1       3.437   2.708  20.335  0.00  0.00    +0.000 NA
ATOM     12  C   UNL     1       4.282   2.608  19.333  0.00  0.00    +0.000 A 
ATOM     13  N   UNL     1       4.322   3.739  18.546  0.00  0.00    +0.000 N 
ATOM     14  C   UNL     1       3.403   4.620  19.095  0.00  0.00    +0.000 A 
ATOM     15  C   UNL     1       3.037   5.944  18.798  0.00  0.00    +0.000 A 
BRANCH  13  16
ATOM     16  C   UNL     1       5.252   4.027  17.511  0.00  0.00    +0.000 A 
ATOM     17  C   UNL     1       4.877   3.962  16.161  0.00  0.00    +0.000 A 
ATOM     18  C   UNL     1       5.704   4.479  15.170  0.00  0.00    +0.000 A 
ATOM     19  C   UNL     1       6.934   5.028  15.513  0.00  0.00    +0.000 A 
ATOM     20  C   UNL     1       7.358   5.019  16.842  0.00  0.00    +0.000 A 
ATOM     21  C   UNL     1       6.534   4.509  17.845  0.00  0.00    +0.000 A 
ENDBRANCH  13  16
ENDBRANCH   5   7
BRANCH   1  22
ATOM     22  O   UNL     1       0.281  10.939  21.027  0.00  0.00    +0.000 OA
BRANCH  22  23
ATOM     23  C   UNL     1       0.691  12.305  21.148  0.00  0.00    +0.000 C 
BRANCH  23  24
ATOM     24  C   UNL     1      -0.469  13.207  21.601  0.00  0.00    +0.000 C 
BRANCH  24  25
ATOM     25  O   UNL     1      -0.248  13.610  22.957  0.00  0.00    +0.000 OA
ATOM     26  H   UNL     1      -1.116  13.882  23.308  0.00  0.00    +0.000 HD
ENDBRANCH  24  25
BRANCH  24  27
ATOM     27  C   UNL     1      -1.770  12.375  21.487  0.00  0.00    +0.000 C 
BRANCH  27  28
ATOM     28  N   UNL     1      -3.047  13.089  21.600  0.00  0.00    +0.000 NA
ATOM     29  C   UNL     1      -3.721  12.717  22.857  0.00  0.00    +0.000 C 
ATOM     30  C   UNL     1      -5.071  13.425  22.962  0.00  0.00    +0.000 C 
ATOM     31  C   UNL     1      -5.934  12.761  21.926  0.00  0.00    +0.000 A 
ATOM     32  C   UNL     1      -7.204  12.274  22.234  0.00  0.00    +0.000 A 
ATOM     33  C   UNL     1      -7.872  11.474  21.313  0.00  0.00    +0.000 A 
ATOM     34  C   UNL     1      -7.292  11.205  20.071  0.00  0.00    +0.000 A 
ATOM     35  C   UNL     1      -6.040  11.733  19.741  0.00  0.00    +0.000 A 
ATOM     36  C   UNL     1      -5.334  12.492  20.679  0.00  0.00    +0.000 A 
ATOM     37  C   UNL     1      -3.922  12.997  20.410  0.00  0.00    +0.000 C 
ENDBRANCH  27  28
ENDBRANCH  24  27
ENDBRANCH  23  24
ENDBRANCH  22  23
ENDBRANCH   1  22
TORSDOF 8
ENDMDL
MODEL 3
REMARK VINA RESULT:      -9.0      1.921      3.295
REMARK  Name = 
REMARK  8 active torsions:
REMARK  status: ('A' for Active; 'I' for Inactive)
REMARK    1  A    between atoms: O_1  and  C_2
REMARK    2  A    between atoms: C_2  and  C_3
REMARK    3  A    between atoms: C_2  and  C_26
REMARK    4  A    between atoms: C_3  and  O_4
REMARK    5  A    between atoms: O_4  and  C_5
REMARK    6  A    between atoms: C_9  and  C_10
REMARK    7  A    between atoms: N_16  and  C_17
REMARK    8  A    between atoms: C_26  and  N_27
REMARK                            x       y       z     vdW  Elec       q    Type
REMARK                         _______ _______ _______ _____ _____    ______ ____
ROOT
ATOM      1  C   UNL     1       1.022  10.186  19.785  0.00  0.00    +0.000 A 
ATOM      2  C   UNL     1       0.687  10.566  21.084  0.00  0.00    +0.000 A 
ATOM      3  C   UNL     1       0.747   9.644  22.128  0.00  0.00    +0.000 A 
ATOM      4  C   UNL     1       1.145   8.331  21.882  0.00  0.00    +0.000 A 
ATOM      5  C   UNL     1       1.501   7.909  20.593  0.00  0.00    +0.000 A 
ATOM      6  C   UNL     1       1.433   8.868  19.553  0.00  0.00    +0.000 A 
ENDROOT
BRANCH   5   7
ATOM      7  C   UNL     1       1.904   6.503  20.335  0.00  0.00    +0.000 A 
ATOM      8  C   UNL     1       1.186   5.402  20.832  0.00  0.00    +0.000 A 
ATOM      9  C   UNL     1       1.594   4.075  20.597  0.00  0.00    +0.000 A 
ATOM     10  C   UNL     1       2.760   3.840  19.851  0.00  0.00    +0.000 A 
ATOM     11  N   UNL     1       3.376   2.653  19.551  0.00  0.00    +0.000 NA
ATOM     12  C   UNL     1       4.486   3.000  18.939  0.00  0.00    +0.000 A 
ATOM     13  N   UNL     1       4.618   4.364  18.794  0.00  0.00    +0.000 N 
ATOM     14  C   UNL     1       3.477   4.922  19.350  0.00  0.00    +0.000 A 
ATOM     15  C   UNL     1       3.056   6.244  19.572  0.00  0.00    +0.000 A 
BRANCH  13  16
ATOM     16  C   UNL     1       5.771   5.069  18.353  0.00  0.00    +0.000 A 
ATOM     17  C   UNL     1       5.862   5.562  17.044  0.00  0.00    +0.000 A 
ATOM     18  C   UNL     1       6.868   6.455  16.690  0.00  0.00    +0.000 A 
ATOM     19  C   UNL     1       7.819   6.833  17.631  0.00  0.00    +0.000 A 
ATOM     20  C   UNL     1       7.792   6.282  18.913  0.00  0.00    +0.000 A 
ATOM     21  C   UNL     1       6.784   5.391  19.280  0.00  0.00    +0.000 A 
ENDBRANCH  13  16
ENDBRANCH   5   7
BRANCH   1  22
ATOM     22  O   UNL     1       0.985  11.005  18.679  0.00  0.00    +0.000 OA
BRANCH  22  23
ATOM     23  C   UNL     1      -0.120  11.914  18.647  0.00  0.00    +0.000 C 
BRANCH  23  24
ATOM     24  C   UNL     1      -1.305  11.339  17.854  0.00  0.00    +0.000 C 
BRANCH  24  25
ATOM     25  O   UNL     1      -1.748  12.311  16.901  0.00  0.00    +0.000 OA
ATOM     26  H   UNL     1      -2.160  11.813  16.170  0.00  0.00    +0.000 HD
ENDBRANCH  24  25
BRANCH  24  27
ATOM     27  C   UNL     1      -2.430  11.024  18.871  0.00  0.00    +0.000 C 
BRANCH  27  28
ATOM     28  N   UNL     1      -3.500  12.016  19.032  0.00  0.00    +0.000 NA
ATOM     29  C   UNL     1      -3.465  12.576  20.395  0.00  0.00    +0.000 C 
ATOM     30  C   UNL     1      -4.603  13.579  20.582  0.00  0.00    +0.000 C 
ATOM     31  C   UNL     1      -5.851  12.742  20.609  0.00  0.00    +0.000 A 
ATOM     32  C   UNL     1      -6.799  12.876  21.624  0.00  0.00    +0.000 A 
ATOM     33  C   UNL     1      -7.819  11.936  21.735  0.00  0.00    +0.000 A 
ATOM     34  C   UNL     1      -7.917  10.898  20.805  0.00  0.00    +0.000 A 
ATOM     35  C   UNL     1      -6.996  10.791  19.758  0.00  0.00    +0.000 A 
ATOM     36  C   UNL     1      -5.934  11.696  19.668  0.00  0.00    +0.000 A 
ATOM     37  C   UNL     1      -4.843  11.558  18.613  0.00  0.00    +0.000 C 
ENDBRANCH  27  28
ENDBRANCH  24  27
ENDBRANCH  23  24
ENDBRANCH  22  23
ENDBRANCH   1  22
TORSDOF 8
ENDMDL
MODEL 4
REMARK VINA RESULT:      -9.0      0.750      1.134
REMARK  Name = 
REMARK  8 active torsions:
REMARK  status: ('A' for Active; 'I' for Inactive)
REMARK    1  A    between atoms: O_1  and  C_2
REMARK    2  A    between atoms: C_2  and  C_3
REMARK    3  A    between atoms: C_2  and  C_26
REMARK    4  A    between atoms: C_3  and  O_4
REMARK    5  A    between atoms: O_4  and  C_5
REMARK    6  A    between atoms: C_9  and  C_10
REMARK    7  A    between atoms: N_16  and  C_17
REMARK    8  A    between atoms: C_26  and  N_27
REMARK                            x       y       z     vdW  Elec       q    Type
REMARK                         _______ _______ _______ _____ _____    ______ ____
ROOT
ATOM      1  C   UNL     1       1.054  10.314  20.041  0.00  0.00    +0.000 A 
ATOM      2  C   UNL     1       1.265  10.782  18.745  0.00  0.00    +0.000 A 
ATOM      3  C   UNL     1       1.764   9.932  17.759  0.00  0.00    +0.000 A 
ATOM      4  C   UNL     1       2.055   8.602  18.061  0.00  0.00    +0.000 A 
ATOM      5  C   UNL     1       1.848   8.088  19.349  0.00  0.00    +0.000 A 
ATOM      6  C   UNL     1       1.338   8.974  20.329  0.00  0.00    +0.000 A 
ENDROOT
BRANCH   5   7
ATOM      7  C   UNL     1       2.181   6.677  19.668  0.00  0.00    +0.000 A 
ATOM      8  C   UNL     1       1.686   6.017  20.807  0.00  0.00    +0.000 A 
ATOM      9  C   UNL     1       2.029   4.685  21.107  0.00  0.00    +0.000 A 
ATOM     10  C   UNL     1       2.900   3.992  20.251  0.00  0.00    +0.000 A 
ATOM     11  N   UNL     1       3.415   2.728  20.370  0.00  0.00    +0.000 NA
ATOM     12  C   UNL     1       4.261   2.618  19.370  0.00  0.00    +0.000 A 
ATOM     13  N   UNL     1       4.307   3.744  18.576  0.00  0.00    +0.000 N 
ATOM     14  C   UNL     1       3.392   4.633  19.118  0.00  0.00    +0.000 A 
ATOM     15  C   UNL     1       3.032   5.957  18.813  0.00  0.00    +0.000 A 
BRANCH  13  16
ATOM     16  C   UNL     1       5.240   4.022  17.541  0.00  0.00    +0.000 A 
ATOM     17  C   UNL     1       4.876   3.920  16.191  0.00  0.00    +0.000 A 
ATOM     18  C   UNL     1       5.702   4.426  15.193  0.00  0.00    +0.000 A 
ATOM     19  C   UNL     1       6.922   5.001  15.531  0.00  0.00    +0.000 A 
ATOM     20  C   UNL     1       7.336   5.029  16.863  0.00  0.00    +0.000 A 
ATOM     21  C   UNL     1       6.513   4.530  17.872  0.00  0.00    +0.000 A 
ENDBRANCH  13  16
ENDBRANCH   5   7
BRANCH   1  22
ATOM     22  O   UNL     1       0.583  11.065  21.094  0.00  0.00    +0.000 OA
BRANCH  22  23
ATOM     23  C   UNL     1       1.192  12.353  21.229  0.00  0.00    +0.000 C 
BRANCH  23  24
ATOM     24  C   UNL     1       0.144  13.455  21.458  0.00  0.00    +0.000 C 
BRANCH  24  25
ATOM     25  O   UNL     1       0.436  14.132  22.686  0.00  0.00    +0.000 OA
ATOM     26  H   UNL     1       1.341  14.482  22.599  0.00  0.00    +0.000 HD
ENDBRANCH  24  25
BRANCH  24  27
ATOM     27  C   UNL     1      -1.241  12.763  21.536  0.00  0.00    +0.000 C 
BRANCH  27  28
ATOM     28  N   UNL     1      -2.186  13.007  20.441  0.00  0.00    +0.000 NA
ATOM     29  C   UNL     1      -3.480  12.369  20.744  0.00  0.00    +0.000 C 
ATOM     30  C   UNL     1      -4.457  12.584  19.588  0.00  0.00    +0.000 C 
ATOM     31  C   UNL     1      -3.928  11.726  18.474  0.00  0.00    +0.000 A 
ATOM     32  C   UNL     1      -4.747  10.831  17.786  0.00  0.00    +0.000 A 
ATOM     33  C   UNL     1      -4.174   9.903  16.922  0.00  0.00    +0.000 A 
ATOM     34  C   UNL     1      -2.793   9.906  16.711  0.00  0.00    +0.000 A 
ATOM     35  C   UNL     1      -1.976  10.835  17.361  0.00  0.00    +0.000 A 
ATOM     36  C   UNL     1      -2.532  11.736  18.274  0.00  0.00    +0.000 A 
ATOM     37  C   UNL     1      -1.672  12.693  19.090  0.00  0.00    +0.000 C 
ENDBRANCH  27  28
ENDBRANCH  24  27
ENDBRANCH  23  24
ENDBRANCH  22  23
ENDBRANCH   1  22
TORSDOF 8
ENDMDL
MODEL 5
REMARK VINA RESULT:      -8.9      2.057      3.483
REMARK  Name = 
REMARK  8 active torsions:
REMARK  status: ('A' for Active; 'I' for Inactive)
REMARK    1  A    between atoms: O_1  and  C_2
REMARK    2  A    between atoms: C_2  and  C_3
REMARK    3  A    between atoms: C_2  and  C_26
REMARK    4  A    between atoms: C_3  and  O_4
REMARK    5  A    between atoms: O_4  and  C_5
REMARK    6  A    between atoms: C_9  and  C_10
REMARK    7  A    between atoms: N_16  and  C_17
REMARK    8  A    between atoms: C_26  and  N_27
REMARK                            x       y       z     vdW  Elec       q    Type
REMARK                         _______ _______ _______ _____ _____    ______ ____
ROOT
ATOM      1  C   UNL     1       0.686  10.054  20.076  0.00  0.00    +0.000 A 
ATOM      2  C   UNL     1       1.115  10.638  18.885  0.00  0.00    +0.000 A 
ATOM      3  C   UNL     1       1.871   9.905  17.971  0.00  0.00    +0.000 A 
ATOM      4  C   UNL     1       2.204   8.578  18.240  0.00  0.00    +0.000 A 
ATOM      5  C   UNL     1       1.784   7.949  19.421  0.00  0.00    +0.000 A 
ATOM      6  C   UNL     1       1.015   8.717  20.329  0.00  0.00    +0.000 A 
ENDROOT
BRANCH   5   7
ATOM      7  C   UNL     1       2.160   6.542  19.710  0.00  0.00    +0.000 A 
ATOM      8  C   UNL     1       1.669   5.835  20.821  0.00  0.00    +0.000 A 
ATOM      9  C   UNL     1       2.053   4.509  21.093  0.00  0.00    +0.000 A 
ATOM     10  C   UNL     1       2.963   3.870  20.236  0.00  0.00    +0.000 A 
ATOM     11  N   UNL     1       3.521   2.622  20.333  0.00  0.00    +0.000 NA
ATOM     12  C   UNL     1       4.389   2.569  19.347  0.00  0.00    +0.000 A 
ATOM     13  N   UNL     1       4.410   3.716  18.584  0.00  0.00    +0.000 N 
ATOM     14  C   UNL     1       3.454   4.558  19.131  0.00  0.00    +0.000 A 
ATOM     15  C   UNL     1       3.053   5.876  18.853  0.00  0.00    +0.000 A 
BRANCH  13  16
ATOM     16  C   UNL     1       5.351   4.054  17.574  0.00  0.00    +0.000 A 
ATOM     17  C   UNL     1       5.052   3.878  16.216  0.00  0.00    +0.000 A 
ATOM     18  C   UNL     1       5.864   4.434  15.233  0.00  0.00    +0.000 A 
ATOM     19  C   UNL     1       7.008   5.135  15.596  0.00  0.00    +0.000 A 
ATOM     20  C   UNL     1       7.365   5.242  16.941  0.00  0.00    +0.000 A 
ATOM     21  C   UNL     1       6.556   4.694  17.935  0.00  0.00    +0.000 A 
ENDBRANCH  13  16
ENDBRANCH   5   7
BRANCH   1  22
ATOM     22  O   UNL     1      -0.049  10.684  21.055  0.00  0.00    +0.000 OA
BRANCH  22  23
ATOM     23  C   UNL     1      -0.431  12.028  20.743  0.00  0.00    +0.000 C 
BRANCH  23  24
ATOM     24  C   UNL     1      -1.833  12.358  21.281  0.00  0.00    +0.000 C 
BRANCH  24  25
ATOM     25  O   UNL     1      -2.664  12.786  20.196  0.00  0.00    +0.000 OA
ATOM     26  H   UNL     1      -2.349  12.311  19.404  0.00  0.00    +0.000 HD
ENDBRANCH  24  25
BRANCH  24  27
ATOM     27  C   UNL     1      -1.671  13.494  22.321  0.00  0.00    +0.000 C 
BRANCH  27  28
ATOM     28  N   UNL     1      -2.723  13.646  23.333  0.00  0.00    +0.000 NA
ATOM     29  C   UNL     1      -3.274  12.325  23.687  0.00  0.00    +0.000 C 
ATOM     30  C   UNL     1      -4.399  12.480  24.710  0.00  0.00    +0.000 C 
ATOM     31  C   UNL     1      -5.530  13.107  23.945  0.00  0.00    +0.000 A 
ATOM     32  C   UNL     1      -6.819  12.576  23.979  0.00  0.00    +0.000 A 
ATOM     33  C   UNL     1      -7.778  13.049  23.088  0.00  0.00    +0.000 A 
ATOM     34  C   UNL     1      -7.459  14.081  22.202  0.00  0.00    +0.000 A 
ATOM     35  C   UNL     1      -6.181  14.649  22.201  0.00  0.00    +0.000 A 
ATOM     36  C   UNL     1      -5.193  14.145  23.052  0.00  0.00    +0.000 A 
ATOM     37  C   UNL     1      -3.757  14.654  23.012  0.00  0.00    +0.000 C 
ENDBRANCH  27  28
ENDBRANCH  24  27
ENDBRANCH  23  24
ENDBRANCH  22  23
ENDBRANCH   1  22
TORSDOF 8
ENDMDL
MODEL 6
REMARK VINA RESULT:      -8.9      0.967      2.035
REMARK  Name = 
REMARK  8 active torsions:
REMARK  status: ('A' for Active; 'I' for Inactive)
REMARK    1  A    between atoms: O_1  and  C_2
REMARK    2  A    between atoms: C_2  and  C_3
REMARK    3  A    between atoms: C_2  and  C_26
REMARK    4  A    between atoms: C_3  and  O_4
REMARK    5  A    between atoms: O_4  and  C_5
REMARK    6  A    between atoms: C_9  and  C_10
REMARK    7  A    between atoms: N_16  and  C_17
REMARK    8  A    between atoms: C_26  and  N_27
REMARK                            x       y       z     vdW  Elec       q    Type
REMARK                         _______ _______ _______ _____ _____    ______ ____
ROOT
ATOM      1  C   UNL     1       1.105  10.252  20.439  0.00  0.00    +0.000 A 
ATOM      2  C   UNL     1       1.138  10.756  19.139  0.00  0.00    +0.000 A 
ATOM      3  C   UNL     1       1.481   9.930  18.070  0.00  0.00    +0.000 A 
ATOM      4  C   UNL     1       1.794   8.589  18.290  0.00  0.00    +0.000 A 
ATOM      5  C   UNL     1       1.762   8.039  19.580  0.00  0.00    +0.000 A 
ATOM      6  C   UNL     1       1.407   8.901  20.647  0.00  0.00    +0.000 A 
ENDROOT
BRANCH   5   7
ATOM      7  C   UNL     1       2.116   6.616  19.811  0.00  0.00    +0.000 A 
ATOM      8  C   UNL     1       1.631   5.878  20.904  0.00  0.00    +0.000 A 
ATOM      9  C   UNL     1       1.994   4.535  21.120  0.00  0.00    +0.000 A 
ATOM     10  C   UNL     1       2.877   3.911  20.223  0.00  0.00    +0.000 A 
ATOM     11  N   UNL     1       3.412   2.650  20.264  0.00  0.00    +0.000 NA
ATOM     12  C   UNL     1       4.261   2.617  19.261  0.00  0.00    +0.000 A 
ATOM     13  N   UNL     1       4.290   3.792  18.540  0.00  0.00    +0.000 N 
ATOM     14  C   UNL     1       3.360   4.630  19.135  0.00  0.00    +0.000 A 
ATOM     15  C   UNL     1       2.980   5.965  18.913  0.00  0.00    +0.000 A 
BRANCH  13  16
ATOM     16  C   UNL     1       5.219   4.149  17.526  0.00  0.00    +0.000 A 
ATOM     17  C   UNL     1       4.873   4.083  16.169  0.00  0.00    +0.000 A 
ATOM     18  C   UNL     1       5.686   4.662  15.200  0.00  0.00    +0.000 A 
ATOM     19  C   UNL     1       6.876   5.276  15.573  0.00  0.00    +0.000 A 
ATOM     20  C   UNL     1       7.276   5.271  16.910  0.00  0.00    +0.000 A 
ATOM     21  C   UNL     1       6.466   4.699  17.890  0.00  0.00    +0.000 A 
ENDBRANCH  13  16
ENDBRANCH   5   7
BRANCH   1  22
ATOM     22  O   UNL     1       0.796  10.976  21.568  0.00  0.00    +0.000 OA
BRANCH  22  23
ATOM     23  C   UNL     1       0.480  12.351  21.327  0.00  0.00    +0.000 C 
BRANCH  23  24
ATOM     24  C   UNL     1      -0.813  12.770  22.046  0.00  0.00    +0.000 C 
BRANCH  24  25
ATOM     25  O   UNL     1      -1.369  11.631  22.712  0.00  0.00    +0.000 OA
ATOM     26  H   UNL     1      -1.880  11.975  23.468  0.00  0.00    +0.000 HD
ENDBRANCH  24  25
BRANCH  24  27
ATOM     27  C   UNL     1      -1.790  13.297  20.966  0.00  0.00    +0.000 C 
BRANCH  27  28
ATOM     28  N   UNL     1      -2.765  12.352  20.410  0.00  0.00    +0.000 NA
ATOM     29  C   UNL     1      -2.464  12.099  18.989  0.00  0.00    +0.000 C 
ATOM     30  C   UNL     1      -3.500  11.148  18.391  0.00  0.00    +0.000 C 
ATOM     31  C   UNL     1      -4.764  11.957  18.314  0.00  0.00    +0.000 A 
ATOM     32  C   UNL     1      -5.512  12.035  17.139  0.00  0.00    +0.000 A 
ATOM     33  C   UNL     1      -6.542  12.965  17.044  0.00  0.00    +0.000 A 
ATOM     34  C   UNL     1      -6.852  13.777  18.137  0.00  0.00    +0.000 A 
ATOM     35  C   UNL     1      -6.136  13.666  19.333  0.00  0.00    +0.000 A 
ATOM     36  C   UNL     1      -5.063  12.775  19.422  0.00  0.00    +0.000 A 
ATOM     37  C   UNL     1      -4.182  12.694  20.663  0.00  0.00    +0.000 C 
ENDBRANCH  27  28
ENDBRANCH  24  27
ENDBRANCH  23  24
ENDBRANCH  22  23
ENDBRANCH   1  22
TORSDOF 8
ENDMDL
MODEL 7
REMARK VINA RESULT:      -8.9      2.602      3.789
REMARK  Name = 
REMARK  8 active torsions:
REMARK  status: ('A' for Active; 'I' for Inactive)
REMARK    1  A    between atoms: O_1  and  C_2
REMARK    2  A    between atoms: C_2  and  C_3
REMARK    3  A    between atoms: C_2  and  C_26
REMARK    4  A    between atoms: C_3  and  O_4
REMARK    5  A    between atoms: O_4  and  C_5
REMARK    6  A    between atoms: C_9  and  C_10
REMARK    7  A    between atoms: N_16  and  C_17
REMARK    8  A    between atoms: C_26  and  N_27
REMARK                            x       y       z     vdW  Elec       q    Type
REMARK                         _______ _______ _______ _____ _____    ______ ____
ROOT
ATOM      1  C   UNL     1       0.910  10.253  20.063  0.00  0.00    +0.000 A 
ATOM      2  C   UNL     1       1.224  10.773  18.808  0.00  0.00    +0.000 A 
ATOM      3  C   UNL     1       1.829   9.971  17.842  0.00  0.00    +0.000 A 
ATOM      4  C   UNL     1       2.126   8.637  18.122  0.00  0.00    +0.000 A 
ATOM      5  C   UNL     1       1.818   8.072  19.368  0.00  0.00    +0.000 A 
ATOM      6  C   UNL     1       1.200   8.910  20.329  0.00  0.00    +0.000 A 
ENDROOT
BRANCH   5   7
ATOM      7  C   UNL     1       2.155   6.657  19.667  0.00  0.00    +0.000 A 
ATOM      8  C   UNL     1       1.652   5.974  20.787  0.00  0.00    +0.000 A 
ATOM      9  C   UNL     1       1.999   4.639  21.068  0.00  0.00    +0.000 A 
ATOM     10  C   UNL     1       2.885   3.967  20.211  0.00  0.00    +0.000 A 
ATOM     11  N   UNL     1       3.407   2.705  20.314  0.00  0.00    +0.000 NA
ATOM     12  C   UNL     1       4.266   2.618  19.324  0.00  0.00    +0.000 A 
ATOM     13  N   UNL     1       4.315   3.758  18.550  0.00  0.00    +0.000 N 
ATOM     14  C   UNL     1       3.387   4.631  19.096  0.00  0.00    +0.000 A 
ATOM     15  C   UNL     1       3.022   5.958  18.810  0.00  0.00    +0.000 A 
BRANCH  13  16
ATOM     16  C   UNL     1       5.258   4.060  17.531  0.00  0.00    +0.000 A 
ATOM     17  C   UNL     1       4.912   3.976  16.175  0.00  0.00    +0.000 A 
ATOM     18  C   UNL     1       5.747   4.505  15.196  0.00  0.00    +0.000 A 
ATOM     19  C   UNL     1       6.958   5.084  15.559  0.00  0.00    +0.000 A 
ATOM     20  C   UNL     1       7.355   5.094  16.897  0.00  0.00    +0.000 A 
ATOM     21  C   UNL     1       6.523   4.573  17.887  0.00  0.00    +0.000 A 
ENDBRANCH  13  16
ENDBRANCH   5   7
BRANCH   1  22
ATOM     22  O   UNL     1       0.328  10.955  21.095  0.00  0.00    +0.000 OA
BRANCH  22  23
ATOM     23  C   UNL     1      -1.065  11.230  20.917  0.00  0.00    +0.000 C 
BRANCH  23  24
ATOM     24  C   UNL     1      -1.398  12.697  21.237  0.00  0.00    +0.000 C 
BRANCH  24  25
ATOM     25  O   UNL     1      -2.773  12.793  21.622  0.00  0.00    +0.000 OA
ATOM     26  H   UNL     1      -3.021  13.732  21.528  0.00  0.00    +0.000 HD
ENDBRANCH  24  25
BRANCH  24  27
ATOM     27  C   UNL     1      -1.136  13.519  19.951  0.00  0.00    +0.000 C 
BRANCH  27  28
ATOM     28  N   UNL     1      -0.199  14.645  20.041  0.00  0.00    +0.000 NA
ATOM     29  C   UNL     1      -0.355  15.523  18.867  0.00  0.00    +0.000 C 
ATOM     30  C   UNL     1       0.647  16.676  18.933  0.00  0.00    +0.000 C 
ATOM     31  C   UNL     1       1.984  16.037  18.683  0.00  0.00    +0.000 A 
ATOM     32  C   UNL     1       2.868  16.541  17.729  0.00  0.00    +0.000 A 
ATOM     33  C   UNL     1       3.988  15.795  17.374  0.00  0.00    +0.000 A 
ATOM     34  C   UNL     1       4.246  14.577  18.006  0.00  0.00    +0.000 A 
ATOM     35  C   UNL     1       3.387  14.094  18.998  0.00  0.00    +0.000 A 
ATOM     36  C   UNL     1       2.229  14.806  19.325  0.00  0.00    +0.000 A 
ATOM     37  C   UNL     1       1.205  14.269  20.318  0.00  0.00    +0.000 C 
ENDBRANCH  27  28
ENDBRANCH  24  27
ENDBRANCH  23  24
ENDBRANCH  22  23
ENDBRANCH   1  22
TORSDOF 8
ENDMDL
MODEL 8
REMARK VINA RESULT:      -8.8      2.115      3.782
REMARK  Name = 
REMARK  8 active torsions:
REMARK  status: ('A' for Active; 'I' for Inactive)
REMARK    1  A    between atoms: O_1  and  C_2
REMARK    2  A    between atoms: C_2  and  C_3
REMARK    3  A    between atoms: C_2  and  C_26
REMARK    4  A    between atoms: C_3  and  O_4
REMARK    5  A    between atoms: O_4  and  C_5
REMARK    6  A    between atoms: C_9  and  C_10
REMARK    7  A    between atoms: N_16  and  C_17
REMARK    8  A    between atoms: C_26  and  N_27
REMARK                            x       y       z     vdW  Elec       q    Type
REMARK                         _______ _______ _______ _____ _____    ______ ____
ROOT
ATOM      1  C   UNL     1       0.517  10.414  19.690  0.00  0.00    +0.000 A 
ATOM      2  C   UNL     1       1.122  11.028  18.593  0.00  0.00    +0.000 A 
ATOM      3  C   UNL     1       2.029  10.325  17.802  0.00  0.00    +0.000 A 
ATOM      4  C   UNL     1       2.341   8.999  18.100  0.00  0.00    +0.000 A 
ATOM      5  C   UNL     1       1.748   8.341  19.187  0.00  0.00    +0.000 A 
ATOM      6  C   UNL     1       0.827   9.079  19.971  0.00  0.00    +0.000 A 
ENDROOT
BRANCH   5   7
ATOM      7  C   UNL     1       2.100   6.935  19.511  0.00  0.00    +0.000 A 
ATOM      8  C   UNL     1       1.615   6.272  20.652  0.00  0.00    +0.000 A 
ATOM      9  C   UNL     1       1.976   4.946  20.956  0.00  0.00    +0.000 A 
ATOM     10  C   UNL     1       2.856   4.263  20.101  0.00  0.00    +0.000 A 
ATOM     11  N   UNL     1       3.389   3.006  20.225  0.00  0.00    +0.000 NA
ATOM     12  C   UNL     1       4.236   2.905  19.225  0.00  0.00    +0.000 A 
ATOM     13  N   UNL     1       4.266   4.029  18.427  0.00  0.00    +0.000 N 
ATOM     14  C   UNL     1       3.339   4.907  18.967  0.00  0.00    +0.000 A 
ATOM     15  C   UNL     1       2.961   6.225  18.657  0.00  0.00    +0.000 A 
BRANCH  13  16
ATOM     16  C   UNL     1       5.194   4.316  17.390  0.00  0.00    +0.000 A 
ATOM     17  C   UNL     1       6.527   4.640  17.680  0.00  0.00    +0.000 A 
ATOM     18  C   UNL     1       7.484   4.675  16.670  0.00  0.00    +0.000 A 
ATOM     19  C   UNL     1       7.109   4.430  15.354  0.00  0.00    +0.000 A 
ATOM     20  C   UNL     1       5.771   4.194  15.040  0.00  0.00    +0.000 A 
ATOM     21  C   UNL     1       4.805   4.149  16.045  0.00  0.00    +0.000 A 
ENDBRANCH  13  16
ENDBRANCH   5   7
BRANCH   1  22
ATOM     22  O   UNL     1      -0.378  11.014  20.547  0.00  0.00    +0.000 OA
BRANCH  22  23
ATOM     23  C   UNL     1       0.141  11.296  21.850  0.00  0.00    +0.000 C 
BRANCH  23  24
ATOM     24  C   UNL     1      -0.984  11.431  22.890  0.00  0.00    +0.000 C 
BRANCH  24  25
ATOM     25  O   UNL     1      -1.242  10.148  23.472  0.00  0.00    +0.000 OA
ATOM     26  H   UNL     1      -2.018   9.785  23.006  0.00  0.00    +0.000 HD
ENDBRANCH  24  25
BRANCH  24  27
ATOM     27  C   UNL     1      -2.239  11.951  22.146  0.00  0.00    +0.000 C 
BRANCH  27  28
ATOM     28  N   UNL     1      -3.431  12.251  22.948  0.00  0.00    +0.000 NA
ATOM     29  C   UNL     1      -4.492  12.801  22.084  0.00  0.00    +0.000 C 
ATOM     30  C   UNL     1      -5.722  13.154  22.920  0.00  0.00    +0.000 C 
ATOM     31  C   UNL     1      -5.308  14.352  23.725  0.00  0.00    +0.000 A 
ATOM     32  C   UNL     1      -6.087  15.509  23.769  0.00  0.00    +0.000 A 
ATOM     33  C   UNL     1      -5.563  16.665  24.339  0.00  0.00    +0.000 A 
ATOM     34  C   UNL     1      -4.286  16.648  24.905  0.00  0.00    +0.000 A 
ATOM     35  C   UNL     1      -3.523  15.476  24.906  0.00  0.00    +0.000 A 
ATOM     36  C   UNL     1      -4.015  14.323  24.287  0.00  0.00    +0.000 A 
ATOM     37  C   UNL     1      -3.181  13.054  24.164  0.00  0.00    +0.000 C 
ENDBRANCH  27  28
ENDBRANCH  24  27
ENDBRANCH  23  24
ENDBRANCH  22  23
ENDBRANCH   1  22
TORSDOF 8
ENDMDL
MODEL 9
REMARK VINA RESULT:      -8.7      1.980      3.840
REMARK  Name = 
REMARK  8 active torsions:
REMARK  status: ('A' for Active; 'I' for Inactive)
REMARK    1  A    between atoms: O_1  and  C_2
REMARK    2  A    between atoms: C_2  and  C_3
REMARK    3  A    between atoms: C_2  and  C_26
REMARK    4  A    between atoms: C_3  and  O_4
REMARK    5  A    between atoms: O_4  and  C_5
REMARK    6  A    between atoms: C_9  and  C_10
REMARK    7  A    between atoms: N_16  and  C_17
REMARK    8  A    between atoms: C_26  and  N_27
REMARK                            x       y       z     vdW  Elec       q    Type
REMARK                         _______ _______ _______ _____ _____    ______ ____
ROOT
ATOM      1  C   UNL     1       1.217   9.797  19.510  0.00  0.00    +0.000 A 
ATOM      2  C   UNL     1       1.114  10.202  20.841  0.00  0.00    +0.000 A 
ATOM      3  C   UNL     1       1.241   9.274  21.873  0.00  0.00    +0.000 A 
ATOM      4  C   UNL     1       1.473   7.930  21.585  0.00  0.00    +0.000 A 
ATOM      5  C   UNL     1       1.594   7.482  20.261  0.00  0.00    +0.000 A 
ATOM      6  C   UNL     1       1.464   8.448  19.233  0.00  0.00    +0.000 A 
ENDROOT
BRANCH   5   7
ATOM      7  C   UNL     1       1.821   6.046  19.960  0.00  0.00    +0.000 A 
ATOM      8  C   UNL     1       1.169   5.011  20.653  0.00  0.00    +0.000 A 
ATOM      9  C   UNL     1       1.411   3.653  20.371  0.00  0.00    +0.000 A 
ATOM     10  C   UNL     1       2.340   3.317  19.374  0.00  0.00    +0.000 A 
ATOM     11  N   UNL     1       2.778   2.082  18.973  0.00  0.00    +0.000 NA
ATOM     12  C   UNL     1       3.727   2.332  18.099  0.00  0.00    +0.000 A 
ATOM     13  N   UNL     1       3.917   3.680  17.881  0.00  0.00    +0.000 N 
ATOM     14  C   UNL     1       2.989   4.332  18.678  0.00  0.00    +0.000 A 
ATOM     15  C   UNL     1       2.729   5.686  18.951  0.00  0.00    +0.000 A 
BRANCH  13  16
ATOM     16  C   UNL     1       4.974   4.287  17.150  0.00  0.00    +0.000 A 
ATOM     17  C   UNL     1       6.149   4.707  17.789  0.00  0.00    +0.000 A 
ATOM     18  C   UNL     1       7.270   5.067  17.048  0.00  0.00    +0.000 A 
ATOM     19  C   UNL     1       7.213   5.054  15.659  0.00  0.00    +0.000 A 
ATOM     20  C   UNL     1       6.023   4.723  15.010  0.00  0.00    +0.000 A 
ATOM     21  C   UNL     1       4.896   4.354  15.743  0.00  0.00    +0.000 A 
ENDBRANCH  13  16
ENDBRANCH   5   7
BRANCH   1  22
ATOM     22  O   UNL     1       1.095  10.621  18.414  0.00  0.00    +0.000 OA
BRANCH  22  23
ATOM     23  C   UNL     1       0.761  11.978  18.721  0.00  0.00    +0.000 C 
BRANCH  23  24
ATOM     24  C   UNL     1      -0.753  12.226  18.616  0.00  0.00    +0.000 C 
BRANCH  24  25
ATOM     25  O   UNL     1      -1.054  12.750  17.318  0.00  0.00    +0.000 OA
ATOM     26  H   UNL     1      -0.205  12.816  16.844  0.00  0.00    +0.000 HD
ENDBRANCH  24  25
BRANCH  24  27
ATOM     27  C   UNL     1      -1.128  13.252  19.715  0.00  0.00    +0.000 C 
BRANCH  27  28
ATOM     28  N   UNL     1      -1.517  12.729  21.030  0.00  0.00    +0.000 NA
ATOM     29  C   UNL     1      -2.963  12.925  21.240  0.00  0.00    +0.000 C 
ATOM     30  C   UNL     1      -3.368  12.420  22.626  0.00  0.00    +0.000 C 
ATOM     31  C   UNL     1      -2.767  13.408  23.584  0.00  0.00    +0.000 A 
ATOM     32  C   UNL     1      -3.525  14.004  24.592  0.00  0.00    +0.000 A 
ATOM     33  C   UNL     1      -2.992  15.071  25.309  0.00  0.00    +0.000 A 
ATOM     34  C   UNL     1      -1.690  15.506  25.050  0.00  0.00    +0.000 A 
ATOM     35  C   UNL     1      -0.911  14.878  24.074  0.00  0.00    +0.000 A 
ATOM     36  C   UNL     1      -1.454  13.841  23.309  0.00  0.00    +0.000 A 
ATOM     37  C   UNL     1      -0.685  13.199  22.160  0.00  0.00    +0.000 C 
ENDBRANCH  27  28
ENDBRANCH  24  27
ENDBRANCH  23  24
ENDBRANCH  22  23
ENDBRANCH   1  22
TORSDOF 8
ENDMDL
