MODEL 1
REMARK VINA RESULT:      -7.6      0.000      0.000
REMARK  Name = 
REMARK  7 active torsions:
REMARK  status: ('A' for Active; 'I' for Inactive)
REMARK    1  A    between atoms: C_1  and  N_2
REMARK    2  A    between atoms: N_2  and  C_3
REMARK    3  A    between atoms: N_2  and  C_4
REMARK    4  A    between atoms: C_4  and  C_5
REMARK    5  A    between atoms: C_9  and  C_10
REMARK    6  A    between atoms: C_10  and  O_11
REMARK    7  A    between atoms: O_11  and  C_12
REMARK                            x       y       z     vdW  Elec       q    Type
REMARK                         _______ _______ _______ _____ _____    ______ ____
ROOT
ATOM      1  O   UNL     1       8.284   7.784  18.344  0.00  0.00    +0.000 OA
ENDROOT
BRANCH   1   2
ATOM      2  C   UNL     1       7.232   6.934  18.164  0.00  0.00    +0.000 A 
ATOM      3  C   UNL     1       6.424   7.232  17.059  0.00  0.00    +0.000 A 
ATOM      4  C   UNL     1       5.364   6.393  16.699  0.00  0.00    +0.000 A 
ATOM      5  C   UNL     1       5.111   5.245  17.445  0.00  0.00    +0.000 A 
ATOM      6  C   UNL     1       4.170   4.230  17.009  0.00  0.00    +0.000 A 
ATOM      7  C   UNL     1       3.993   3.136  17.755  0.00  0.00    +0.000 A 
ATOM      8  C   UNL     1       4.645   2.964  19.066  0.00  0.00    +0.000 A 
ATOM      9  O   UNL     1       4.347   2.022  19.793  0.00  0.00    +0.000 OA
ATOM     10  O   UNL     1       5.603   3.899  19.420  0.00  0.00    +0.000 OA
ATOM     11  C   UNL     1       5.867   5.008  18.591  0.00  0.00    +0.000 A 
ATOM     12  C   UNL     1       6.929   5.832  18.958  0.00  0.00    +0.000 A 
ENDBRANCH   1   2
BRANCH   1  13
ATOM     13  C   UNL     1       8.188   9.078  17.743  0.00  0.00    +0.000 C 
BRANCH  13  18
ATOM     14  C   UNL     1      10.674  11.913  18.391  0.00  0.00    +0.000 A 
ATOM     15  C   UNL     1      10.678  11.943  19.795  0.00  0.00    +0.000 A 
ATOM     16  C   UNL     1       9.909  11.037  20.523  0.00  0.00    +0.000 A 
ATOM     17  C   UNL     1       9.120  10.092  19.865  0.00  0.00    +0.000 A 
ATOM     18  C   UNL     1       9.101  10.039  18.463  0.00  0.00    +0.000 A 
ATOM     19  C   UNL     1       9.877  10.961  17.743  0.00  0.00    +0.000 A 
BRANCH  14  20
ATOM     20  C   UNL     1      11.472  12.909  17.576  0.00  0.00    +0.000 C 
BRANCH  20  22
ATOM     21  C   UNL     1      12.320  15.182  17.364  0.00  0.00    +0.000 C 
ATOM     22  N   UNL     1      11.357  14.306  18.037  0.00  0.00    +0.000 NA
ATOM     23  C   UNL     1       9.995  14.781  17.777  0.00  0.00    +0.000 C 
ENDBRANCH  20  22
ENDBRANCH  14  20
ENDBRANCH  13  18
ENDBRANCH   1  13
TORSDOF 5
ENDMDL
MODEL 2
REMARK VINA RESULT:      -7.6      6.499      8.761
REMARK  Name = 
REMARK  7 active torsions:
REMARK  status: ('A' for Active; 'I' for Inactive)
REMARK    1  A    between atoms: C_1  and  N_2
REMARK    2  A    between atoms: N_2  and  C_3
REMARK    3  A    between atoms: N_2  and  C_4
REMARK    4  A    between atoms: C_4  and  C_5
REMARK    5  A    between atoms: C_9  and  C_10
REMARK    6  A    between atoms: C_10  and  O_11
REMARK    7  A    between atoms: O_11  and  C_12
REMARK                            x       y       z     vdW  Elec       q    Type
REMARK                         _______ _______ _______ _____ _____    ______ ____
ROOT
ATOM      1  O   UNL     1       1.939   7.912  18.457  0.00  0.00    +0.000 OA
ENDROOT
BRANCH   1   2
ATOM      2  C   UNL     1       2.809   6.954  18.023  0.00  0.00    +0.000 A 
ATOM      3  C   UNL     1       2.412   5.639  18.297  0.00  0.00    +0.000 A 
ATOM      4  C   UNL     1       3.159   4.553  17.830  0.00  0.00    +0.000 A 
ATOM      5  C   UNL     1       4.309   4.781  17.079  0.00  0.00    +0.000 A 
ATOM      6  C   UNL     1       5.010   3.711  16.391  0.00  0.00    +0.000 A 
ATOM      7  C   UNL     1       6.091   3.999  15.662  0.00  0.00    +0.000 A 
ATOM      8  C   UNL     1       6.667   5.355  15.608  0.00  0.00    +0.000 A 
ATOM      9  O   UNL     1       7.741   5.556  15.053  0.00  0.00    +0.000 OA
ATOM     10  O   UNL     1       5.934   6.372  16.197  0.00  0.00    +0.000 OA
ATOM     11  C   UNL     1       4.739   6.092  16.888  0.00  0.00    +0.000 A 
ATOM     12  C   UNL     1       4.002   7.183  17.343  0.00  0.00    +0.000 A 
ENDBRANCH   1   2
BRANCH   1  13
ATOM     13  C   UNL     1       2.359   9.274  18.341  0.00  0.00    +0.000 C 
BRANCH  13  18
ATOM     14  C   UNL     1      -1.223  10.572  17.986  0.00  0.00    +0.000 A 
ATOM     15  C   UNL     1      -1.134  11.785  18.687  0.00  0.00    +0.000 A 
ATOM     16  C   UNL     1       0.078  12.193  19.242  0.00  0.00    +0.000 A 
ATOM     17  C   UNL     1       1.217  11.396  19.112  0.00  0.00    +0.000 A 
ATOM     18  C   UNL     1       1.155  10.181  18.414  0.00  0.00    +0.000 A 
ATOM     19  C   UNL     1      -0.073   9.781  17.864  0.00  0.00    +0.000 A 
BRANCH  14  20
ATOM     20  C   UNL     1      -2.536  10.090  17.404  0.00  0.00    +0.000 C 
BRANCH  20  22
ATOM     21  C   UNL     1      -3.001  10.335  15.027  0.00  0.00    +0.000 C 
ATOM     22  N   UNL     1      -3.091  10.959  16.350  0.00  0.00    +0.000 NA
ATOM     23  C   UNL     1      -4.494  11.249  16.663  0.00  0.00    +0.000 C 
ENDBRANCH  20  22
ENDBRANCH  14  20
ENDBRANCH  13  18
ENDBRANCH   1  13
TORSDOF 5
ENDMDL
MODEL 3
REMARK VINA RESULT:      -7.6      6.479      8.698
REMARK  Name = 
REMARK  7 active torsions:
REMARK  status: ('A' for Active; 'I' for Inactive)
REMARK    1  A    between atoms: C_1  and  N_2
REMARK    2  A    between atoms: N_2  and  C_3
REMARK    3  A    between atoms: N_2  and  C_4
REMARK    4  A    between atoms: C_4  and  C_5
REMARK    5  A    between atoms: C_9  and  C_10
REMARK    6  A    between atoms: C_10  and  O_11
REMARK    7  A    between atoms: O_11  and  C_12
REMARK                            x       y       z     vdW  Elec       q    Type
REMARK                         _______ _______ _______ _____ _____    ______ ____
ROOT
ATOM      1  O   UNL     1       2.531   7.587  18.648  0.00  0.00    +0.000 OA
ENDROOT
BRANCH   1   2
ATOM      2  C   UNL     1       3.310   6.659  18.021  0.00  0.00    +0.000 A 
ATOM      3  C   UNL     1       2.888   5.334  18.190  0.00  0.00    +0.000 A 
ATOM      4  C   UNL     1       3.537   4.285  17.530  0.00  0.00    +0.000 A 
ATOM      5  C   UNL     1       4.611   4.562  16.688  0.00  0.00    +0.000 A 
ATOM      6  C   UNL     1       5.191   3.556  15.817  0.00  0.00    +0.000 A 
ATOM      7  C   UNL     1       6.202   3.892  15.011  0.00  0.00    +0.000 A 
ATOM      8  C   UNL     1       6.826   5.228  15.044  0.00  0.00    +0.000 A 
ATOM      9  O   UNL     1       7.845   5.457  14.403  0.00  0.00    +0.000 OA
ATOM     10  O   UNL     1       6.202   6.193  15.817  0.00  0.00    +0.000 OA
ATOM     11  C   UNL     1       5.074   5.873  16.597  0.00  0.00    +0.000 A 
ATOM     12  C   UNL     1       4.434   6.927  17.246  0.00  0.00    +0.000 A 
ENDBRANCH   1   2
BRANCH   1  13
ATOM     13  C   UNL     1       1.967   8.621  17.836  0.00  0.00    +0.000 C 
BRANCH  13  18
ATOM     14  C   UNL     1      -0.923  10.947  18.772  0.00  0.00    +0.000 A 
ATOM     15  C   UNL     1      -0.907  10.836  20.172  0.00  0.00    +0.000 A 
ATOM     16  C   UNL     1       0.046  10.041  20.807  0.00  0.00    +0.000 A 
ATOM     17  C   UNL     1       0.993   9.341  20.057  0.00  0.00    +0.000 A 
ATOM     18  C   UNL     1       1.001   9.439  18.658  0.00  0.00    +0.000 A 
ATOM     19  C   UNL     1       0.033  10.239  18.032  0.00  0.00    +0.000 A 
BRANCH  14  20
ATOM     20  C   UNL     1      -1.969  11.775  18.057  0.00  0.00    +0.000 C 
BRANCH  20  22
ATOM     21  C   UNL     1      -4.353  11.757  18.550  0.00  0.00    +0.000 C 
ATOM     22  N   UNL     1      -3.255  11.085  17.849  0.00  0.00    +0.000 NA
ATOM     23  C   UNL     1      -3.545  11.040  16.412  0.00  0.00    +0.000 C 
ENDBRANCH  20  22
ENDBRANCH  14  20
ENDBRANCH  13  18
ENDBRANCH   1  13
TORSDOF 5
ENDMDL
MODEL 4
REMARK VINA RESULT:      -7.6      6.400      8.637
REMARK  Name = 
REMARK  7 active torsions:
REMARK  status: ('A' for Active; 'I' for Inactive)
REMARK    1  A    between atoms: C_1  and  N_2
REMARK    2  A    between atoms: N_2  and  C_3
REMARK    3  A    between atoms: N_2  and  C_4
REMARK    4  A    between atoms: C_4  and  C_5
REMARK    5  A    between atoms: C_9  and  C_10
REMARK    6  A    between atoms: C_10  and  O_11
REMARK    7  A    between atoms: O_11  and  C_12
REMARK                            x       y       z     vdW  Elec       q    Type
REMARK                         _______ _______ _______ _____ _____    ______ ____
ROOT
ATOM      1  O   UNL     1       2.162   8.329  18.235  0.00  0.00    +0.000 OA
ENDROOT
BRANCH   1   2
ATOM      2  C   UNL     1       2.958   7.281  17.874  0.00  0.00    +0.000 A 
ATOM      3  C   UNL     1       2.470   6.022  18.245  0.00  0.00    +0.000 A 
ATOM      4  C   UNL     1       3.135   4.853  17.861  0.00  0.00    +0.000 A 
ATOM      5  C   UNL     1       4.293   4.941  17.093  0.00  0.00    +0.000 A 
ATOM      6  C   UNL     1       4.911   3.776  16.487  0.00  0.00    +0.000 A 
ATOM      7  C   UNL     1       6.005   3.930  15.737  0.00  0.00    +0.000 A 
ATOM      8  C   UNL     1       6.676   5.233  15.581  0.00  0.00    +0.000 A 
ATOM      9  O   UNL     1       7.759   5.315  15.013  0.00  0.00    +0.000 OA
ATOM     10  O   UNL     1       6.022   6.342  16.093  0.00  0.00    +0.000 OA
ATOM     11  C   UNL     1       4.814   6.200  16.804  0.00  0.00    +0.000 A 
ATOM     12  C   UNL     1       4.160   7.373  17.177  0.00  0.00    +0.000 A 
ENDBRANCH   1   2
BRANCH   1  13
ATOM     13  C   UNL     1       1.832   8.449  19.621  0.00  0.00    +0.000 C 
BRANCH  13  18
ATOM     14  C   UNL     1      -0.934  10.981  18.863  0.00  0.00    +0.000 A 
ATOM     15  C   UNL     1      -1.217  11.456  20.154  0.00  0.00    +0.000 A 
ATOM     16  C   UNL     1      -0.501  10.984  21.253  0.00  0.00    +0.000 A 
ATOM     17  C   UNL     1       0.503  10.029  21.083  0.00  0.00    +0.000 A 
ATOM     18  C   UNL     1       0.807   9.542  19.804  0.00  0.00    +0.000 A 
ATOM     19  C   UNL     1       0.075  10.022  18.707  0.00  0.00    +0.000 A 
BRANCH  14  20
ATOM     20  C   UNL     1      -1.721  11.451  17.657  0.00  0.00    +0.000 C 
BRANCH  20  22
ATOM     21  C   UNL     1      -3.401   9.689  17.621  0.00  0.00    +0.000 C 
ATOM     22  N   UNL     1      -2.338  10.366  16.872  0.00  0.00    +0.000 NA
ATOM     23  C   UNL     1      -2.889  10.928  15.635  0.00  0.00    +0.000 C 
ENDBRANCH  20  22
ENDBRANCH  14  20
ENDBRANCH  13  18
ENDBRANCH   1  13
TORSDOF 5
ENDMDL
MODEL 5
REMARK VINA RESULT:      -7.5      6.264      8.306
REMARK  Name = 
REMARK  7 active torsions:
REMARK  status: ('A' for Active; 'I' for Inactive)
REMARK    1  A    between atoms: C_1  and  N_2
REMARK    2  A    between atoms: N_2  and  C_3
REMARK    3  A    between atoms: N_2  and  C_4
REMARK    4  A    between atoms: C_4  and  C_5
REMARK    5  A    between atoms: C_9  and  C_10
REMARK    6  A    between atoms: C_10  and  O_11
REMARK    7  A    between atoms: O_11  and  C_12
REMARK                            x       y       z     vdW  Elec       q    Type
REMARK                         _______ _______ _______ _____ _____    ______ ____
ROOT
ATOM      1  O   UNL     1       2.993   6.577  18.016  0.00  0.00    +0.000 OA
ENDROOT
BRANCH   1   2
ATOM      2  C   UNL     1       2.332   7.570  18.679  0.00  0.00    +0.000 A 
ATOM      3  C   UNL     1       1.824   8.584  17.856  0.00  0.00    +0.000 A 
ATOM      4  C   UNL     1       1.047   9.617  18.388  0.00  0.00    +0.000 A 
ATOM      5  C   UNL     1       0.768   9.636  19.752  0.00  0.00    +0.000 A 
ATOM      6  C   UNL     1      -0.197  10.553  20.332  0.00  0.00    +0.000 A 
ATOM      7  C   UNL     1      -0.442  10.501  21.644  0.00  0.00    +0.000 A 
ATOM      8  C   UNL     1       0.308   9.614  22.551  0.00  0.00    +0.000 A 
ATOM      9  O   UNL     1       0.165   9.699  23.766  0.00  0.00    +0.000 OA
ATOM     10  O   UNL     1       1.157   8.690  21.966  0.00  0.00    +0.000 OA
ATOM     11  C   UNL     1       1.350   8.672  20.571  0.00  0.00    +0.000 A 
ATOM     12  C   UNL     1       2.123   7.634  20.054  0.00  0.00    +0.000 A 
ENDBRANCH   1   2
BRANCH   1  13
ATOM     13  C   UNL     1       3.868   5.750  18.786  0.00  0.00    +0.000 C 
BRANCH  13  18
ATOM     14  C   UNL     1       5.793   4.614  15.681  0.00  0.00    +0.000 A 
ATOM     15  C   UNL     1       7.074   4.420  16.222  0.00  0.00    +0.000 A 
ATOM     16  C   UNL     1       7.306   4.625  17.582  0.00  0.00    +0.000 A 
ATOM     17  C   UNL     1       6.266   5.033  18.420  0.00  0.00    +0.000 A 
ATOM     18  C   UNL     1       4.977   5.229  17.905  0.00  0.00    +0.000 A 
ATOM     19  C   UNL     1       4.760   5.023  16.533  0.00  0.00    +0.000 A 
BRANCH  14  20
ATOM     20  C   UNL     1       5.524   4.432  14.202  0.00  0.00    +0.000 C 
BRANCH  20  22
ATOM     21  C   UNL     1       6.257   3.185  12.244  0.00  0.00    +0.000 C 
ATOM     22  N   UNL     1       6.678   3.939  13.428  0.00  0.00    +0.000 NA
ATOM     23  C   UNL     1       7.498   5.082  13.016  0.00  0.00    +0.000 C 
ENDBRANCH  20  22
ENDBRANCH  14  20
ENDBRANCH  13  18
ENDBRANCH   1  13
TORSDOF 5
ENDMDL
MODEL 6
REMARK VINA RESULT:      -7.4      6.563      9.334
REMARK  Name = 
REMARK  7 active torsions:
REMARK  status: ('A' for Active; 'I' for Inactive)
REMARK    1  A    between atoms: C_1  and  N_2
REMARK    2  A    between atoms: N_2  and  C_3
REMARK    3  A    between atoms: N_2  and  C_4
REMARK    4  A    between atoms: C_4  and  C_5
REMARK    5  A    between atoms: C_9  and  C_10
REMARK    6  A    between atoms: C_10  and  O_11
REMARK    7  A    between atoms: O_11  and  C_12
REMARK                            x       y       z     vdW  Elec       q    Type
REMARK                         _______ _______ _______ _____ _____    ______ ____
ROOT
ATOM      1  O   UNL     1       2.367   7.487  17.625  0.00  0.00    +0.000 OA
ENDROOT
BRANCH   1   2
ATOM      2  C   UNL     1       1.835   8.358  18.530  0.00  0.00    +0.000 A 
ATOM      3  C   UNL     1       1.318   9.535  17.973  0.00  0.00    +0.000 A 
ATOM      4  C   UNL     1       0.660  10.477  18.771  0.00  0.00    +0.000 A 
ATOM      5  C   UNL     1       0.511  10.239  20.134  0.00  0.00    +0.000 A 
ATOM      6  C   UNL     1      -0.337  11.065  20.975  0.00  0.00    +0.000 A 
ATOM      7  C   UNL     1      -0.462  10.768  22.272  0.00  0.00    +0.000 A 
ATOM      8  C   UNL     1       0.311   9.687  22.910  0.00  0.00    +0.000 A 
ATOM      9  O   UNL     1       0.287   9.536  24.126  0.00  0.00    +0.000 OA
ATOM     10  O   UNL     1       1.042   8.859  22.074  0.00  0.00    +0.000 OA
ATOM     11  C   UNL     1       1.103   9.108  20.689  0.00  0.00    +0.000 A 
ATOM     12  C   UNL     1       1.758   8.159  19.906  0.00  0.00    +0.000 A 
ENDBRANCH   1   2
BRANCH   1  13
ATOM     13  C   UNL     1       3.759   7.622  17.330  0.00  0.00    +0.000 C 
BRANCH  13  18
ATOM     14  C   UNL     1       4.357   3.843  17.318  0.00  0.00    +0.000 A 
ATOM     15  C   UNL     1       5.289   3.728  16.274  0.00  0.00    +0.000 A 
ATOM     16  C   UNL     1       5.741   4.862  15.602  0.00  0.00    +0.000 A 
ATOM     17  C   UNL     1       5.268   6.127  15.956  0.00  0.00    +0.000 A 
ATOM     18  C   UNL     1       4.340   6.269  16.998  0.00  0.00    +0.000 A 
ATOM     19  C   UNL     1       3.889   5.118  17.662  0.00  0.00    +0.000 A 
BRANCH  14  20
ATOM     20  C   UNL     1       3.823   2.624  18.040  0.00  0.00    +0.000 C 
BRANCH  20  22
ATOM     21  C   UNL     1       1.557   2.193  18.819  0.00  0.00    +0.000 C 
ATOM     22  N   UNL     1       2.806   2.920  19.067  0.00  0.00    +0.000 NA
ATOM     23  C   UNL     1       3.336   2.552  20.383  0.00  0.00    +0.000 C 
ENDBRANCH  20  22
ENDBRANCH  14  20
ENDBRANCH  13  18
ENDBRANCH   1  13
TORSDOF 5
ENDMDL
MODEL 7
REMARK VINA RESULT:      -7.3      6.795      9.699
REMARK  Name = 
REMARK  7 active torsions:
REMARK  status: ('A' for Active; 'I' for Inactive)
REMARK    1  A    between atoms: C_1  and  N_2
REMARK    2  A    between atoms: N_2  and  C_3
REMARK    3  A    between atoms: N_2  and  C_4
REMARK    4  A    between atoms: C_4  and  C_5
REMARK    5  A    between atoms: C_9  and  C_10
REMARK    6  A    between atoms: C_10  and  O_11
REMARK    7  A    between atoms: O_11  and  C_12
REMARK                            x       y       z     vdW  Elec       q    Type
REMARK                         _______ _______ _______ _____ _____    ______ ____
ROOT
ATOM      1  O   UNL     1       2.295   7.916  17.482  0.00  0.00    +0.000 OA
ENDROOT
BRANCH   1   2
ATOM      2  C   UNL     1       1.684   8.679  18.434  0.00  0.00    +0.000 A 
ATOM      3  C   UNL     1       0.947   9.759  17.932  0.00  0.00    +0.000 A 
ATOM      4  C   UNL     1       0.193  10.571  18.786  0.00  0.00    +0.000 A 
ATOM      5  C   UNL     1       0.171  10.300  20.151  0.00  0.00    +0.000 A 
ATOM      6  C   UNL     1      -0.746  10.967  21.058  0.00  0.00    +0.000 A 
ATOM      7  C   UNL     1      -0.738  10.641  22.354  0.00  0.00    +0.000 A 
ATOM      8  C   UNL     1       0.242   9.699  22.923  0.00  0.00    +0.000 A 
ATOM      9  O   UNL     1       0.320   9.536  24.136  0.00  0.00    +0.000 OA
ATOM     10  O   UNL     1       1.046   9.012  22.029  0.00  0.00    +0.000 OA
ATOM     11  C   UNL     1       0.977   9.278  20.647  0.00  0.00    +0.000 A 
ATOM     12  C   UNL     1       1.728   8.458  19.808  0.00  0.00    +0.000 A 
ENDBRANCH   1   2
BRANCH   1  13
ATOM     13  C   UNL     1       3.621   7.461  17.763  0.00  0.00    +0.000 C 
BRANCH  13  18
ATOM     14  C   UNL     1       2.728   3.745  17.950  0.00  0.00    +0.000 A 
ATOM     15  C   UNL     1       3.712   3.196  17.112  0.00  0.00    +0.000 A 
ATOM     16  C   UNL     1       4.672   4.015  16.517  0.00  0.00    +0.000 A 
ATOM     17  C   UNL     1       4.661   5.392  16.744  0.00  0.00    +0.000 A 
ATOM     18  C   UNL     1       3.691   5.965  17.580  0.00  0.00    +0.000 A 
ATOM     19  C   UNL     1       2.729   5.129  18.167  0.00  0.00    +0.000 A 
BRANCH  14  20
ATOM     20  C   UNL     1       1.654   2.883  18.578  0.00  0.00    +0.000 C 
BRANCH  20  22
ATOM     21  C   UNL     1       3.357   2.579  20.292  0.00  0.00    +0.000 C 
ATOM     22  N   UNL     1       1.929   2.486  19.972  0.00  0.00    +0.000 NA
ATOM     23  C   UNL     1       1.165   3.354  20.874  0.00  0.00    +0.000 C 
ENDBRANCH  20  22
ENDBRANCH  14  20
ENDBRANCH  13  18
ENDBRANCH   1  13
TORSDOF 5
ENDMDL
MODEL 8
REMARK VINA RESULT:      -7.3      6.241      8.093
REMARK  Name = 
REMARK  7 active torsions:
REMARK  status: ('A' for Active; 'I' for Inactive)
REMARK    1  A    between atoms: C_1  and  N_2
REMARK    2  A    between atoms: N_2  and  C_3
REMARK    3  A    between atoms: N_2  and  C_4
REMARK    4  A    between atoms: C_4  and  C_5
REMARK    5  A    between atoms: C_9  and  C_10
REMARK    6  A    between atoms: C_10  and  O_11
REMARK    7  A    between atoms: O_11  and  C_12
REMARK                            x       y       z     vdW  Elec       q    Type
REMARK                         _______ _______ _______ _____ _____    ______ ____
ROOT
ATOM      1  O   UNL     1       2.183   7.958  18.725  0.00  0.00    +0.000 OA
ENDROOT
BRANCH   1   2
ATOM      2  C   UNL     1       2.965   6.978  18.186  0.00  0.00    +0.000 A 
ATOM      3  C   UNL     1       2.508   5.674  18.414  0.00  0.00    +0.000 A 
ATOM      4  C   UNL     1       3.158   4.575  17.843  0.00  0.00    +0.000 A 
ATOM      5  C   UNL     1       4.271   4.780  17.032  0.00  0.00    +0.000 A 
ATOM      6  C   UNL     1       4.862   3.713  16.245  0.00  0.00    +0.000 A 
ATOM      7  C   UNL     1       5.911   3.980  15.462  0.00  0.00    +0.000 A 
ATOM      8  C   UNL     1       6.563   5.302  15.443  0.00  0.00    +0.000 A 
ATOM      9  O   UNL     1       7.611   5.473  14.831  0.00  0.00    +0.000 OA
ATOM     10  O   UNL     1       5.930   6.324  16.132  0.00  0.00    +0.000 OA
ATOM     11  C   UNL     1       4.766   6.073  16.883  0.00  0.00    +0.000 A 
ATOM     12  C   UNL     1       4.125   7.177  17.442  0.00  0.00    +0.000 A 
ENDBRANCH   1   2
BRANCH   1  13
ATOM     13  C   UNL     1       1.796   9.031  17.864  0.00  0.00    +0.000 C 
BRANCH  13  18
ATOM     14  C   UNL     1      -0.304  11.150  20.260  0.00  0.00    +0.000 A 
ATOM     15  C   UNL     1      -1.494  11.274  19.526  0.00  0.00    +0.000 A 
ATOM     16  C   UNL     1      -1.627  10.655  18.284  0.00  0.00    +0.000 A 
ATOM     17  C   UNL     1      -0.574   9.909  17.752  0.00  0.00    +0.000 A 
ATOM     18  C   UNL     1       0.624   9.766  18.467  0.00  0.00    +0.000 A 
ATOM     19  C   UNL     1       0.745  10.398  19.715  0.00  0.00    +0.000 A 
BRANCH  14  20
ATOM     20  C   UNL     1      -0.122  11.841  21.595  0.00  0.00    +0.000 C 
BRANCH  20  22
ATOM     21  C   UNL     1      -0.805  13.852  22.785  0.00  0.00    +0.000 C 
ATOM     22  N   UNL     1      -0.247  13.310  21.543  0.00  0.00    +0.000 NA
ATOM     23  C   UNL     1       1.077  13.892  21.303  0.00  0.00    +0.000 C 
ENDBRANCH  20  22
ENDBRANCH  14  20
ENDBRANCH  13  18
ENDBRANCH   1  13
TORSDOF 5
ENDMDL
MODEL 9
REMARK VINA RESULT:      -7.3      5.979      7.511
REMARK  Name = 
REMARK  7 active torsions:
REMARK  status: ('A' for Active; 'I' for Inactive)
REMARK    1  A    between atoms: C_1  and  N_2
REMARK    2  A    between atoms: N_2  and  C_3
REMARK    3  A    between atoms: N_2  and  C_4
REMARK    4  A    between atoms: C_4  and  C_5
REMARK    5  A    between atoms: C_9  and  C_10
REMARK    6  A    between atoms: C_10  and  O_11
REMARK    7  A    between atoms: O_11  and  C_12
REMARK                            x       y       z     vdW  Elec       q    Type
REMARK                         _______ _______ _______ _____ _____    ______ ____
ROOT
ATOM      1  O   UNL     1       2.875   7.606  18.570  0.00  0.00    +0.000 OA
ENDROOT
BRANCH   1   2
ATOM      2  C   UNL     1       3.604   6.669  17.897  0.00  0.00    +0.000 A 
ATOM      3  C   UNL     1       3.182   5.348  18.095  0.00  0.00    +0.000 A 
ATOM      4  C   UNL     1       3.778   4.292  17.398  0.00  0.00    +0.000 A 
ATOM      5  C   UNL     1       4.800   4.557  16.490  0.00  0.00    +0.000 A 
ATOM      6  C   UNL     1       5.315   3.545  15.586  0.00  0.00    +0.000 A 
ATOM      7  C   UNL     1       6.276   3.870  14.717  0.00  0.00    +0.000 A 
ATOM      8  C   UNL     1       6.913   5.200  14.708  0.00  0.00    +0.000 A 
ATOM      9  O   UNL     1       7.891   5.419  14.003  0.00  0.00    +0.000 OA
ATOM     10  O   UNL     1       6.348   6.172  15.516  0.00  0.00    +0.000 OA
ATOM     11  C   UNL     1       5.268   5.864  16.367  0.00  0.00    +0.000 A 
ATOM     12  C   UNL     1       4.680   6.925  17.052  0.00  0.00    +0.000 A 
ENDBRANCH   1   2
BRANCH   1  13
ATOM     13  C   UNL     1       2.185   7.174  19.745  0.00  0.00    +0.000 C 
BRANCH  13  18
ATOM     14  C   UNL     1       0.275  10.474  20.066  0.00  0.00    +0.000 A 
ATOM     15  C   UNL     1      -0.100  10.430  21.418  0.00  0.00    +0.000 A 
ATOM     16  C   UNL     1       0.286   9.360  22.225  0.00  0.00    +0.000 A 
ATOM     17  C   UNL     1       1.046   8.316  21.694  0.00  0.00    +0.000 A 
ATOM     18  C   UNL     1       1.436   8.338  20.347  0.00  0.00    +0.000 A 
ATOM     19  C   UNL     1       1.036   9.419  19.547  0.00  0.00    +0.000 A 
BRANCH  14  20
ATOM     20  C   UNL     1      -0.161  11.607  19.161  0.00  0.00    +0.000 C 
BRANCH  20  22
ATOM     21  C   UNL     1       1.806  13.027  19.370  0.00  0.00    +0.000 C 
ATOM     22  N   UNL     1       0.354  12.932  19.552  0.00  0.00    +0.000 NA
ATOM     23  C   UNL     1      -0.310  13.959  18.743  0.00  0.00    +0.000 C 
ENDBRANCH  20  22
ENDBRANCH  14  20
ENDBRANCH  13  18
ENDBRANCH   1  13
TORSDOF 5
ENDMDL
