MODEL 1
REMARK VINA RESULT:      -9.4      0.000      0.000
REMARK  Name = 
REMARK  6 active torsions:
REMARK  status: ('A' for Active; 'I' for Inactive)
REMARK    1  A    between atoms: C_1  and  C_2
REMARK    2  A    between atoms: N_4  and  C_5
REMARK    3  A    between atoms: C_9  and  C_10
REMARK    4  A    between atoms: C_15  and  C_16
REMARK    5  A    between atoms: N_18  and  C_19
REMARK    6  A    between atoms: C_19  and  C_20
REMARK                            x       y       z     vdW  Elec       q    Type
REMARK                         _______ _______ _______ _____ _____    ______ ____
ROOT
ATOM      1  C   UNL     1       3.383   4.227  19.362  0.00  0.00    +0.000 A 
ATOM      2  C   UNL     1       3.293   2.841  19.670  0.00  0.00    +0.000 A 
ATOM      3  C   UNL     1       2.297   2.295  20.486  0.00  0.00    +0.000 A 
ATOM      4  C   UNL     1       1.363   3.127  21.067  0.00  0.00    +0.000 A 
ATOM      5  C   UNL     1       1.413   4.495  20.803  0.00  0.00    +0.000 A 
ATOM      6  C   UNL     1       2.387   5.063  19.938  0.00  0.00    +0.000 A 
ENDROOT
BRANCH   1  11
ATOM      7  C   UNL     1       5.757   4.721  16.373  0.00  0.00    +0.000 A 
ATOM      8  C   UNL     1       6.866   5.268  17.009  0.00  0.00    +0.000 A 
ATOM      9  C   UNL     1       6.857   5.477  18.389  0.00  0.00    +0.000 A 
ATOM     10  C   UNL     1       5.739   5.137  19.152  0.00  0.00    +0.000 A 
ATOM     11  C   UNL     1       4.567   4.656  18.553  0.00  0.00    +0.000 A 
ATOM     12  C   UNL     1       4.607   4.469  17.142  0.00  0.00    +0.000 A 
BRANCH   7  16
ATOM     13  C   UNL     1       6.607   3.849  12.785  0.00  0.00    +0.000 C 
ATOM     14  C   UNL     1       6.749   4.613  14.078  0.00  0.00    +0.000 C 
ATOM     15  O   UNL     1       7.667   5.416  14.212  0.00  0.00    +0.000 OA
ATOM     16  N   UNL     1       5.762   4.329  15.008  0.00  0.00    +0.000 N 
ATOM     17  H   UNL     1       4.994   3.745  14.704  0.00  0.00    +0.000 HD
ENDBRANCH   7  16
ENDBRANCH   1  11
BRANCH   6  18
ATOM     18  C   UNL     1       2.204   6.549  19.773  0.00  0.00    +0.000 C 
ATOM     19  O   UNL     1       2.545   7.078  18.722  0.00  0.00    +0.000 OA
ATOM     20  N   UNL     1       1.719   7.277  20.843  0.00  0.00    +0.000 N 
ATOM     21  H   UNL     1       1.339   6.788  21.639  0.00  0.00    +0.000 HD
BRANCH  20  22
ATOM     22  C   UNL     1       1.494   8.717  20.750  0.00  0.00    +0.000 C 
BRANCH  22  23
ATOM     23  C   UNL     1      -0.000   9.107  20.800  0.00  0.00    +0.000 C 
ATOM     24  C   UNL     1      -0.269  10.594  20.520  0.00  0.00    +0.000 C 
ATOM     25  C   UNL     1       0.136  11.504  21.682  0.00  0.00    +0.000 C 
ATOM     26  N   UNL     1      -0.472  11.092  22.948  0.00  0.00    +0.000 NA
ATOM     27  C   UNL     1      -0.143   9.704  23.272  0.00  0.00    +0.000 C 
ATOM     28  C   UNL     1      -0.611   8.751  22.171  0.00  0.00    +0.000 C 
ATOM     29  H   UNL     1      -1.486  11.183  22.875  0.00  0.00    +0.000 HD
ENDBRANCH  22  23
ENDBRANCH  20  22
ENDBRANCH   6  18
TORSDOF 5
ENDMDL
MODEL 2
REMARK VINA RESULT:      -9.2      1.173      1.240
REMARK  Name = 
REMARK  6 active torsions:
REMARK  status: ('A' for Active; 'I' for Inactive)
REMARK    1  A    between atoms: C_1  and  C_2
REMARK    2  A    between atoms: N_4  and  C_5
REMARK    3  A    between atoms: C_9  and  C_10
REMARK    4  A    between atoms: C_15  and  C_16
REMARK    5  A    between atoms: N_18  and  C_19
REMARK    6  A    between atoms: C_19  and  C_20
REMARK                            x       y       z     vdW  Elec       q    Type
REMARK                         _______ _______ _______ _____ _____    ______ ____
ROOT
ATOM      1  C   UNL     1       3.585   4.380  18.365  0.00  0.00    +0.000 A 
ATOM      2  C   UNL     1       3.436   3.014  17.995  0.00  0.00    +0.000 A 
ATOM      3  C   UNL     1       2.251   2.293  18.165  0.00  0.00    +0.000 A 
ATOM      4  C   UNL     1       1.164   2.903  18.756  0.00  0.00    +0.000 A 
ATOM      5  C   UNL     1       1.261   4.238  19.144  0.00  0.00    +0.000 A 
ATOM      6  C   UNL     1       2.440   5.002  18.935  0.00  0.00    +0.000 A 
ENDROOT
BRANCH   1  11
ATOM      7  C   UNL     1       6.840   5.616  16.724  0.00  0.00    +0.000 A 
ATOM      8  C   UNL     1       7.607   5.900  17.850  0.00  0.00    +0.000 A 
ATOM      9  C   UNL     1       7.086   5.697  19.128  0.00  0.00    +0.000 A 
ATOM     10  C   UNL     1       5.793   5.200  19.299  0.00  0.00    +0.000 A 
ATOM     11  C   UNL     1       4.950   4.971  18.203  0.00  0.00    +0.000 A 
ATOM     12  C   UNL     1       5.509   5.203  16.914  0.00  0.00    +0.000 A 
BRANCH   7  16
ATOM     13  C   UNL     1       7.545   5.209  13.024  0.00  0.00    +0.000 C 
ATOM     14  C   UNL     1       7.026   4.779  14.373  0.00  0.00    +0.000 C 
ATOM     15  O   UNL     1       6.389   3.735  14.475  0.00  0.00    +0.000 OA
ATOM     16  N   UNL     1       7.363   5.640  15.404  0.00  0.00    +0.000 N 
ATOM     17  H   UNL     1       8.006   6.391  15.189  0.00  0.00    +0.000 HD
ENDBRANCH   7  16
ENDBRANCH   1  11
BRANCH   6  18
ATOM     18  C   UNL     1       2.282   6.429  19.392  0.00  0.00    +0.000 C 
ATOM     19  O   UNL     1       2.556   7.336  18.616  0.00  0.00    +0.000 OA
ATOM     20  N   UNL     1       1.898   6.665  20.698  0.00  0.00    +0.000 N 
ATOM     21  H   UNL     1       1.567   5.896  21.259  0.00  0.00    +0.000 HD
BRANCH  20  22
ATOM     22  C   UNL     1       1.702   8.021  21.205  0.00  0.00    +0.000 C 
BRANCH  22  23
ATOM     23  C   UNL     1       0.279   8.568  20.955  0.00  0.00    +0.000 C 
ATOM     24  C   UNL     1       0.249   9.984  20.359  0.00  0.00    +0.000 C 
ATOM     25  C   UNL     1       0.622  11.068  21.373  0.00  0.00    +0.000 C 
ATOM     26  N   UNL     1      -0.191  10.994  22.588  0.00  0.00    +0.000 NA
ATOM     27  C   UNL     1      -0.094   9.677  23.217  0.00  0.00    +0.000 C 
ATOM     28  C   UNL     1      -0.542   8.571  22.260  0.00  0.00    +0.000 C 
ATOM     29  H   UNL     1      -1.166  11.174  22.348  0.00  0.00    +0.000 HD
ENDBRANCH  22  23
ENDBRANCH  20  22
ENDBRANCH   6  18
TORSDOF 5
ENDMDL
MODEL 3
REMARK VINA RESULT:      -9.2      1.670      2.424
REMARK  Name = 
REMARK  6 active torsions:
REMARK  status: ('A' for Active; 'I' for Inactive)
REMARK    1  A    between atoms: C_1  and  C_2
REMARK    2  A    between atoms: N_4  and  C_5
REMARK    3  A    between atoms: C_9  and  C_10
REMARK    4  A    between atoms: C_15  and  C_16
REMARK    5  A    between atoms: N_18  and  C_19
REMARK    6  A    between atoms: C_19  and  C_20
REMARK                            x       y       z     vdW  Elec       q    Type
REMARK                         _______ _______ _______ _____ _____    ______ ____
ROOT
ATOM      1  C   UNL     1       3.503   4.345  19.211  0.00  0.00    +0.000 A 
ATOM      2  C   UNL     1       3.658   3.027  19.726  0.00  0.00    +0.000 A 
ATOM      3  C   UNL     1       2.960   2.544  20.836  0.00  0.00    +0.000 A 
ATOM      4  C   UNL     1       2.096   3.382  21.512  0.00  0.00    +0.000 A 
ATOM      5  C   UNL     1       1.915   4.685  21.053  0.00  0.00    +0.000 A 
ATOM      6  C   UNL     1       2.578   5.179  19.897  0.00  0.00    +0.000 A 
ENDROOT
BRANCH   1  11
ATOM      7  C   UNL     1       5.986   6.345  17.056  0.00  0.00    +0.000 A 
ATOM      8  C   UNL     1       5.961   5.607  15.877  0.00  0.00    +0.000 A 
ATOM      9  C   UNL     1       5.153   4.475  15.771  0.00  0.00    +0.000 A 
ATOM     10  C   UNL     1       4.353   4.068  16.840  0.00  0.00    +0.000 A 
ATOM     11  C   UNL     1       4.399   4.729  18.076  0.00  0.00    +0.000 A 
ATOM     12  C   UNL     1       5.246   5.870  18.154  0.00  0.00    +0.000 A 
BRANCH   7  16
ATOM     13  C   UNL     1       8.417   9.191  17.642  0.00  0.00    +0.000 C 
ATOM     14  C   UNL     1       7.795   7.845  17.916  0.00  0.00    +0.000 C 
ATOM     15  O   UNL     1       8.298   7.102  18.753  0.00  0.00    +0.000 OA
ATOM     16  N   UNL     1       6.653   7.593  17.174  0.00  0.00    +0.000 N 
ATOM     17  H   UNL     1       6.283   8.356  16.621  0.00  0.00    +0.000 HD
ENDBRANCH   7  16
ENDBRANCH   1  11
BRANCH   6  18
ATOM     18  C   UNL     1       2.180   6.596  19.576  0.00  0.00    +0.000 C 
ATOM     19  O   UNL     1       2.193   6.967  18.408  0.00  0.00    +0.000 OA
ATOM     20  N   UNL     1       1.881   7.451  20.619  0.00  0.00    +0.000 N 
ATOM     21  H   UNL     1       1.766   7.072  21.547  0.00  0.00    +0.000 HD
BRANCH  20  22
ATOM     22  C   UNL     1       1.466   8.831  20.384  0.00  0.00    +0.000 C 
BRANCH  22  23
ATOM     23  C   UNL     1      -0.034   9.074  20.660  0.00  0.00    +0.000 C 
ATOM     24  C   UNL     1      -0.473  10.538  20.495  0.00  0.00    +0.000 C 
ATOM     25  C   UNL     1       0.011  11.439  21.635  0.00  0.00    +0.000 C 
ATOM     26  N   UNL     1      -0.372  10.923  22.950  0.00  0.00    +0.000 NA
ATOM     27  C   UNL     1       0.122   9.561  23.154  0.00  0.00    +0.000 C 
ATOM     28  C   UNL     1      -0.410   8.610  22.082  0.00  0.00    +0.000 C 
ATOM     29  H   UNL     1      -1.390  10.919  23.022  0.00  0.00    +0.000 HD
ENDBRANCH  22  23
ENDBRANCH  20  22
ENDBRANCH   6  18
TORSDOF 5
ENDMDL
MODEL 4
REMARK VINA RESULT:      -8.9      1.157      1.433
REMARK  Name = 
REMARK  6 active torsions:
REMARK  status: ('A' for Active; 'I' for Inactive)
REMARK    1  A    between atoms: C_1  and  C_2
REMARK    2  A    between atoms: N_4  and  C_5
REMARK    3  A    between atoms: C_9  and  C_10
REMARK    4  A    between atoms: C_15  and  C_16
REMARK    5  A    between atoms: N_18  and  C_19
REMARK    6  A    between atoms: C_19  and  C_20
REMARK                            x       y       z     vdW  Elec       q    Type
REMARK                         _______ _______ _______ _____ _____    ______ ____
ROOT
ATOM      1  C   UNL     1       3.165   4.039  19.030  0.00  0.00    +0.000 A 
ATOM      2  C   UNL     1       2.849   2.663  19.205  0.00  0.00    +0.000 A 
ATOM      3  C   UNL     1       1.760   2.210  19.954  0.00  0.00    +0.000 A 
ATOM      4  C   UNL     1       0.955   3.124  20.603  0.00  0.00    +0.000 A 
ATOM      5  C   UNL     1       1.228   4.485  20.471  0.00  0.00    +0.000 A 
ATOM      6  C   UNL     1       2.300   4.966  19.673  0.00  0.00    +0.000 A 
ENDROOT
BRANCH   1  11
ATOM      7  C   UNL     1       5.706   4.297  16.151  0.00  0.00    +0.000 A 
ATOM      8  C   UNL     1       6.838   4.721  16.840  0.00  0.00    +0.000 A 
ATOM      9  C   UNL     1       6.790   4.922  18.219  0.00  0.00    +0.000 A 
ATOM     10  C   UNL     1       5.610   4.697  18.931  0.00  0.00    +0.000 A 
ATOM     11  C   UNL     1       4.422   4.346  18.277  0.00  0.00    +0.000 A 
ATOM     12  C   UNL     1       4.503   4.163  16.867  0.00  0.00    +0.000 A 
BRANCH   7  16
ATOM     13  C   UNL     1       6.550   3.628  12.518  0.00  0.00    +0.000 C 
ATOM     14  C   UNL     1       6.585   4.406  13.810  0.00  0.00    +0.000 C 
ATOM     15  O   UNL     1       7.311   5.390  13.908  0.00  0.00    +0.000 OA
ATOM     16  N   UNL     1       5.730   3.914  14.784  0.00  0.00    +0.000 N 
ATOM     17  H   UNL     1       5.094   3.176  14.511  0.00  0.00    +0.000 HD
ENDBRANCH   7  16
ENDBRANCH   1  11
BRANCH   6  18
ATOM     18  C   UNL     1       2.358   6.472  19.648  0.00  0.00    +0.000 C 
ATOM     19  O   UNL     1       2.972   7.029  18.746  0.00  0.00    +0.000 OA
ATOM     20  N   UNL     1       1.774   7.173  20.686  0.00  0.00    +0.000 N 
ATOM     21  H   UNL     1       1.179   6.682  21.336  0.00  0.00    +0.000 HD
BRANCH  20  22
ATOM     22  C   UNL     1       1.771   8.633  20.718  0.00  0.00    +0.000 C 
BRANCH  22  23
ATOM     23  C   UNL     1       0.510   9.256  20.080  0.00  0.00    +0.000 C 
ATOM     24  C   UNL     1       0.721   9.762  18.643  0.00  0.00    +0.000 C 
ATOM     25  C   UNL     1       1.543  11.051  18.578  0.00  0.00    +0.000 C 
ATOM     26  N   UNL     1       0.990  12.106  19.429  0.00  0.00    +0.000 NA
ATOM     27  C   UNL     1       0.874  11.665  20.819  0.00  0.00    +0.000 C 
ATOM     28  C   UNL     1      -0.014  10.426  20.937  0.00  0.00    +0.000 C 
ATOM     29  H   UNL     1       0.063  12.359  19.084  0.00  0.00    +0.000 HD
ENDBRANCH  22  23
ENDBRANCH  20  22
ENDBRANCH   6  18
TORSDOF 5
ENDMDL
MODEL 5
REMARK VINA RESULT:      -8.8      2.043      2.306
REMARK  Name = 
REMARK  6 active torsions:
REMARK  status: ('A' for Active; 'I' for Inactive)
REMARK    1  A    between atoms: C_1  and  C_2
REMARK    2  A    between atoms: N_4  and  C_5
REMARK    3  A    between atoms: C_9  and  C_10
REMARK    4  A    between atoms: C_15  and  C_16
REMARK    5  A    between atoms: N_18  and  C_19
REMARK    6  A    between atoms: C_19  and  C_20
REMARK                            x       y       z     vdW  Elec       q    Type
REMARK                         _______ _______ _______ _____ _____    ______ ____
ROOT
ATOM      1  C   UNL     1       3.605   4.172  18.245  0.00  0.00    +0.000 A 
ATOM      2  C   UNL     1       3.522   2.829  17.781  0.00  0.00    +0.000 A 
ATOM      3  C   UNL     1       2.376   2.039  17.906  0.00  0.00    +0.000 A 
ATOM      4  C   UNL     1       1.264   2.550  18.545  0.00  0.00    +0.000 A 
ATOM      5  C   UNL     1       1.298   3.859  19.024  0.00  0.00    +0.000 A 
ATOM      6  C   UNL     1       2.435   4.694  18.863  0.00  0.00    +0.000 A 
ENDROOT
BRANCH   1  11
ATOM      7  C   UNL     1       6.825   5.593  16.687  0.00  0.00    +0.000 A 
ATOM      8  C   UNL     1       7.543   5.924  17.831  0.00  0.00    +0.000 A 
ATOM      9  C   UNL     1       7.001   5.693  19.096  0.00  0.00    +0.000 A 
ATOM     10  C   UNL     1       5.735   5.122  19.234  0.00  0.00    +0.000 A 
ATOM     11  C   UNL     1       4.937   4.842  18.117  0.00  0.00    +0.000 A 
ATOM     12  C   UNL     1       5.515   5.104  16.842  0.00  0.00    +0.000 A 
BRANCH   7  16
ATOM     13  C   UNL     1       7.634   5.246  13.002  0.00  0.00    +0.000 C 
ATOM     14  C   UNL     1       7.092   4.787  14.333  0.00  0.00    +0.000 C 
ATOM     15  O   UNL     1       6.481   3.726  14.407  0.00  0.00    +0.000 OA
ATOM     16  N   UNL     1       7.381   5.646  15.381  0.00  0.00    +0.000 N 
ATOM     17  H   UNL     1       8.009   6.415  15.190  0.00  0.00    +0.000 HD
ENDBRANCH   7  16
ENDBRANCH   1  11
BRANCH   6  18
ATOM     18  C   UNL     1       2.210   6.076  19.419  0.00  0.00    +0.000 C 
ATOM     19  O   UNL     1       1.958   6.204  20.611  0.00  0.00    +0.000 OA
ATOM     20  N   UNL     1       2.226   7.150  18.549  0.00  0.00    +0.000 N 
ATOM     21  H   UNL     1       2.555   7.012  17.606  0.00  0.00    +0.000 HD
BRANCH  20  22
ATOM     22  C   UNL     1       2.038   8.519  19.019  0.00  0.00    +0.000 C 
BRANCH  22  23
ATOM     23  C   UNL     1       1.543   9.481  17.916  0.00  0.00    +0.000 C 
ATOM     24  C   UNL     1       2.091  10.912  18.042  0.00  0.00    +0.000 C 
ATOM     25  C   UNL     1       1.452  11.699  19.188  0.00  0.00    +0.000 C 
ATOM     26  N   UNL     1      -0.010  11.703  19.112  0.00  0.00    +0.000 NA
ATOM     27  C   UNL     1      -0.547  10.343  19.087  0.00  0.00    +0.000 C 
ATOM     28  C   UNL     1       0.002   9.549  17.902  0.00  0.00    +0.000 C 
ATOM     29  H   UNL     1      -0.297  12.186  18.260  0.00  0.00    +0.000 HD
ENDBRANCH  22  23
ENDBRANCH  20  22
ENDBRANCH   6  18
TORSDOF 5
ENDMDL
MODEL 6
REMARK VINA RESULT:      -8.8      1.207      1.341
REMARK  Name = 
REMARK  6 active torsions:
REMARK  status: ('A' for Active; 'I' for Inactive)
REMARK    1  A    between atoms: C_1  and  C_2
REMARK    2  A    between atoms: N_4  and  C_5
REMARK    3  A    between atoms: C_9  and  C_10
REMARK    4  A    between atoms: C_15  and  C_16
REMARK    5  A    between atoms: N_18  and  C_19
REMARK    6  A    between atoms: C_19  and  C_20
REMARK                            x       y       z     vdW  Elec       q    Type
REMARK                         _______ _______ _______ _____ _____    ______ ____
ROOT
ATOM      1  C   UNL     1       3.722   4.594  19.052  0.00  0.00    +0.000 A 
ATOM      2  C   UNL     1       3.520   3.389  19.781  0.00  0.00    +0.000 A 
ATOM      3  C   UNL     1       2.466   3.197  20.678  0.00  0.00    +0.000 A 
ATOM      4  C   UNL     1       1.582   4.229  20.919  0.00  0.00    +0.000 A 
ATOM      5  C   UNL     1       1.742   5.434  20.236  0.00  0.00    +0.000 A 
ATOM      6  C   UNL     1       2.778   5.631  19.283  0.00  0.00    +0.000 A 
ENDROOT
BRANCH   1  11
ATOM      7  C   UNL     1       6.066   4.319  16.011  0.00  0.00    +0.000 A 
ATOM      8  C   UNL     1       7.295   4.591  16.605  0.00  0.00    +0.000 A 
ATOM      9  C   UNL     1       7.374   4.859  17.971  0.00  0.00    +0.000 A 
ATOM     10  C   UNL     1       6.227   4.855  18.765  0.00  0.00    +0.000 A 
ATOM     11  C   UNL     1       4.956   4.665  18.207  0.00  0.00    +0.000 A 
ATOM     12  C   UNL     1       4.910   4.408  16.807  0.00  0.00    +0.000 A 
BRANCH   7  16
ATOM     13  C   UNL     1       6.486   3.502  12.336  0.00  0.00    +0.000 C 
ATOM     14  C   UNL     1       6.656   4.338  13.579  0.00  0.00    +0.000 C 
ATOM     15  O   UNL     1       7.365   5.338  13.547  0.00  0.00    +0.000 OA
ATOM     16  N   UNL     1       5.936   3.875  14.669  0.00  0.00    +0.000 N 
ATOM     17  H   UNL     1       5.289   3.114  14.507  0.00  0.00    +0.000 HD
ENDBRANCH   7  16
ENDBRANCH   1  11
BRANCH   6  18
ATOM     18  C   UNL     1       2.711   6.995  18.645  0.00  0.00    +0.000 C 
ATOM     19  O   UNL     1       3.437   7.241  17.690  0.00  0.00    +0.000 OA
ATOM     20  N   UNL     1       1.880   7.946  19.206  0.00  0.00    +0.000 N 
ATOM     21  H   UNL     1       1.216   7.664  19.910  0.00  0.00    +0.000 HD
BRANCH  20  22
ATOM     22  C   UNL     1       1.746   9.281  18.629  0.00  0.00    +0.000 C 
BRANCH  22  23
ATOM     23  C   UNL     1       0.424   9.983  19.012  0.00  0.00    +0.000 C 
ATOM     24  C   UNL     1       0.482  11.517  18.928  0.00  0.00    +0.000 C 
ATOM     25  C   UNL     1       1.292  12.148  20.063  0.00  0.00    +0.000 C 
ATOM     26  N   UNL     1       0.830  11.714  21.382  0.00  0.00    +0.000 NA
ATOM     27  C   UNL     1       0.861  10.256  21.506  0.00  0.00    +0.000 C 
ATOM     28  C   UNL     1      -0.009   9.589  20.439  0.00  0.00    +0.000 C 
ATOM     29  H   UNL     1      -0.128  12.036  21.522  0.00  0.00    +0.000 HD
ENDBRANCH  22  23
ENDBRANCH  20  22
ENDBRANCH   6  18
TORSDOF 5
ENDMDL
MODEL 7
REMARK VINA RESULT:      -8.7      2.135      7.399
REMARK  Name = 
REMARK  6 active torsions:
REMARK  status: ('A' for Active; 'I' for Inactive)
REMARK    1  A    between atoms: C_1  and  C_2
REMARK    2  A    between atoms: N_4  and  C_5
REMARK    3  A    between atoms: C_9  and  C_10
REMARK    4  A    between atoms: C_15  and  C_16
REMARK    5  A    between atoms: N_18  and  C_19
REMARK    6  A    between atoms: C_19  and  C_20
REMARK                            x       y       z     vdW  Elec       q    Type
REMARK                         _______ _______ _______ _____ _____    ______ ____
ROOT
ATOM      1  C   UNL     1       2.490   4.511  18.945  0.00  0.00    +0.000 A 
ATOM      2  C   UNL     1       1.289   3.749  18.896  0.00  0.00    +0.000 A 
ATOM      3  C   UNL     1       1.262   2.359  18.750  0.00  0.00    +0.000 A 
ATOM      4  C   UNL     1       2.448   1.669  18.603  0.00  0.00    +0.000 A 
ATOM      5  C   UNL     1       3.652   2.371  18.635  0.00  0.00    +0.000 A 
ATOM      6  C   UNL     1       3.702   3.777  18.832  0.00  0.00    +0.000 A 
ENDROOT
BRANCH   1  11
ATOM      7  C   UNL     1       1.797   8.038  20.321  0.00  0.00    +0.000 A 
ATOM      8  C   UNL     1       1.836   8.787  19.149  0.00  0.00    +0.000 A 
ATOM      9  C   UNL     1       2.082   8.167  17.924  0.00  0.00    +0.000 A 
ATOM     10  C   UNL     1       2.286   6.788  17.852  0.00  0.00    +0.000 A 
ATOM     11  C   UNL     1       2.335   5.999  19.008  0.00  0.00    +0.000 A 
ATOM     12  C   UNL     1       2.095   6.666  20.243  0.00  0.00    +0.000 A 
BRANCH   7  16
ATOM     13  C   UNL     1      -0.064   9.489  23.285  0.00  0.00    +0.000 C 
ATOM     14  C   UNL     1       0.216   9.271  21.819  0.00  0.00    +0.000 C 
ATOM     15  O   UNL     1      -0.558   9.718  20.979  0.00  0.00    +0.000 OA
ATOM     16  N   UNL     1       1.389   8.576  21.570  0.00  0.00    +0.000 N 
ATOM     17  H   UNL     1       1.992   8.389  22.360  0.00  0.00    +0.000 HD
ENDBRANCH   7  16
ENDBRANCH   1  11
BRANCH   6  18
ATOM     18  C   UNL     1       5.116   4.294  18.879  0.00  0.00    +0.000 C 
ATOM     19  O   UNL     1       5.459   5.006  19.815  0.00  0.00    +0.000 OA
ATOM     20  N   UNL     1       5.961   4.003  17.825  0.00  0.00    +0.000 N 
ATOM     21  H   UNL     1       5.676   3.318  17.142  0.00  0.00    +0.000 HD
BRANCH  20  22
ATOM     22  C   UNL     1       7.351   4.450  17.811  0.00  0.00    +0.000 C 
BRANCH  22  23
ATOM     23  C   UNL     1       7.656   5.462  16.684  0.00  0.00    +0.000 C 
ATOM     24  C   UNL     1       7.268   6.911  17.021  0.00  0.00    +0.000 C 
ATOM     25  C   UNL     1       5.755   7.146  16.993  0.00  0.00    +0.000 C 
ATOM     26  N   UNL     1       5.151   6.723  15.729  0.00  0.00    +0.000 NA
ATOM     27  C   UNL     1       5.436   5.317  15.445  0.00  0.00    +0.000 C 
ATOM     28  C   UNL     1       6.942   5.058  15.379  0.00  0.00    +0.000 C 
ATOM     29  H   UNL     1       5.528   7.296  14.973  0.00  0.00    +0.000 HD
ENDBRANCH  22  23
ENDBRANCH  20  22
ENDBRANCH   6  18
TORSDOF 5
ENDMDL
MODEL 8
REMARK VINA RESULT:      -8.7      1.542      1.918
REMARK  Name = 
REMARK  6 active torsions:
REMARK  status: ('A' for Active; 'I' for Inactive)
REMARK    1  A    between atoms: C_1  and  C_2
REMARK    2  A    between atoms: N_4  and  C_5
REMARK    3  A    between atoms: C_9  and  C_10
REMARK    4  A    between atoms: C_15  and  C_16
REMARK    5  A    between atoms: N_18  and  C_19
REMARK    6  A    between atoms: C_19  and  C_20
REMARK                            x       y       z     vdW  Elec       q    Type
REMARK                         _______ _______ _______ _____ _____    ______ ____
ROOT
ATOM      1  C   UNL     1       3.727   4.480  19.242  0.00  0.00    +0.000 A 
ATOM      2  C   UNL     1       3.592   3.241  19.930  0.00  0.00    +0.000 A 
ATOM      3  C   UNL     1       2.570   2.973  20.845  0.00  0.00    +0.000 A 
ATOM      4  C   UNL     1       1.653   3.959  21.146  0.00  0.00    +0.000 A 
ATOM      5  C   UNL     1       1.746   5.194  20.506  0.00  0.00    +0.000 A 
ATOM      6  C   UNL     1       2.748   5.468  19.536  0.00  0.00    +0.000 A 
ENDROOT
BRANCH   1  11
ATOM      7  C   UNL     1       6.019   4.350  16.153  0.00  0.00    +0.000 A 
ATOM      8  C   UNL     1       7.237   4.713  16.718  0.00  0.00    +0.000 A 
ATOM      9  C   UNL     1       7.326   4.997  18.081  0.00  0.00    +0.000 A 
ATOM     10  C   UNL     1       6.199   4.916  18.900  0.00  0.00    +0.000 A 
ATOM     11  C   UNL     1       4.933   4.632  18.370  0.00  0.00    +0.000 A 
ATOM     12  C   UNL     1       4.876   4.363  16.973  0.00  0.00    +0.000 A 
BRANCH   7  16
ATOM     13  C   UNL     1       6.447   3.488  12.489  0.00  0.00    +0.000 C 
ATOM     14  C   UNL     1       6.612   4.340  13.722  0.00  0.00    +0.000 C 
ATOM     15  O   UNL     1       7.319   5.342  13.678  0.00  0.00    +0.000 OA
ATOM     16  N   UNL     1       5.892   3.889  14.816  0.00  0.00    +0.000 N 
ATOM     17  H   UNL     1       5.248   3.124  14.663  0.00  0.00    +0.000 HD
ENDBRANCH   7  16
ENDBRANCH   1  11
BRANCH   6  18
ATOM     18  C   UNL     1       2.610   6.850  18.952  0.00  0.00    +0.000 C 
ATOM     19  O   UNL     1       3.210   7.123  17.920  0.00  0.00    +0.000 OA
ATOM     20  N   UNL     1       1.862   7.787  19.641  0.00  0.00    +0.000 N 
ATOM     21  H   UNL     1       1.291   7.485  20.415  0.00  0.00    +0.000 HD
BRANCH  20  22
ATOM     22  C   UNL     1       1.665   9.139  19.126  0.00  0.00    +0.000 C 
BRANCH  22  23
ATOM     23  C   UNL     1       0.675   9.975  19.966  0.00  0.00    +0.000 C 
ATOM     24  C   UNL     1      -0.768   9.955  19.437  0.00  0.00    +0.000 C 
ATOM     25  C   UNL     1      -0.950  10.788  18.166  0.00  0.00    +0.000 C 
ATOM     26  N   UNL     1      -0.471  12.162  18.329  0.00  0.00    +0.000 NA
ATOM     27  C   UNL     1       0.932  12.193  18.741  0.00  0.00    +0.000 C 
ATOM     28  C   UNL     1       1.141  11.443  20.057  0.00  0.00    +0.000 C 
ATOM     29  H   UNL     1      -1.035  12.628  19.040  0.00  0.00    +0.000 HD
ENDBRANCH  22  23
ENDBRANCH  20  22
ENDBRANCH   6  18
TORSDOF 5
ENDMDL
MODEL 9
REMARK VINA RESULT:      -8.6      0.605      1.199
REMARK  Name = 
REMARK  6 active torsions:
REMARK  status: ('A' for Active; 'I' for Inactive)
REMARK    1  A    between atoms: C_1  and  C_2
REMARK    2  A    between atoms: N_4  and  C_5
REMARK    3  A    between atoms: C_9  and  C_10
REMARK    4  A    between atoms: C_15  and  C_16
REMARK    5  A    between atoms: N_18  and  C_19
REMARK    6  A    between atoms: C_19  and  C_20
REMARK                            x       y       z     vdW  Elec       q    Type
REMARK                         _______ _______ _______ _____ _____    ______ ____
ROOT
ATOM      1  C   UNL     1       3.726   4.363  19.589  0.00  0.00    +0.000 A 
ATOM      2  C   UNL     1       3.773   3.045  20.122  0.00  0.00    +0.000 A 
ATOM      3  C   UNL     1       2.843   2.550  21.041  0.00  0.00    +0.000 A 
ATOM      4  C   UNL     1       1.838   3.376  21.502  0.00  0.00    +0.000 A 
ATOM      5  C   UNL     1       1.753   4.680  21.017  0.00  0.00    +0.000 A 
ATOM      6  C   UNL     1       2.659   5.185  20.046  0.00  0.00    +0.000 A 
ENDROOT
BRANCH   1  11
ATOM      7  C   UNL     1       5.907   4.738  16.440  0.00  0.00    +0.000 A 
ATOM      8  C   UNL     1       7.050   5.316  16.983  0.00  0.00    +0.000 A 
ATOM      9  C   UNL     1       7.124   5.583  18.350  0.00  0.00    +0.000 A 
ATOM     10  C   UNL     1       6.058   5.271  19.195  0.00  0.00    +0.000 A 
ATOM     11  C   UNL     1       4.854   4.761  18.691  0.00  0.00    +0.000 A 
ATOM     12  C   UNL     1       4.808   4.515  17.289  0.00  0.00    +0.000 A 
BRANCH   7  16
ATOM     13  C   UNL     1       6.531   3.750  12.836  0.00  0.00    +0.000 C 
ATOM     14  C   UNL     1       6.732   4.574  14.083  0.00  0.00    +0.000 C 
ATOM     15  O   UNL     1       7.620   5.420  14.117  0.00  0.00    +0.000 OA
ATOM     16  N   UNL     1       5.830   4.289  15.095  0.00  0.00    +0.000 N 
ATOM     17  H   UNL     1       5.068   3.661  14.873  0.00  0.00    +0.000 HD
ENDBRANCH   7  16
ENDBRANCH   1  11
BRANCH   6  18
ATOM     18  C   UNL     1       2.331   6.600  19.644  0.00  0.00    +0.000 C 
ATOM     19  O   UNL     1       2.714   7.014  18.558  0.00  0.00    +0.000 OA
ATOM     20  N   UNL     1       1.665   7.405  20.549  0.00  0.00    +0.000 N 
ATOM     21  H   UNL     1       1.264   6.988  21.375  0.00  0.00    +0.000 HD
BRANCH  20  22
ATOM     22  C   UNL     1       1.293   8.779  20.222  0.00  0.00    +0.000 C 
BRANCH  22  23
ATOM     23  C   UNL     1       1.537   9.771  21.381  0.00  0.00    +0.000 C 
ATOM     24  C   UNL     1       1.034   9.274  22.746  0.00  0.00    +0.000 C 
ATOM     25  C   UNL     1      -0.491   9.310  22.871  0.00  0.00    +0.000 C 
ATOM     26  N   UNL     1      -1.043  10.629  22.558  0.00  0.00    +0.000 NA
ATOM     27  C   UNL     1      -0.647  11.070  21.221  0.00  0.00    +0.000 C 
ATOM     28  C   UNL     1       0.875  11.131  21.083  0.00  0.00    +0.000 C 
ATOM     29  H   UNL     1      -0.700  11.304  23.243  0.00  0.00    +0.000 HD
ENDBRANCH  22  23
ENDBRANCH  20  22
ENDBRANCH   6  18
TORSDOF 5
ENDMDL
