MODEL 1
REMARK VINA RESULT:      -9.3      0.000      0.000
REMARK  Name = 
REMARK  5 active torsions:
REMARK  status: ('A' for Active; 'I' for Inactive)
REMARK    1  A    between atoms: C_1  and  C_2
REMARK    2  A    between atoms: C_8  and  C_10
REMARK    3  A    between atoms: N_17  and  C_18
REMARK    4  A    between atoms: C_22  and  C_23
REMARK    5  A    between atoms: N_31  and  C_32
REMARK                            x       y       z     vdW  Elec       q    Type
REMARK                         _______ _______ _______ _____ _____    ______ ____
ROOT
ATOM      1  C   UNL     1      -1.908  11.870  22.236  0.00  0.00    +0.000 A 
ATOM      2  C   UNL     1      -0.797  11.131  22.623  0.00  0.00    +0.000 A 
ATOM      3  C   UNL     1      -0.113  10.537  21.524  0.00  0.00    +0.000 A 
ATOM      4  C   UNL     1      -0.733  10.855  20.333  0.00  0.00    +0.000 A 
ATOM      5  S   UNL     1      -1.972  11.995  20.525  0.00  0.00    +0.000 S 
ATOM      6  C   UNL     1      -0.326  10.285  19.009  0.00  0.00    +0.000 C 
ATOM      7  C   UNL     1       1.156   9.871  19.072  0.00  0.00    +0.000 C 
ATOM      8  N   UNL     1       1.443   9.043  20.265  0.00  0.00    +0.000 N 
ATOM      9  C   UNL     1       1.116   9.659  21.564  0.00  0.00    +0.000 C 
ENDROOT
BRANCH   1  17
ATOM     10  C   UNL     1      -0.763  18.515  24.260  0.00  0.00    +0.000 C 
ATOM     11  C   UNL     1      -1.712  17.640  25.039  0.00  0.00    +0.000 C 
ATOM     12  O   UNL     1      -2.481  18.142  25.857  0.00  0.00    +0.000 OA
ATOM     13  N   UNL     1      -1.695  16.285  24.766  0.00  0.00    +0.000 N 
ATOM     14  C   UNL     1      -2.679  15.404  25.413  0.00  0.00    +0.000 C 
ATOM     15  C   UNL     1      -3.498  14.624  24.366  0.00  0.00    +0.000 C 
ATOM     16  N   UNL     1      -2.614  13.965  23.392  0.00  0.00    +0.000 N 
ATOM     17  C   UNL     1      -2.787  12.599  23.145  0.00  0.00    +0.000 C 
ATOM     18  O   UNL     1      -3.728  12.005  23.677  0.00  0.00    +0.000 OA
ATOM     19  C   UNL     1      -1.695  14.899  22.727  0.00  0.00    +0.000 C 
ATOM     20  C   UNL     1      -0.833  15.617  23.776  0.00  0.00    +0.000 C 
ENDBRANCH   1  17
BRANCH   8  21
ATOM     21  C   UNL     1       1.725   7.694  20.162  0.00  0.00    +0.000 A 
ATOM     22  C   UNL     1       1.174   6.741  21.029  0.00  0.00    +0.000 A 
ATOM     23  C   UNL     1       1.518   5.385  20.947  0.00  0.00    +0.000 A 
ATOM     24  C   UNL     1       2.437   4.946  19.992  0.00  0.00    +0.000 A 
ATOM     25  C   UNL     1       3.001   5.865  19.110  0.00  0.00    +0.000 A 
ATOM     26  C   UNL     1       2.613   7.210  19.195  0.00  0.00    +0.000 A 
BRANCH  25  27
ATOM     27  C   UNL     1       3.938   5.514  18.040  0.00  0.00    +0.000 A 
ATOM     28  N   UNL     1       5.143   6.055  17.939  0.00  0.00    +0.000 NA
ATOM     29  C   UNL     1       5.729   5.485  16.848  0.00  0.00    +0.000 A 
ATOM     30  C   UNL     1       7.008   5.703  16.322  0.00  0.00    +0.000 A 
ATOM     31  C   UNL     1       7.368   5.044  15.143  0.00  0.00    +0.000 A 
ATOM     32  C   UNL     1       6.470   4.185  14.507  0.00  0.00    +0.000 A 
ATOM     33  C   UNL     1       5.207   3.913  15.051  0.00  0.00    +0.000 A 
ATOM     34  C   UNL     1       4.874   4.572  16.242  0.00  0.00    +0.000 A 
ATOM     35  N   UNL     1       3.795   4.511  17.105  0.00  0.00    +0.000 N 
ATOM     36  C   UNL     1       2.843   3.426  17.165  0.00  0.00    +0.000 C 
ENDBRANCH  25  27
ENDBRANCH   8  21
TORSDOF 3
ENDMDL
MODEL 2
REMARK VINA RESULT:      -9.0      6.574      9.536
REMARK  Name = 
REMARK  5 active torsions:
REMARK  status: ('A' for Active; 'I' for Inactive)
REMARK    1  A    between atoms: C_1  and  C_2
REMARK    2  A    between atoms: C_8  and  C_10
REMARK    3  A    between atoms: N_17  and  C_18
REMARK    4  A    between atoms: C_22  and  C_23
REMARK    5  A    between atoms: N_31  and  C_32
REMARK                            x       y       z     vdW  Elec       q    Type
REMARK                         _______ _______ _______ _____ _____    ______ ____
ROOT
ATOM      1  C   UNL     1       5.675  16.501  19.234  0.00  0.00    +0.000 A 
ATOM      2  C   UNL     1       4.495  16.306  18.527  0.00  0.00    +0.000 A 
ATOM      3  C   UNL     1       3.376  16.047  19.371  0.00  0.00    +0.000 A 
ATOM      4  C   UNL     1       3.753  16.063  20.699  0.00  0.00    +0.000 A 
ATOM      5  S   UNL     1       5.354  16.572  20.919  0.00  0.00    +0.000 S 
ATOM      6  C   UNL     1       2.831  15.707  21.825  0.00  0.00    +0.000 C 
ATOM      7  C   UNL     1       1.377  15.960  21.386  0.00  0.00    +0.000 C 
ATOM      8  N   UNL     1       1.086  15.342  20.073  0.00  0.00    +0.000 N 
ATOM      9  C   UNL     1       1.950  15.772  18.958  0.00  0.00    +0.000 C 
ENDROOT
BRANCH   1  17
ATOM     10  C   UNL     1      10.504  11.588  17.781  0.00  0.00    +0.000 C 
ATOM     11  C   UNL     1      10.899  13.041  17.847  0.00  0.00    +0.000 C 
ATOM     12  O   UNL     1      11.984  13.404  17.397  0.00  0.00    +0.000 OA
ATOM     13  N   UNL     1       9.986  13.923  18.394  0.00  0.00    +0.000 N 
ATOM     14  C   UNL     1      10.274  15.365  18.377  0.00  0.00    +0.000 C 
ATOM     15  C   UNL     1       9.150  16.147  17.669  0.00  0.00    +0.000 C 
ATOM     16  N   UNL     1       7.832  15.779  18.211  0.00  0.00    +0.000 N 
ATOM     17  C   UNL     1       6.971  16.798  18.633  0.00  0.00    +0.000 C 
ATOM     18  O   UNL     1       7.297  17.974  18.456  0.00  0.00    +0.000 OA
ATOM     19  C   UNL     1       7.568  14.335  18.146  0.00  0.00    +0.000 C 
ATOM     20  C   UNL     1       8.655  13.571  18.916  0.00  0.00    +0.000 C 
ENDBRANCH   1  17
BRANCH   8  21
ATOM     21  C   UNL     1       0.262  14.238  19.956  0.00  0.00    +0.000 A 
ATOM     22  C   UNL     1      -1.134  14.329  20.042  0.00  0.00    +0.000 A 
ATOM     23  C   UNL     1      -1.950  13.191  19.983  0.00  0.00    +0.000 A 
ATOM     24  C   UNL     1      -1.385  11.922  19.841  0.00  0.00    +0.000 A 
ATOM     25  C   UNL     1       0.000  11.796  19.748  0.00  0.00    +0.000 A 
ATOM     26  C   UNL     1       0.789  12.955  19.778  0.00  0.00    +0.000 A 
BRANCH  25  27
ATOM     27  C   UNL     1       0.701  10.524  19.552  0.00  0.00    +0.000 A 
ATOM     28  N   UNL     1       1.323  10.217  18.424  0.00  0.00    +0.000 NA
ATOM     29  C   UNL     1       1.865   8.980  18.609  0.00  0.00    +0.000 A 
ATOM     30  C   UNL     1       2.634   8.215  17.725  0.00  0.00    +0.000 A 
ATOM     31  C   UNL     1       3.028   6.932  18.117  0.00  0.00    +0.000 A 
ATOM     32  C   UNL     1       2.663   6.428  19.366  0.00  0.00    +0.000 A 
ATOM     33  C   UNL     1       1.941   7.203  20.285  0.00  0.00    +0.000 A 
ATOM     34  C   UNL     1       1.571   8.491  19.877  0.00  0.00    +0.000 A 
ATOM     35  N   UNL     1       0.947   9.555  20.501  0.00  0.00    +0.000 N 
ATOM     36  C   UNL     1       0.824   9.720  21.932  0.00  0.00    +0.000 C 
ENDBRANCH  25  27
ENDBRANCH   8  21
TORSDOF 3
ENDMDL
MODEL 3
REMARK VINA RESULT:      -8.9      6.161      7.858
REMARK  Name = 
REMARK  5 active torsions:
REMARK  status: ('A' for Active; 'I' for Inactive)
REMARK    1  A    between atoms: C_1  and  C_2
REMARK    2  A    between atoms: C_8  and  C_10
REMARK    3  A    between atoms: N_17  and  C_18
REMARK    4  A    between atoms: C_22  and  C_23
REMARK    5  A    between atoms: N_31  and  C_32
REMARK                            x       y       z     vdW  Elec       q    Type
REMARK                         _______ _______ _______ _____ _____    ______ ____
ROOT
ATOM      1  C   UNL     1       4.432  15.733  18.938  0.00  0.00    +0.000 A 
ATOM      2  C   UNL     1       4.294  14.496  18.322  0.00  0.00    +0.000 A 
ATOM      3  C   UNL     1       3.032  13.884  18.575  0.00  0.00    +0.000 A 
ATOM      4  C   UNL     1       2.251  14.693  19.376  0.00  0.00    +0.000 A 
ATOM      5  S   UNL     1       2.941  16.217  19.640  0.00  0.00    +0.000 S 
ATOM      6  C   UNL     1       0.918  14.279  19.919  0.00  0.00    +0.000 C 
ATOM      7  C   UNL     1       0.306  13.210  18.995  0.00  0.00    +0.000 C 
ATOM      8  N   UNL     1       1.267  12.123  18.704  0.00  0.00    +0.000 N 
ATOM      9  C   UNL     1       2.539  12.542  18.088  0.00  0.00    +0.000 C 
ENDROOT
BRANCH   1  17
ATOM     10  C   UNL     1      10.837  13.361  17.229  0.00  0.00    +0.000 C 
ATOM     11  C   UNL     1      10.680  14.707  17.890  0.00  0.00    +0.000 C 
ATOM     12  O   UNL     1      11.618  15.502  17.896  0.00  0.00    +0.000 OA
ATOM     13  N   UNL     1       9.448  15.003  18.442  0.00  0.00    +0.000 N 
ATOM     14  C   UNL     1       9.207  16.344  18.996  0.00  0.00    +0.000 C 
ATOM     15  C   UNL     1       7.988  17.010  18.327  0.00  0.00    +0.000 C 
ATOM     16  N   UNL     1       6.824  16.109  18.340  0.00  0.00    +0.000 N 
ATOM     17  C   UNL     1       5.609  16.589  18.841  0.00  0.00    +0.000 C 
ATOM     18  O   UNL     1       5.520  17.775  19.170  0.00  0.00    +0.000 OA
ATOM     19  C   UNL     1       7.099  14.807  17.718  0.00  0.00    +0.000 C 
ATOM     20  C   UNL     1       8.269  14.121  18.440  0.00  0.00    +0.000 C 
ENDBRANCH   1  17
BRANCH   8  21
ATOM     21  C   UNL     1       1.108  10.853  19.228  0.00  0.00    +0.000 A 
ATOM     22  C   UNL     1       0.277  10.591  20.325  0.00  0.00    +0.000 A 
ATOM     23  C   UNL     1       0.175   9.308  20.882  0.00  0.00    +0.000 A 
ATOM     24  C   UNL     1       0.913   8.248  20.352  0.00  0.00    +0.000 A 
ATOM     25  C   UNL     1       1.745   8.472  19.256  0.00  0.00    +0.000 A 
ATOM     26  C   UNL     1       1.802   9.759  18.703  0.00  0.00    +0.000 A 
BRANCH  25  27
ATOM     27  C   UNL     1       2.529   7.429  18.590  0.00  0.00    +0.000 A 
ATOM     28  N   UNL     1       3.438   7.699  17.664  0.00  0.00    +0.000 NA
ATOM     29  C   UNL     1       3.968   6.502  17.287  0.00  0.00    +0.000 A 
ATOM     30  C   UNL     1       4.975   6.242  16.349  0.00  0.00    +0.000 A 
ATOM     31  C   UNL     1       5.311   4.913  16.079  0.00  0.00    +0.000 A 
ATOM     32  C   UNL     1       4.657   3.868  16.732  0.00  0.00    +0.000 A 
ATOM     33  C   UNL     1       3.686   4.113  17.714  0.00  0.00    +0.000 A 
ATOM     34  C   UNL     1       3.377   5.452  17.981  0.00  0.00    +0.000 A 
ATOM     35  N   UNL     1       2.564   6.087  18.902  0.00  0.00    +0.000 N 
ATOM     36  C   UNL     1       2.065   5.487  20.118  0.00  0.00    +0.000 C 
ENDBRANCH  25  27
ENDBRANCH   8  21
TORSDOF 3
ENDMDL
MODEL 4
REMARK VINA RESULT:      -8.8      5.709      7.054
REMARK  Name = 
REMARK  5 active torsions:
REMARK  status: ('A' for Active; 'I' for Inactive)
REMARK    1  A    between atoms: C_1  and  C_2
REMARK    2  A    between atoms: C_8  and  C_10
REMARK    3  A    between atoms: N_17  and  C_18
REMARK    4  A    between atoms: C_22  and  C_23
REMARK    5  A    between atoms: N_31  and  C_32
REMARK                            x       y       z     vdW  Elec       q    Type
REMARK                         _______ _______ _______ _____ _____    ______ ____
ROOT
ATOM      1  C   UNL     1       3.490  15.273  19.277  0.00  0.00    +0.000 A 
ATOM      2  C   UNL     1       3.404  14.079  18.573  0.00  0.00    +0.000 A 
ATOM      3  C   UNL     1       2.334  13.247  19.016  0.00  0.00    +0.000 A 
ATOM      4  C   UNL     1       1.640  13.852  20.044  0.00  0.00    +0.000 A 
ATOM      5  S   UNL     1       2.138  15.447  20.321  0.00  0.00    +0.000 S 
ATOM      6  C   UNL     1       0.537  13.182  20.803  0.00  0.00    +0.000 C 
ATOM      7  C   UNL     1      -0.099  12.095  19.917  0.00  0.00    +0.000 C 
ATOM      8  N   UNL     1       0.923  11.209  19.317  0.00  0.00    +0.000 N 
ATOM      9  C   UNL     1       1.951  11.881  18.500  0.00  0.00    +0.000 C 
ENDROOT
BRANCH   1  17
ATOM     10  C   UNL     1      10.253  13.979  17.807  0.00  0.00    +0.000 C 
ATOM     11  C   UNL     1       9.828  15.350  18.266  0.00  0.00    +0.000 C 
ATOM     12  O   UNL     1      10.590  16.306  18.135  0.00  0.00    +0.000 OA
ATOM     13  N   UNL     1       8.556  15.477  18.793  0.00  0.00    +0.000 N 
ATOM     14  C   UNL     1       8.050  16.812  19.148  0.00  0.00    +0.000 C 
ATOM     15  C   UNL     1       6.731  17.118  18.412  0.00  0.00    +0.000 C 
ATOM     16  N   UNL     1       5.767  16.019  18.582  0.00  0.00    +0.000 N 
ATOM     17  C   UNL     1       4.477  16.320  19.031  0.00  0.00    +0.000 C 
ATOM     18  O   UNL     1       4.152  17.500  19.183  0.00  0.00    +0.000 OA
ATOM     19  C   UNL     1       6.299  14.718  18.154  0.00  0.00    +0.000 C 
ATOM     20  C   UNL     1       7.574  14.390  18.945  0.00  0.00    +0.000 C 
ENDBRANCH   1  17
BRANCH   8  21
ATOM     21  C   UNL     1       1.074   9.897  19.722  0.00  0.00    +0.000 A 
ATOM     22  C   UNL     1       0.491   9.400  20.895  0.00  0.00    +0.000 A 
ATOM     23  C   UNL     1       0.705   8.082  21.323  0.00  0.00    +0.000 A 
ATOM     24  C   UNL     1       1.520   7.223  20.584  0.00  0.00    +0.000 A 
ATOM     25  C   UNL     1       2.112   7.683  19.409  0.00  0.00    +0.000 A 
ATOM     26  C   UNL     1       1.854   8.996  18.990  0.00  0.00    +0.000 A 
BRANCH  25  27
ATOM     27  C   UNL     1       2.948   6.860  18.530  0.00  0.00    +0.000 A 
ATOM     28  N   UNL     1       3.675   7.373  17.549  0.00  0.00    +0.000 NA
ATOM     29  C   UNL     1       4.323   6.326  16.964  0.00  0.00    +0.000 A 
ATOM     30  C   UNL     1       5.224   6.338  15.893  0.00  0.00    +0.000 A 
ATOM     31  C   UNL     1       5.716   5.118  15.419  0.00  0.00    +0.000 A 
ATOM     32  C   UNL     1       5.317   3.916  16.005  0.00  0.00    +0.000 A 
ATOM     33  C   UNL     1       4.460   3.891  17.114  0.00  0.00    +0.000 A 
ATOM     34  C   UNL     1       3.992   5.126  17.582  0.00  0.00    +0.000 A 
ATOM     35  N   UNL     1       3.223   5.516  18.663  0.00  0.00    +0.000 N 
ATOM     36  C   UNL     1       2.986   4.715  19.842  0.00  0.00    +0.000 C 
ENDBRANCH  25  27
ENDBRANCH   8  21
TORSDOF 3
ENDMDL
MODEL 5
REMARK VINA RESULT:      -8.5      1.385      1.626
REMARK  Name = 
REMARK  5 active torsions:
REMARK  status: ('A' for Active; 'I' for Inactive)
REMARK    1  A    between atoms: C_1  and  C_2
REMARK    2  A    between atoms: C_8  and  C_10
REMARK    3  A    between atoms: N_17  and  C_18
REMARK    4  A    between atoms: C_22  and  C_23
REMARK    5  A    between atoms: N_31  and  C_32
REMARK                            x       y       z     vdW  Elec       q    Type
REMARK                         _______ _______ _______ _____ _____    ______ ____
ROOT
ATOM      1  C   UNL     1      -2.507  12.181  20.105  0.00  0.00    +0.000 A 
ATOM      2  C   UNL     1      -1.636  11.483  20.932  0.00  0.00    +0.000 A 
ATOM      3  C   UNL     1      -0.561  10.874  20.221  0.00  0.00    +0.000 A 
ATOM      4  C   UNL     1      -0.655  11.144  18.870  0.00  0.00    +0.000 A 
ATOM      5  S   UNL     1      -1.881  12.256  18.508  0.00  0.00    +0.000 S 
ATOM      6  C   UNL     1       0.256  10.546  17.842  0.00  0.00    +0.000 C 
ATOM      7  C   UNL     1       1.592  10.172  18.508  0.00  0.00    +0.000 C 
ATOM      8  N   UNL     1       1.387   9.386  19.746  0.00  0.00    +0.000 N 
ATOM      9  C   UNL     1       0.558  10.029  20.782  0.00  0.00    +0.000 C 
ENDROOT
BRANCH   1  17
ATOM     10  C   UNL     1      -2.381  16.902  25.327  0.00  0.00    +0.000 C 
ATOM     11  C   UNL     1      -3.691  16.308  24.876  0.00  0.00    +0.000 C 
ATOM     12  O   UNL     1      -4.752  16.824  25.222  0.00  0.00    +0.000 OA
ATOM     13  N   UNL     1      -3.635  15.203  24.046  0.00  0.00    +0.000 N 
ATOM     14  C   UNL     1      -4.880  14.656  23.485  0.00  0.00    +0.000 C 
ATOM     15  C   UNL     1      -4.821  14.612  21.946  0.00  0.00    +0.000 C 
ATOM     16  N   UNL     1      -3.587  13.957  21.485  0.00  0.00    +0.000 N 
ATOM     17  C   UNL     1      -3.685  12.913  20.559  0.00  0.00    +0.000 C 
ATOM     18  O   UNL     1      -4.789  12.631  20.085  0.00  0.00    +0.000 OA
ATOM     19  C   UNL     1      -2.371  14.582  22.023  0.00  0.00    +0.000 C 
ATOM     20  C   UNL     1      -2.407  14.554  23.559  0.00  0.00    +0.000 C 
ENDBRANCH   1  17
BRANCH   8  21
ATOM     21  C   UNL     1       1.703   8.042  19.812  0.00  0.00    +0.000 A 
ATOM     22  C   UNL     1       1.197   7.199  20.811  0.00  0.00    +0.000 A 
ATOM     23  C   UNL     1       1.576   5.852  20.899  0.00  0.00    +0.000 A 
ATOM     24  C   UNL     1       2.483   5.312  19.986  0.00  0.00    +0.000 A 
ATOM     25  C   UNL     1       3.002   6.121  18.976  0.00  0.00    +0.000 A 
ATOM     26  C   UNL     1       2.580   7.456  18.895  0.00  0.00    +0.000 A 
BRANCH  25  27
ATOM     27  C   UNL     1       3.924   5.654  17.938  0.00  0.00    +0.000 A 
ATOM     28  N   UNL     1       5.117   6.197  17.744  0.00  0.00    +0.000 NA
ATOM     29  C   UNL     1       5.691   5.505  16.719  0.00  0.00    +0.000 A 
ATOM     30  C   UNL     1       6.955   5.676  16.141  0.00  0.00    +0.000 A 
ATOM     31  C   UNL     1       7.303   4.881  15.045  0.00  0.00    +0.000 A 
ATOM     32  C   UNL     1       6.408   3.937  14.541  0.00  0.00    +0.000 A 
ATOM     33  C   UNL     1       5.161   3.715  15.142  0.00  0.00    +0.000 A 
ATOM     34  C   UNL     1       4.840   4.511  16.249  0.00  0.00    +0.000 A 
ATOM     35  N   UNL     1       3.780   4.541  17.137  0.00  0.00    +0.000 N 
ATOM     36  C   UNL     1       2.849   3.457  17.352  0.00  0.00    +0.000 C 
ENDBRANCH  25  27
ENDBRANCH   8  21
TORSDOF 3
ENDMDL
MODEL 6
REMARK VINA RESULT:      -8.5      6.000      7.944
REMARK  Name = 
REMARK  5 active torsions:
REMARK  status: ('A' for Active; 'I' for Inactive)
REMARK    1  A    between atoms: C_1  and  C_2
REMARK    2  A    between atoms: C_8  and  C_10
REMARK    3  A    between atoms: N_17  and  C_18
REMARK    4  A    between atoms: C_22  and  C_23
REMARK    5  A    between atoms: N_31  and  C_32
REMARK                            x       y       z     vdW  Elec       q    Type
REMARK                         _______ _______ _______ _____ _____    ______ ____
ROOT
ATOM      1  C   UNL     1       4.045  15.642  18.790  0.00  0.00    +0.000 A 
ATOM      2  C   UNL     1       4.051  14.275  18.541  0.00  0.00    +0.000 A 
ATOM      3  C   UNL     1       2.755  13.689  18.625  0.00  0.00    +0.000 A 
ATOM      4  C   UNL     1       1.806  14.643  18.930  0.00  0.00    +0.000 A 
ATOM      5  S   UNL     1       2.433  16.217  18.915  0.00  0.00    +0.000 S 
ATOM      6  C   UNL     1       0.369  14.324  19.206  0.00  0.00    +0.000 C 
ATOM      7  C   UNL     1       0.002  13.004  18.502  0.00  0.00    +0.000 C 
ATOM      8  N   UNL     1       0.984  11.936  18.793  0.00  0.00    +0.000 N 
ATOM      9  C   UNL     1       2.382  12.238  18.434  0.00  0.00    +0.000 C 
ENDROOT
BRANCH   1  17
ATOM     10  C   UNL     1      10.531  13.310  17.351  0.00  0.00    +0.000 C 
ATOM     11  C   UNL     1      10.339  14.646  18.022  0.00  0.00    +0.000 C 
ATOM     12  O   UNL     1      11.273  15.444  18.081  0.00  0.00    +0.000 OA
ATOM     13  N   UNL     1       9.081  14.932  18.519  0.00  0.00    +0.000 N 
ATOM     14  C   UNL     1       8.811  16.265  19.079  0.00  0.00    +0.000 C 
ATOM     15  C   UNL     1       7.622  16.936  18.362  0.00  0.00    +0.000 C 
ATOM     16  N   UNL     1       6.462  16.032  18.310  0.00  0.00    +0.000 N 
ATOM     17  C   UNL     1       5.224  16.503  18.759  0.00  0.00    +0.000 C 
ATOM     18  O   UNL     1       5.115  17.684  19.099  0.00  0.00    +0.000 OA
ATOM     19  C   UNL     1       6.770  14.739  17.685  0.00  0.00    +0.000 C 
ATOM     20  C   UNL     1       7.907  14.047  18.451  0.00  0.00    +0.000 C 
ENDBRANCH   1  17
BRANCH   8  21
ATOM     21  C   UNL     1       0.668  10.859  19.599  0.00  0.00    +0.000 A 
ATOM     22  C   UNL     1      -0.293  10.937  20.616  0.00  0.00    +0.000 A 
ATOM     23  C   UNL     1      -0.557   9.852  21.464  0.00  0.00    +0.000 A 
ATOM     24  C   UNL     1       0.144   8.654  21.318  0.00  0.00    +0.000 A 
ATOM     25  C   UNL     1       1.103   8.539  20.313  0.00  0.00    +0.000 A 
ATOM     26  C   UNL     1       1.323   9.631  19.461  0.00  0.00    +0.000 A 
BRANCH  25  27
ATOM     27  C   UNL     1       1.867   7.320  20.037  0.00  0.00    +0.000 A 
ATOM     28  N   UNL     1       1.666   6.187  20.694  0.00  0.00    +0.000 NA
ATOM     29  C   UNL     1       2.535   5.279  20.165  0.00  0.00    +0.000 A 
ATOM     30  C   UNL     1       2.709   3.931  20.500  0.00  0.00    +0.000 A 
ATOM     31  C   UNL     1       3.719   3.207  19.859  0.00  0.00    +0.000 A 
ATOM     32  C   UNL     1       4.533   3.818  18.904  0.00  0.00    +0.000 A 
ATOM     33  C   UNL     1       4.335   5.151  18.518  0.00  0.00    +0.000 A 
ATOM     34  C   UNL     1       3.307   5.852  19.161  0.00  0.00    +0.000 A 
ATOM     35  N   UNL     1       2.761   7.113  19.009  0.00  0.00    +0.000 N 
ATOM     36  C   UNL     1       2.910   7.944  17.836  0.00  0.00    +0.000 C 
ENDBRANCH  25  27
ENDBRANCH   8  21
TORSDOF 3
ENDMDL
MODEL 7
REMARK VINA RESULT:      -8.5      4.442     12.461
REMARK  Name = 
REMARK  5 active torsions:
REMARK  status: ('A' for Active; 'I' for Inactive)
REMARK    1  A    between atoms: C_1  and  C_2
REMARK    2  A    between atoms: C_8  and  C_10
REMARK    3  A    between atoms: N_17  and  C_18
REMARK    4  A    between atoms: C_22  and  C_23
REMARK    5  A    between atoms: N_31  and  C_32
REMARK                            x       y       z     vdW  Elec       q    Type
REMARK                         _______ _______ _______ _____ _____    ______ ____
ROOT
ATOM      1  C   UNL     1       2.382   7.983  18.398  0.00  0.00    +0.000 A 
ATOM      2  C   UNL     1       1.725   8.966  17.670  0.00  0.00    +0.000 A 
ATOM      3  C   UNL     1       0.847   9.757  18.468  0.00  0.00    +0.000 A 
ATOM      4  C   UNL     1       0.879   9.342  19.784  0.00  0.00    +0.000 A 
ATOM      5  S   UNL     1       2.075   8.178  20.076  0.00  0.00    +0.000 S 
ATOM      6  C   UNL     1      -0.021   9.893  20.847  0.00  0.00    +0.000 C 
ATOM      7  C   UNL     1      -0.461  11.314  20.449  0.00  0.00    +0.000 C 
ATOM      8  N   UNL     1      -0.971  11.362  19.061  0.00  0.00    +0.000 N 
ATOM      9  C   UNL     1      -0.037  10.896  18.020  0.00  0.00    +0.000 C 
ENDROOT
BRANCH   1  17
ATOM     10  C   UNL     1       1.848   0.999  19.116  0.00  0.00    +0.000 C 
ATOM     11  C   UNL     1       3.163   1.620  18.720  0.00  0.00    +0.000 C 
ATOM     12  O   UNL     1       4.064   0.916  18.268  0.00  0.00    +0.000 OA
ATOM     13  N   UNL     1       3.284   2.991  18.854  0.00  0.00    +0.000 N 
ATOM     14  C   UNL     1       4.502   3.660  18.374  0.00  0.00    +0.000 C 
ATOM     15  C   UNL     1       4.164   4.760  17.350  0.00  0.00    +0.000 C 
ATOM     16  N   UNL     1       3.120   5.659  17.869  0.00  0.00    +0.000 N 
ATOM     17  C   UNL     1       3.349   7.039  17.845  0.00  0.00    +0.000 C 
ATOM     18  O   UNL     1       4.372   7.470  17.309  0.00  0.00    +0.000 OA
ATOM     19  C   UNL     1       1.900   4.947  18.275  0.00  0.00    +0.000 C 
ATOM     20  C   UNL     1       2.239   3.903  19.349  0.00  0.00    +0.000 C 
ENDBRANCH   1  17
BRANCH   8  21
ATOM     21  C   UNL     1      -2.313  11.553  18.787  0.00  0.00    +0.000 A 
ATOM     22  C   UNL     1      -2.870  11.281  17.531  0.00  0.00    +0.000 A 
ATOM     23  C   UNL     1      -4.220  11.538  17.253  0.00  0.00    +0.000 A 
ATOM     24  C   UNL     1      -5.051  12.084  18.233  0.00  0.00    +0.000 A 
ATOM     25  C   UNL     1      -4.531  12.362  19.495  0.00  0.00    +0.000 A 
ATOM     26  C   UNL     1      -3.185  12.065  19.753  0.00  0.00    +0.000 A 
BRANCH  25  27
ATOM     27  C   UNL     1      -5.317  12.893  20.612  0.00  0.00    +0.000 A 
ATOM     28  N   UNL     1      -5.152  14.119  21.084  0.00  0.00    +0.000 NA
ATOM     29  C   UNL     1      -6.052  14.266  22.097  0.00  0.00    +0.000 A 
ATOM     30  C   UNL     1      -6.291  15.382  22.907  0.00  0.00    +0.000 A 
ATOM     31  C   UNL     1      -7.231  15.273  23.936  0.00  0.00    +0.000 A 
ATOM     32  C   UNL     1      -7.917  14.077  24.148  0.00  0.00    +0.000 A 
ATOM     33  C   UNL     1      -7.729  12.968  23.310  0.00  0.00    +0.000 A 
ATOM     34  C   UNL     1      -6.795  13.104  22.276  0.00  0.00    +0.000 A 
ATOM     35  N   UNL     1      -6.399  12.297  21.225  0.00  0.00    +0.000 N 
ATOM     36  C   UNL     1      -7.154  11.178  20.710  0.00  0.00    +0.000 C 
ENDBRANCH  25  27
ENDBRANCH   8  21
TORSDOF 3
ENDMDL
MODEL 8
REMARK VINA RESULT:      -8.5      4.974      5.950
REMARK  Name = 
REMARK  5 active torsions:
REMARK  status: ('A' for Active; 'I' for Inactive)
REMARK    1  A    between atoms: C_1  and  C_2
REMARK    2  A    between atoms: C_8  and  C_10
REMARK    3  A    between atoms: N_17  and  C_18
REMARK    4  A    between atoms: C_22  and  C_23
REMARK    5  A    between atoms: N_31  and  C_32
REMARK                            x       y       z     vdW  Elec       q    Type
REMARK                         _______ _______ _______ _____ _____    ______ ____
ROOT
ATOM      1  C   UNL     1       2.240  14.051  18.992  0.00  0.00    +0.000 A 
ATOM      2  C   UNL     1       2.349  12.889  18.238  0.00  0.00    +0.000 A 
ATOM      3  C   UNL     1       1.662  11.783  18.816  0.00  0.00    +0.000 A 
ATOM      4  C   UNL     1       1.047  12.153  19.995  0.00  0.00    +0.000 A 
ATOM      5  S   UNL     1       1.130  13.821  20.281  0.00  0.00    +0.000 S 
ATOM      6  C   UNL     1       0.347  11.188  20.902  0.00  0.00    +0.000 C 
ATOM      7  C   UNL     1      -0.127   9.976  20.079  0.00  0.00    +0.000 C 
ATOM      8  N   UNL     1       0.959   9.424  19.239  0.00  0.00    +0.000 N 
ATOM      9  C   UNL     1       1.576  10.370  18.291  0.00  0.00    +0.000 C 
ENDROOT
BRANCH   1  17
ATOM     10  C   UNL     1       9.177  15.161  18.529  0.00  0.00    +0.000 C 
ATOM     11  C   UNL     1       8.231  16.329  18.645  0.00  0.00    +0.000 C 
ATOM     12  O   UNL     1       8.624  17.467  18.397  0.00  0.00    +0.000 OA
ATOM     13  N   UNL     1       6.924  16.053  19.000  0.00  0.00    +0.000 N 
ATOM     14  C   UNL     1       5.933  17.140  19.014  0.00  0.00    +0.000 C 
ATOM     15  C   UNL     1       4.737  16.812  18.100  0.00  0.00    +0.000 C 
ATOM     16  N   UNL     1       4.200  15.474  18.395  0.00  0.00    +0.000 N 
ATOM     17  C   UNL     1       2.829  15.338  18.635  0.00  0.00    +0.000 C 
ATOM     18  O   UNL     1       2.094  16.320  18.504  0.00  0.00    +0.000 OA
ATOM     19  C   UNL     1       5.216  14.416  18.304  0.00  0.00    +0.000 C 
ATOM     20  C   UNL     1       6.370  14.716  19.273  0.00  0.00    +0.000 C 
ENDBRANCH   1  17
BRANCH   8  21
ATOM     21  C   UNL     1       1.545   8.204  19.520  0.00  0.00    +0.000 A 
ATOM     22  C   UNL     1       1.316   7.518  20.720  0.00  0.00    +0.000 A 
ATOM     23  C   UNL     1       1.967   6.311  21.013  0.00  0.00    +0.000 A 
ATOM     24  C   UNL     1       2.875   5.760  20.107  0.00  0.00    +0.000 A 
ATOM     25  C   UNL     1       3.122   6.413  18.901  0.00  0.00    +0.000 A 
ATOM     26  C   UNL     1       2.432   7.602  18.622  0.00  0.00    +0.000 A 
BRANCH  25  27
ATOM     27  C   UNL     1       4.017   5.907  17.857  0.00  0.00    +0.000 A 
ATOM     28  N   UNL     1       5.223   6.411  17.643  0.00  0.00    +0.000 NA
ATOM     29  C   UNL     1       5.764   5.691  16.619  0.00  0.00    +0.000 A 
ATOM     30  C   UNL     1       7.025   5.818  16.026  0.00  0.00    +0.000 A 
ATOM     31  C   UNL     1       7.336   5.001  14.935  0.00  0.00    +0.000 A 
ATOM     32  C   UNL     1       6.407   4.078  14.451  0.00  0.00    +0.000 A 
ATOM     33  C   UNL     1       5.162   3.900  15.070  0.00  0.00    +0.000 A 
ATOM     34  C   UNL     1       4.878   4.718  16.171  0.00  0.00    +0.000 A 
ATOM     35  N   UNL     1       3.830   4.790  17.071  0.00  0.00    +0.000 N 
ATOM     36  C   UNL     1       2.869   3.737  17.309  0.00  0.00    +0.000 C 
ENDBRANCH  25  27
ENDBRANCH   8  21
TORSDOF 3
ENDMDL
MODEL 9
REMARK VINA RESULT:      -8.4      6.181     11.510
REMARK  Name = 
REMARK  5 active torsions:
REMARK  status: ('A' for Active; 'I' for Inactive)
REMARK    1  A    between atoms: C_1  and  C_2
REMARK    2  A    between atoms: C_8  and  C_10
REMARK    3  A    between atoms: N_17  and  C_18
REMARK    4  A    between atoms: C_22  and  C_23
REMARK    5  A    between atoms: N_31  and  C_32
REMARK                            x       y       z     vdW  Elec       q    Type
REMARK                         _______ _______ _______ _____ _____    ______ ____
ROOT
ATOM      1  C   UNL     1       4.094  16.038  19.094  0.00  0.00    +0.000 A 
ATOM      2  C   UNL     1       3.962  14.727  19.534  0.00  0.00    +0.000 A 
ATOM      3  C   UNL     1       2.622  14.248  19.461  0.00  0.00    +0.000 A 
ATOM      4  C   UNL     1       1.783  15.221  18.957  0.00  0.00    +0.000 A 
ATOM      5  S   UNL     1       2.620  16.586  18.406  0.00  0.00    +0.000 S 
ATOM      6  C   UNL     1       0.295  15.067  18.872  0.00  0.00    +0.000 C 
ATOM      7  C   UNL     1      -0.054  13.569  18.796  0.00  0.00    +0.000 C 
ATOM      8  N   UNL     1       0.631  12.792  19.854  0.00  0.00    +0.000 N 
ATOM      9  C   UNL     1       2.103  12.889  19.866  0.00  0.00    +0.000 C 
ENDROOT
BRANCH   1  17
ATOM     10  C   UNL     1      10.255  13.146  17.292  0.00  0.00    +0.000 C 
ATOM     11  C   UNL     1      10.223  14.467  18.017  0.00  0.00    +0.000 C 
ATOM     12  O   UNL     1      11.233  15.167  18.065  0.00  0.00    +0.000 OA
ATOM     13  N   UNL     1       9.021  14.853  18.579  0.00  0.00    +0.000 N 
ATOM     14  C   UNL     1       8.906  16.183  19.197  0.00  0.00    +0.000 C 
ATOM     15  C   UNL     1       7.762  16.994  18.557  0.00  0.00    +0.000 C 
ATOM     16  N   UNL     1       6.517  16.211  18.523  0.00  0.00    +0.000 N 
ATOM     17  C   UNL     1       5.350  16.781  19.042  0.00  0.00    +0.000 C 
ATOM     18  O   UNL     1       5.372  17.952  19.428  0.00  0.00    +0.000 OA
ATOM     19  C   UNL     1       6.670  14.920  17.839  0.00  0.00    +0.000 C 
ATOM     20  C   UNL     1       7.763  14.090  18.530  0.00  0.00    +0.000 C 
ENDBRANCH   1  17
BRANCH   8  21
ATOM     21  C   UNL     1      -0.061  12.252  20.921  0.00  0.00    +0.000 A 
ATOM     22  C   UNL     1       0.385  11.115  21.609  0.00  0.00    +0.000 A 
ATOM     23  C   UNL     1      -0.362  10.546  22.650  0.00  0.00    +0.000 A 
ATOM     24  C   UNL     1      -1.586  11.100  23.027  0.00  0.00    +0.000 A 
ATOM     25  C   UNL     1      -2.057  12.234  22.368  0.00  0.00    +0.000 A 
ATOM     26  C   UNL     1      -1.273  12.800  21.352  0.00  0.00    +0.000 A 
BRANCH  25  27
ATOM     27  C   UNL     1      -3.302  12.927  22.707  0.00  0.00    +0.000 A 
ATOM     28  N   UNL     1      -4.497  12.398  22.490  0.00  0.00    +0.000 NA
ATOM     29  C   UNL     1      -5.407  13.309  22.938  0.00  0.00    +0.000 A 
ATOM     30  C   UNL     1      -6.804  13.223  22.950  0.00  0.00    +0.000 A 
ATOM     31  C   UNL     1      -7.538  14.323  23.404  0.00  0.00    +0.000 A 
ATOM     32  C   UNL     1      -6.889  15.480  23.837  0.00  0.00    +0.000 A 
ATOM     33  C   UNL     1      -5.490  15.561  23.884  0.00  0.00    +0.000 A 
ATOM     34  C   UNL     1      -4.775  14.441  23.440  0.00  0.00    +0.000 A 
ATOM     35  N   UNL     1      -3.433  14.108  23.406  0.00  0.00    +0.000 N 
ATOM     36  C   UNL     1      -2.402  14.747  24.191  0.00  0.00    +0.000 C 
ENDBRANCH  25  27
ENDBRANCH   8  21
TORSDOF 3
ENDMDL
