MODEL 1
REMARK VINA RESULT:      -8.6      0.000      0.000
REMARK  Name = 
REMARK  10 active torsions:
REMARK  status: ('A' for Active; 'I' for Inactive)
REMARK    1  A    between atoms: C_1  and  O_2
REMARK    2  A    between atoms: O_2  and  C_3
REMARK    3  A    between atoms: C_5  and  C_6
REMARK    4  A    between atoms: N_11  and  C_12
REMARK    5  A    between atoms: C_15  and  N_16
REMARK    6  A    between atoms: C_25  and  O_26
REMARK    7  A    between atoms: O_26  and  C_27
REMARK    8  A    between atoms: C_27  and  C_28
REMARK    9  A    between atoms: C_29  and  C_30
REMARK   10  A    between atoms: C_33  and  C_34
REMARK                            x       y       z     vdW  Elec       q    Type
REMARK                         _______ _______ _______ _____ _____    ______ ____
ROOT
ATOM      1  C   UNL     1       2.452   5.021  19.054  0.00  0.00    +0.000 A 
ATOM      2  C   UNL     1       1.923   5.982  19.930  0.00  0.00    +0.000 A 
ATOM      3  C   UNL     1       2.067   7.349  19.659  0.00  0.00    +0.000 A 
ATOM      4  C   UNL     1       2.893   7.755  18.615  0.00  0.00    +0.000 A 
ATOM      5  C   UNL     1       3.428   6.812  17.743  0.00  0.00    +0.000 A 
ATOM      6  C   UNL     1       3.214   5.447  17.952  0.00  0.00    +0.000 A 
ENDROOT
BRANCH   3   7
ATOM      7  C   UNL     1       1.331   8.329  20.501  0.00  0.00    +0.000 C 
ATOM      8  O   UNL     1       0.957   7.960  21.612  0.00  0.00    +0.000 OA
ATOM      9  N   UNL     1       1.091   9.614  20.018  0.00  0.00    +0.000 N 
ATOM     10  C   UNL     1       0.574  10.633  20.935  0.00  0.00    +0.000 C 
ATOM     11  C   UNL     1       1.425  11.914  20.846  0.00  0.00    +0.000 C 
ATOM     12  N   UNL     1       1.524  12.370  19.441  0.00  0.00    +0.000 N 
ATOM     13  C   UNL     1       2.004  11.357  18.487  0.00  0.00    +0.000 C 
ATOM     14  C   UNL     1       1.148  10.076  18.618  0.00  0.00    +0.000 C 
BRANCH  12  15
ATOM     15  C   UNL     1       1.258  13.670  19.066  0.00  0.00    +0.000 A 
ATOM     16  C   UNL     1      -0.053  14.170  18.996  0.00  0.00    +0.000 A 
ATOM     17  C   UNL     1      -0.319  15.499  18.628  0.00  0.00    +0.000 A 
ATOM     18  C   UNL     1       0.738  16.351  18.326  0.00  0.00    +0.000 A 
ATOM     19  C   UNL     1       2.055  15.890  18.392  0.00  0.00    +0.000 A 
ATOM     20  C   UNL     1       2.297  14.565  18.762  0.00  0.00    +0.000 A 
BRANCH  18  21
ATOM     21  N   UNL     1       0.476  17.741  17.936  0.00  0.00    +0.000 N 
ATOM     22  O   UNL     1       1.404  18.556  18.047  0.00  0.00    +0.000 OA
ATOM     23  O   UNL     1      -0.657  18.020  17.520  0.00  0.00    +0.000 OA
ENDBRANCH  18  21
ENDBRANCH  12  15
ENDBRANCH   3   7
BRANCH   1  25
ATOM     24  C   UNL     1       1.630   3.280  20.449  0.00  0.00    +0.000 C 
ATOM     25  O   UNL     1       2.236   3.680  19.219  0.00  0.00    +0.000 OA
ENDBRANCH   1  25
BRANCH   6  26
ATOM     26  O   UNL     1       3.742   4.675  16.952  0.00  0.00    +0.000 OA
BRANCH  26  27
ATOM     27  C   UNL     1       5.020   4.086  17.180  0.00  0.00    +0.000 C 
BRANCH  27  28
ATOM     28  C   UNL     1       6.052   4.800  16.372  0.00  0.00    +0.000 A 
ATOM     29  C   UNL     1       6.340   4.706  14.982  0.00  0.00    +0.000 A 
ATOM     30  C   UNL     1       5.671   3.899  13.936  0.00  0.00    +0.000 C 
ATOM     31  N   UNL     1       7.365   5.497  14.639  0.00  0.00    +0.000 NA
ATOM     32  O   UNL     1       7.732   6.161  15.792  0.00  0.00    +0.000 OA
ATOM     33  C   UNL     1       6.937   5.762  16.816  0.00  0.00    +0.000 A 
ATOM     34  C   UNL     1       7.152   6.420  18.116  0.00  0.00    +0.000 C 
ENDBRANCH  27  28
ENDBRANCH  26  27
ENDBRANCH   6  26
TORSDOF 7
ENDMDL
MODEL 2
REMARK VINA RESULT:      -8.5      0.578      1.515
REMARK  Name = 
REMARK  10 active torsions:
REMARK  status: ('A' for Active; 'I' for Inactive)
REMARK    1  A    between atoms: C_1  and  O_2
REMARK    2  A    between atoms: O_2  and  C_3
REMARK    3  A    between atoms: C_5  and  C_6
REMARK    4  A    between atoms: N_11  and  C_12
REMARK    5  A    between atoms: C_15  and  N_16
REMARK    6  A    between atoms: C_25  and  O_26
REMARK    7  A    between atoms: O_26  and  C_27
REMARK    8  A    between atoms: C_27  and  C_28
REMARK    9  A    between atoms: C_29  and  C_30
REMARK   10  A    between atoms: C_33  and  C_34
REMARK                            x       y       z     vdW  Elec       q    Type
REMARK                         _______ _______ _______ _____ _____    ______ ____
ROOT
ATOM      1  C   UNL     1       2.471   5.238  19.422  0.00  0.00    +0.000 A 
ATOM      2  C   UNL     1       1.932   6.256  20.224  0.00  0.00    +0.000 A 
ATOM      3  C   UNL     1       1.915   7.583  19.774  0.00  0.00    +0.000 A 
ATOM      4  C   UNL     1       2.599   7.918  18.608  0.00  0.00    +0.000 A 
ATOM      5  C   UNL     1       3.142   6.918  17.809  0.00  0.00    +0.000 A 
ATOM      6  C   UNL     1       3.084   5.578  18.204  0.00  0.00    +0.000 A 
ENDROOT
BRANCH   3   7
ATOM      7  C   UNL     1       1.166   8.599  20.560  0.00  0.00    +0.000 C 
ATOM      8  O   UNL     1       0.719   8.258  21.654  0.00  0.00    +0.000 OA
ATOM      9  N   UNL     1       0.995   9.882  20.048  0.00  0.00    +0.000 N 
ATOM     10  C   UNL     1       0.460  10.931  20.921  0.00  0.00    +0.000 C 
ATOM     11  C   UNL     1       1.357  12.183  20.863  0.00  0.00    +0.000 C 
ATOM     12  N   UNL     1       1.548  12.615  19.460  0.00  0.00    +0.000 N 
ATOM     13  C   UNL     1       2.048  11.573  18.548  0.00  0.00    +0.000 C 
ATOM     14  C   UNL     1       1.145  10.322  18.648  0.00  0.00    +0.000 C 
BRANCH  12  15
ATOM     15  C   UNL     1       1.346  13.916  19.054  0.00  0.00    +0.000 A 
ATOM     16  C   UNL     1       0.071  14.507  19.058  0.00  0.00    +0.000 A 
ATOM     17  C   UNL     1      -0.129  15.838  18.658  0.00  0.00    +0.000 A 
ATOM     18  C   UNL     1       0.959  16.601  18.247  0.00  0.00    +0.000 A 
ATOM     19  C   UNL     1       2.241  16.049  18.236  0.00  0.00    +0.000 A 
ATOM     20  C   UNL     1       2.419  14.723  18.640  0.00  0.00    +0.000 A 
BRANCH  18  21
ATOM     21  N   UNL     1       0.766  17.992  17.822  0.00  0.00    +0.000 N 
ATOM     22  O   UNL     1      -0.170  18.626  18.332  0.00  0.00    +0.000 OA
ATOM     23  O   UNL     1       1.547  18.452  16.976  0.00  0.00    +0.000 OA
ENDBRANCH  18  21
ENDBRANCH  12  15
ENDBRANCH   3   7
BRANCH   1  25
ATOM     24  C   UNL     1       1.159   3.459  20.301  0.00  0.00    +0.000 C 
ATOM     25  O   UNL     1       2.405   3.916  19.772  0.00  0.00    +0.000 OA
ENDBRANCH   1  25
BRANCH   6  26
ATOM     26  O   UNL     1       3.592   4.730  17.257  0.00  0.00    +0.000 OA
BRANCH  26  27
ATOM     27  C   UNL     1       4.866   4.144  17.515  0.00  0.00    +0.000 C 
BRANCH  27  28
ATOM     28  C   UNL     1       5.924   4.904  16.789  0.00  0.00    +0.000 A 
ATOM     29  C   UNL     1       6.944   5.753  17.303  0.00  0.00    +0.000 A 
ATOM     30  C   UNL     1       7.266   6.092  18.708  0.00  0.00    +0.000 C 
ATOM     31  N   UNL     1       7.689   6.274  16.319  0.00  0.00    +0.000 NA
ATOM     32  O   UNL     1       7.200   5.734  15.147  0.00  0.00    +0.000 OA
ATOM     33  C   UNL     1       6.165   4.903  15.430  0.00  0.00    +0.000 A 
ATOM     34  C   UNL     1       5.560   4.189  14.292  0.00  0.00    +0.000 C 
ENDBRANCH  27  28
ENDBRANCH  26  27
ENDBRANCH   6  26
TORSDOF 7
ENDMDL
MODEL 3
REMARK VINA RESULT:      -7.9      1.028      1.913
REMARK  Name = 
REMARK  10 active torsions:
REMARK  status: ('A' for Active; 'I' for Inactive)
REMARK    1  A    between atoms: C_1  and  O_2
REMARK    2  A    between atoms: O_2  and  C_3
REMARK    3  A    between atoms: C_5  and  C_6
REMARK    4  A    between atoms: N_11  and  C_12
REMARK    5  A    between atoms: C_15  and  N_16
REMARK    6  A    between atoms: C_25  and  O_26
REMARK    7  A    between atoms: O_26  and  C_27
REMARK    8  A    between atoms: C_27  and  C_28
REMARK    9  A    between atoms: C_29  and  C_30
REMARK   10  A    between atoms: C_33  and  C_34
REMARK                            x       y       z     vdW  Elec       q    Type
REMARK                         _______ _______ _______ _____ _____    ______ ____
ROOT
ATOM      1  C   UNL     1       2.164   5.335  19.614  0.00  0.00    +0.000 A 
ATOM      2  C   UNL     1       1.522   6.341  20.354  0.00  0.00    +0.000 A 
ATOM      3  C   UNL     1       1.616   7.683  19.963  0.00  0.00    +0.000 A 
ATOM      4  C   UNL     1       2.500   8.038  18.947  0.00  0.00    +0.000 A 
ATOM      5  C   UNL     1       3.147   7.050  18.211  0.00  0.00    +0.000 A 
ATOM      6  C   UNL     1       2.987   5.700  18.534  0.00  0.00    +0.000 A 
ENDROOT
BRANCH   3   7
ATOM      7  C   UNL     1       0.770   8.693  20.651  0.00  0.00    +0.000 C 
ATOM      8  O   UNL     1       0.194   8.349  21.680  0.00  0.00    +0.000 OA
ATOM      9  N   UNL     1       0.655   9.976  20.121  0.00  0.00    +0.000 N 
ATOM     10  C   UNL     1       0.010  11.021  20.922  0.00  0.00    +0.000 C 
ATOM     11  C   UNL     1       0.899  12.279  20.975  0.00  0.00    +0.000 C 
ATOM     12  N   UNL     1       1.260  12.713  19.608  0.00  0.00    +0.000 N 
ATOM     13  C   UNL     1       1.874  11.675  18.763  0.00  0.00    +0.000 C 
ATOM     14  C   UNL     1       0.974  10.418  18.751  0.00  0.00    +0.000 C 
BRANCH  12  15
ATOM     15  C   UNL     1       1.101  14.014  19.179  0.00  0.00    +0.000 A 
ATOM     16  C   UNL     1       2.191  14.800  18.767  0.00  0.00    +0.000 A 
ATOM     17  C   UNL     1       2.022  16.119  18.318  0.00  0.00    +0.000 A 
ATOM     18  C   UNL     1       0.746  16.670  18.271  0.00  0.00    +0.000 A 
ATOM     19  C   UNL     1      -0.361  15.917  18.667  0.00  0.00    +0.000 A 
ATOM     20  C   UNL     1      -0.171  14.604  19.110  0.00  0.00    +0.000 A 
BRANCH  18  21
ATOM     21  N   UNL     1       0.555  18.049  17.807  0.00  0.00    +0.000 N 
ATOM     22  O   UNL     1      -0.569  18.554  17.947  0.00  0.00    +0.000 OA
ATOM     23  O   UNL     1       1.527  18.628  17.301  0.00  0.00    +0.000 OA
ENDBRANCH  18  21
ENDBRANCH  12  15
ENDBRANCH   3   7
BRANCH   1  25
ATOM     24  C   UNL     1       1.323   3.226  18.908  0.00  0.00    +0.000 C 
ATOM     25  O   UNL     1       2.004   4.005  19.892  0.00  0.00    +0.000 OA
ENDBRANCH   1  25
BRANCH   6  26
ATOM     26  O   UNL     1       3.628   4.871  17.654  0.00  0.00    +0.000 OA
BRANCH  26  27
ATOM     27  C   UNL     1       4.460   5.476  16.666  0.00  0.00    +0.000 C 
BRANCH  27  28
ATOM     28  C   UNL     1       5.861   4.988  16.824  0.00  0.00    +0.000 A 
ATOM     29  C   UNL     1       6.693   4.978  17.978  0.00  0.00    +0.000 A 
ATOM     30  C   UNL     1       6.390   5.415  19.359  0.00  0.00    +0.000 C 
ATOM     31  N   UNL     1       7.904   4.475  17.704  0.00  0.00    +0.000 NA
ATOM     32  O   UNL     1       7.868   4.101  16.376  0.00  0.00    +0.000 OA
ATOM     33  C   UNL     1       6.645   4.386  15.860  0.00  0.00    +0.000 A 
ATOM     34  C   UNL     1       6.410   3.993  14.460  0.00  0.00    +0.000 C 
ENDBRANCH  27  28
ENDBRANCH  26  27
ENDBRANCH   6  26
TORSDOF 7
ENDMDL
MODEL 4
REMARK VINA RESULT:      -7.5      1.003      1.363
REMARK  Name = 
REMARK  10 active torsions:
REMARK  status: ('A' for Active; 'I' for Inactive)
REMARK    1  A    between atoms: C_1  and  O_2
REMARK    2  A    between atoms: O_2  and  C_3
REMARK    3  A    between atoms: C_5  and  C_6
REMARK    4  A    between atoms: N_11  and  C_12
REMARK    5  A    between atoms: C_15  and  N_16
REMARK    6  A    between atoms: C_25  and  O_26
REMARK    7  A    between atoms: O_26  and  C_27
REMARK    8  A    between atoms: C_27  and  C_28
REMARK    9  A    between atoms: C_29  and  C_30
REMARK   10  A    between atoms: C_33  and  C_34
REMARK                            x       y       z     vdW  Elec       q    Type
REMARK                         _______ _______ _______ _____ _____    ______ ____
ROOT
ATOM      1  C   UNL     1       2.463   5.111  20.347  0.00  0.00    +0.000 A 
ATOM      2  C   UNL     1       1.719   6.155  20.918  0.00  0.00    +0.000 A 
ATOM      3  C   UNL     1       1.552   7.367  20.235  0.00  0.00    +0.000 A 
ATOM      4  C   UNL     1       2.279   7.600  19.070  0.00  0.00    +0.000 A 
ATOM      5  C   UNL     1       3.025   6.575  18.498  0.00  0.00    +0.000 A 
ATOM      6  C   UNL     1       3.123   5.330  19.125  0.00  0.00    +0.000 A 
ENDROOT
BRANCH   3   7
ATOM      7  C   UNL     1       0.602   8.373  20.779  0.00  0.00    +0.000 C 
ATOM      8  O   UNL     1      -0.137   8.023  21.697  0.00  0.00    +0.000 OA
ATOM      9  N   UNL     1       0.575   9.659  20.244  0.00  0.00    +0.000 N 
ATOM     10  C   UNL     1      -0.195  10.699  20.933  0.00  0.00    +0.000 C 
ATOM     11  C   UNL     1       0.672  11.957  21.140  0.00  0.00    +0.000 C 
ATOM     12  N   UNL     1       1.254  12.399  19.853  0.00  0.00    +0.000 N 
ATOM     13  C   UNL     1       2.001  11.365  19.116  0.00  0.00    +0.000 C 
ATOM     14  C   UNL     1       1.116  10.109  18.948  0.00  0.00    +0.000 C 
BRANCH  12  15
ATOM     15  C   UNL     1       1.166  13.702  19.411  0.00  0.00    +0.000 A 
ATOM     16  C   UNL     1       2.099  14.246  18.512  0.00  0.00    +0.000 A 
ATOM     17  C   UNL     1       1.998  15.569  18.053  0.00  0.00    +0.000 A 
ATOM     18  C   UNL     1       0.948  16.369  18.491  0.00  0.00    +0.000 A 
ATOM     19  C   UNL     1      -0.001  15.859  19.379  0.00  0.00    +0.000 A 
ATOM     20  C   UNL     1       0.117  14.539  19.823  0.00  0.00    +0.000 A 
BRANCH  18  21
ATOM     21  N   UNL     1       0.831  17.754  18.024  0.00  0.00    +0.000 N 
ATOM     22  O   UNL     1       0.129  17.968  17.025  0.00  0.00    +0.000 OA
ATOM     23  O   UNL     1       1.443  18.630  18.652  0.00  0.00    +0.000 OA
ENDBRANCH  18  21
ENDBRANCH  12  15
ENDBRANCH   3   7
BRANCH   1  25
ATOM     24  C   UNL     1       1.344   3.122  21.016  0.00  0.00    +0.000 C 
ATOM     25  O   UNL     1       2.555   3.874  20.925  0.00  0.00    +0.000 OA
ENDBRANCH   1  25
BRANCH   6  26
ATOM     26  O   UNL     1       3.826   4.422  18.380  0.00  0.00    +0.000 OA
BRANCH  26  27
ATOM     27  C   UNL     1       4.229   4.817  17.070  0.00  0.00    +0.000 C 
BRANCH  27  28
ATOM     28  C   UNL     1       5.711   4.695  16.943  0.00  0.00    +0.000 A 
ATOM     29  C   UNL     1       6.498   4.362  15.806  0.00  0.00    +0.000 A 
ATOM     30  C   UNL     1       6.072   4.076  14.417  0.00  0.00    +0.000 C 
ATOM     31  N   UNL     1       7.803   4.333  16.106  0.00  0.00    +0.000 NA
ATOM     32  O   UNL     1       7.895   4.698  17.434  0.00  0.00    +0.000 OA
ATOM     33  C   UNL     1       6.652   4.934  17.924  0.00  0.00    +0.000 A 
ATOM     34  C   UNL     1       6.568   5.397  19.320  0.00  0.00    +0.000 C 
ENDBRANCH  27  28
ENDBRANCH  26  27
ENDBRANCH   6  26
TORSDOF 7
ENDMDL
MODEL 5
REMARK VINA RESULT:      -7.5      3.769      5.318
REMARK  Name = 
REMARK  10 active torsions:
REMARK  status: ('A' for Active; 'I' for Inactive)
REMARK    1  A    between atoms: C_1  and  O_2
REMARK    2  A    between atoms: O_2  and  C_3
REMARK    3  A    between atoms: C_5  and  C_6
REMARK    4  A    between atoms: N_11  and  C_12
REMARK    5  A    between atoms: C_15  and  N_16
REMARK    6  A    between atoms: C_25  and  O_26
REMARK    7  A    between atoms: O_26  and  C_27
REMARK    8  A    between atoms: C_27  and  C_28
REMARK    9  A    between atoms: C_29  and  C_30
REMARK   10  A    between atoms: C_33  and  C_34
REMARK                            x       y       z     vdW  Elec       q    Type
REMARK                         _______ _______ _______ _____ _____    ______ ____
ROOT
ATOM      1  C   UNL     1       3.840   6.381  18.280  0.00  0.00    +0.000 A 
ATOM      2  C   UNL     1       3.099   7.506  17.885  0.00  0.00    +0.000 A 
ATOM      3  C   UNL     1       2.170   8.089  18.756  0.00  0.00    +0.000 A 
ATOM      4  C   UNL     1       1.849   7.441  19.946  0.00  0.00    +0.000 A 
ATOM      5  C   UNL     1       2.573   6.321  20.346  0.00  0.00    +0.000 A 
ATOM      6  C   UNL     1       3.567   5.785  19.524  0.00  0.00    +0.000 A 
ENDROOT
BRANCH   3   7
ATOM      7  C   UNL     1       1.548   9.386  18.381  0.00  0.00    +0.000 C 
ATOM      8  O   UNL     1       1.505   9.674  17.186  0.00  0.00    +0.000 OA
ATOM      9  N   UNL     1       1.040  10.223  19.372  0.00  0.00    +0.000 N 
ATOM     10  C   UNL     1       0.231  11.381  18.979  0.00  0.00    +0.000 C 
ATOM     11  C   UNL     1      -1.086  11.408  19.778  0.00  0.00    +0.000 C 
ATOM     12  N   UNL     1      -0.809  11.339  21.230  0.00  0.00    +0.000 N 
ATOM     13  C   UNL     1       0.034  10.208  21.653  0.00  0.00    +0.000 C 
ATOM     14  C   UNL     1       1.334  10.192  20.816  0.00  0.00    +0.000 C 
BRANCH  12  15
ATOM     15  C   UNL     1      -1.361  12.224  22.131  0.00  0.00    +0.000 A 
ATOM     16  C   UNL     1      -2.662  12.057  22.636  0.00  0.00    +0.000 A 
ATOM     17  C   UNL     1      -3.215  12.953  23.565  0.00  0.00    +0.000 A 
ATOM     18  C   UNL     1      -2.461  14.036  24.006  0.00  0.00    +0.000 A 
ATOM     19  C   UNL     1      -1.163  14.230  23.530  0.00  0.00    +0.000 A 
ATOM     20  C   UNL     1      -0.631  13.325  22.607  0.00  0.00    +0.000 A 
BRANCH  18  21
ATOM     21  N   UNL     1      -3.027  14.983  24.973  0.00  0.00    +0.000 N 
ATOM     22  O   UNL     1      -4.144  15.461  24.726  0.00  0.00    +0.000 OA
ATOM     23  O   UNL     1      -2.356  15.251  25.980  0.00  0.00    +0.000 OA
ENDBRANCH  18  21
ENDBRANCH  12  15
ENDBRANCH   3   7
BRANCH   1  25
ATOM     24  C   UNL     1       6.129   6.444  17.640  0.00  0.00    +0.000 C 
ATOM     25  O   UNL     1       4.837   5.851  17.507  0.00  0.00    +0.000 OA
ENDBRANCH   1  25
BRANCH   6  26
ATOM     26  O   UNL     1       4.228   4.742  20.114  0.00  0.00    +0.000 OA
BRANCH  26  27
ATOM     27  C   UNL     1       4.147   3.468  19.478  0.00  0.00    +0.000 C 
BRANCH  27  28
ATOM     28  C   UNL     1       2.716   3.113  19.246  0.00  0.00    +0.000 A 
ATOM     29  C   UNL     1       1.701   2.782  20.185  0.00  0.00    +0.000 A 
ATOM     30  C   UNL     1       1.767   2.731  21.663  0.00  0.00    +0.000 C 
ATOM     31  N   UNL     1       0.542   2.500  19.575  0.00  0.00    +0.000 NA
ATOM     32  O   UNL     1       0.768   2.692  18.227  0.00  0.00    +0.000 OA
ATOM     33  C   UNL     1       2.054   3.078  18.035  0.00  0.00    +0.000 A 
ATOM     34  C   UNL     1       2.453   3.388  16.651  0.00  0.00    +0.000 C 
ENDBRANCH  27  28
ENDBRANCH  26  27
ENDBRANCH   6  26
TORSDOF 7
ENDMDL
MODEL 6
REMARK VINA RESULT:      -7.5      3.736      5.206
REMARK  Name = 
REMARK  10 active torsions:
REMARK  status: ('A' for Active; 'I' for Inactive)
REMARK    1  A    between atoms: C_1  and  O_2
REMARK    2  A    between atoms: O_2  and  C_3
REMARK    3  A    between atoms: C_5  and  C_6
REMARK    4  A    between atoms: N_11  and  C_12
REMARK    5  A    between atoms: C_15  and  N_16
REMARK    6  A    between atoms: C_25  and  O_26
REMARK    7  A    between atoms: O_26  and  C_27
REMARK    8  A    between atoms: C_27  and  C_28
REMARK    9  A    between atoms: C_29  and  C_30
REMARK   10  A    between atoms: C_33  and  C_34
REMARK                            x       y       z     vdW  Elec       q    Type
REMARK                         _______ _______ _______ _____ _____    ______ ____
ROOT
ATOM      1  C   UNL     1       3.905   6.176  18.425  0.00  0.00    +0.000 A 
ATOM      2  C   UNL     1       3.222   7.312  17.963  0.00  0.00    +0.000 A 
ATOM      3  C   UNL     1       2.287   7.961  18.778  0.00  0.00    +0.000 A 
ATOM      4  C   UNL     1       1.900   7.370  19.979  0.00  0.00    +0.000 A 
ATOM      5  C   UNL     1       2.566   6.241  20.444  0.00  0.00    +0.000 A 
ATOM      6  C   UNL     1       3.567   5.638  19.679  0.00  0.00    +0.000 A 
ENDROOT
BRANCH   3   7
ATOM      7  C   UNL     1       1.728   9.266  18.334  0.00  0.00    +0.000 C 
ATOM      8  O   UNL     1       1.869   9.574  17.153  0.00  0.00    +0.000 OA
ATOM      9  N   UNL     1       1.075  10.087  19.250  0.00  0.00    +0.000 N 
ATOM     10  C   UNL     1       0.335  11.253  18.758  0.00  0.00    +0.000 C 
ATOM     11  C   UNL     1      -1.089  11.270  19.347  0.00  0.00    +0.000 C 
ATOM     12  N   UNL     1      -1.037  11.176  20.823  0.00  0.00    +0.000 N 
ATOM     13  C   UNL     1      -0.267  10.036  21.351  0.00  0.00    +0.000 C 
ATOM     14  C   UNL     1       1.145  10.031  20.722  0.00  0.00    +0.000 C 
BRANCH  12  15
ATOM     15  C   UNL     1      -1.721  12.047  21.644  0.00  0.00    +0.000 A 
ATOM     16  C   UNL     1      -1.200  12.469  22.879  0.00  0.00    +0.000 A 
ATOM     17  C   UNL     1      -1.893  13.369  23.705  0.00  0.00    +0.000 A 
ATOM     18  C   UNL     1      -3.127  13.864  23.296  0.00  0.00    +0.000 A 
ATOM     19  C   UNL     1      -3.672  13.471  22.072  0.00  0.00    +0.000 A 
ATOM     20  C   UNL     1      -2.965  12.576  21.264  0.00  0.00    +0.000 A 
BRANCH  18  21
ATOM     21  N   UNL     1      -3.864  14.801  24.150  0.00  0.00    +0.000 N 
ATOM     22  O   UNL     1      -3.258  15.313  25.103  0.00  0.00    +0.000 OA
ATOM     23  O   UNL     1      -5.051  15.026  23.871  0.00  0.00    +0.000 OA
ENDBRANCH  18  21
ENDBRANCH  12  15
ENDBRANCH   3   7
BRANCH   1  25
ATOM     24  C   UNL     1       6.195   6.195  17.782  0.00  0.00    +0.000 C 
ATOM     25  O   UNL     1       4.908   5.581  17.708  0.00  0.00    +0.000 OA
ENDBRANCH   1  25
BRANCH   6  26
ATOM     26  O   UNL     1       4.166   4.593  20.329  0.00  0.00    +0.000 OA
BRANCH  26  27
ATOM     27  C   UNL     1       4.072   3.303  19.729  0.00  0.00    +0.000 C 
BRANCH  27  28
ATOM     28  C   UNL     1       2.648   3.004  19.401  0.00  0.00    +0.000 A 
ATOM     29  C   UNL     1       2.013   2.900  18.132  0.00  0.00    +0.000 A 
ATOM     30  C   UNL     1       2.594   3.023  16.776  0.00  0.00    +0.000 C 
ATOM     31  N   UNL     1       0.705   2.640  18.259  0.00  0.00    +0.000 NA
ATOM     32  O   UNL     1       0.473   2.518  19.614  0.00  0.00    +0.000 OA
ATOM     33  C   UNL     1       1.633   2.713  20.290  0.00  0.00    +0.000 A 
ATOM     34  C   UNL     1       1.580   2.558  21.754  0.00  0.00    +0.000 C 
ENDBRANCH  27  28
ENDBRANCH  26  27
ENDBRANCH   6  26
TORSDOF 7
ENDMDL
MODEL 7
REMARK VINA RESULT:      -7.5      4.075     10.761
REMARK  Name = 
REMARK  10 active torsions:
REMARK  status: ('A' for Active; 'I' for Inactive)
REMARK    1  A    between atoms: C_1  and  O_2
REMARK    2  A    between atoms: O_2  and  C_3
REMARK    3  A    between atoms: C_5  and  C_6
REMARK    4  A    between atoms: N_11  and  C_12
REMARK    5  A    between atoms: C_15  and  N_16
REMARK    6  A    between atoms: C_25  and  O_26
REMARK    7  A    between atoms: O_26  and  C_27
REMARK    8  A    between atoms: C_27  and  C_28
REMARK    9  A    between atoms: C_29  and  C_30
REMARK   10  A    between atoms: C_33  and  C_34
REMARK                            x       y       z     vdW  Elec       q    Type
REMARK                         _______ _______ _______ _____ _____    ______ ____
ROOT
ATOM      1  C   UNL     1      -1.833  11.382  19.257  0.00  0.00    +0.000 A 
ATOM      2  C   UNL     1      -0.874  10.451  19.687  0.00  0.00    +0.000 A 
ATOM      3  C   UNL     1      -0.557  10.332  21.046  0.00  0.00    +0.000 A 
ATOM      4  C   UNL     1      -1.058  11.266  21.949  0.00  0.00    +0.000 A 
ATOM      5  C   UNL     1      -2.004  12.198  21.534  0.00  0.00    +0.000 A 
ATOM      6  C   UNL     1      -2.398  12.265  20.194  0.00  0.00    +0.000 A 
ENDROOT
BRANCH   3   7
ATOM      7  C   UNL     1       0.313   9.210  21.486  0.00  0.00    +0.000 C 
ATOM      8  O   UNL     1       0.142   8.764  22.619  0.00  0.00    +0.000 OA
ATOM      9  N   UNL     1       1.280   8.703  20.620  0.00  0.00    +0.000 N 
ATOM     10  C   UNL     1       1.970   7.459  20.974  0.00  0.00    +0.000 C 
ATOM     11  C   UNL     1       1.929   6.471  19.793  0.00  0.00    +0.000 C 
ATOM     12  N   UNL     1       2.449   7.113  18.566  0.00  0.00    +0.000 N 
ATOM     13  C   UNL     1       1.803   8.385  18.203  0.00  0.00    +0.000 C 
ATOM     14  C   UNL     1       1.837   9.345  19.415  0.00  0.00    +0.000 C 
BRANCH  12  15
ATOM     15  C   UNL     1       3.416   6.526  17.777  0.00  0.00    +0.000 A 
ATOM     16  C   UNL     1       4.373   7.286  17.083  0.00  0.00    +0.000 A 
ATOM     17  C   UNL     1       5.365   6.684  16.294  0.00  0.00    +0.000 A 
ATOM     18  C   UNL     1       5.413   5.297  16.193  0.00  0.00    +0.000 A 
ATOM     19  C   UNL     1       4.483   4.510  16.874  0.00  0.00    +0.000 A 
ATOM     20  C   UNL     1       3.504   5.129  17.656  0.00  0.00    +0.000 A 
BRANCH  18  21
ATOM     21  N   UNL     1       6.442   4.654  15.369  0.00  0.00    +0.000 N 
ATOM     22  O   UNL     1       6.199   3.522  14.924  0.00  0.00    +0.000 OA
ATOM     23  O   UNL     1       7.494   5.277  15.165  0.00  0.00    +0.000 OA
ENDBRANCH  18  21
ENDBRANCH  12  15
ENDBRANCH   3   7
BRANCH   1  25
ATOM     24  C   UNL     1      -2.718  10.234  17.372  0.00  0.00    +0.000 C 
ATOM     25  O   UNL     1      -2.255  11.452  17.957  0.00  0.00    +0.000 OA
ENDBRANCH   1  25
BRANCH   6  26
ATOM     26  O   UNL     1      -3.393  13.181  19.986  0.00  0.00    +0.000 OA
BRANCH  26  27
ATOM     27  C   UNL     1      -4.574  12.730  19.325  0.00  0.00    +0.000 C 
BRANCH  27  28
ATOM     28  C   UNL     1      -5.553  12.229  20.333  0.00  0.00    +0.000 A 
ATOM     29  C   UNL     1      -5.821  12.701  21.649  0.00  0.00    +0.000 A 
ATOM     30  C   UNL     1      -5.228  13.846  22.376  0.00  0.00    +0.000 C 
ATOM     31  N   UNL     1      -6.763  11.964  22.251  0.00  0.00    +0.000 NA
ATOM     32  O   UNL     1      -7.165  11.028  21.319  0.00  0.00    +0.000 OA
ATOM     33  C   UNL     1      -6.461  11.201  20.172  0.00  0.00    +0.000 A 
ATOM     34  C   UNL     1      -6.807  10.321  19.043  0.00  0.00    +0.000 C 
ENDBRANCH  27  28
ENDBRANCH  26  27
ENDBRANCH   6  26
TORSDOF 7
ENDMDL
MODEL 8
REMARK VINA RESULT:      -7.4      4.065     10.864
REMARK  Name = 
REMARK  10 active torsions:
REMARK  status: ('A' for Active; 'I' for Inactive)
REMARK    1  A    between atoms: C_1  and  O_2
REMARK    2  A    between atoms: O_2  and  C_3
REMARK    3  A    between atoms: C_5  and  C_6
REMARK    4  A    between atoms: N_11  and  C_12
REMARK    5  A    between atoms: C_15  and  N_16
REMARK    6  A    between atoms: C_25  and  O_26
REMARK    7  A    between atoms: O_26  and  C_27
REMARK    8  A    between atoms: C_27  and  C_28
REMARK    9  A    between atoms: C_29  and  C_30
REMARK   10  A    between atoms: C_33  and  C_34
REMARK                            x       y       z     vdW  Elec       q    Type
REMARK                         _______ _______ _______ _____ _____    ______ ____
ROOT
ATOM      1  C   UNL     1      -2.359  12.297  20.064  0.00  0.00    +0.000 A 
ATOM      2  C   UNL     1      -1.413  11.343  20.471  0.00  0.00    +0.000 A 
ATOM      3  C   UNL     1      -0.725  11.493  21.682  0.00  0.00    +0.000 A 
ATOM      4  C   UNL     1      -0.846  12.685  22.393  0.00  0.00    +0.000 A 
ATOM      5  C   UNL     1      -1.775  13.641  21.996  0.00  0.00    +0.000 A 
ATOM      6  C   UNL     1      -2.535  13.458  20.838  0.00  0.00    +0.000 A 
ENDROOT
BRANCH   3   7
ATOM      7  C   UNL     1       0.121  10.373  22.172  0.00  0.00    +0.000 C 
ATOM      8  O   UNL     1       0.023  10.060  23.356  0.00  0.00    +0.000 OA
ATOM      9  N   UNL     1       0.984   9.722  21.294  0.00  0.00    +0.000 N 
ATOM     10  C   UNL     1       1.637   8.483  21.726  0.00  0.00    +0.000 C 
ATOM     11  C   UNL     1       1.446   7.380  20.667  0.00  0.00    +0.000 C 
ATOM     12  N   UNL     1       1.893   7.858  19.340  0.00  0.00    +0.000 N 
ATOM     13  C   UNL     1       1.284   9.122  18.892  0.00  0.00    +0.000 C 
ATOM     14  C   UNL     1       1.468  10.199  19.985  0.00  0.00    +0.000 C 
BRANCH  12  15
ATOM     15  C   UNL     1       2.758   7.134  18.547  0.00  0.00    +0.000 A 
ATOM     16  C   UNL     1       2.783   5.729  18.563  0.00  0.00    +0.000 A 
ATOM     17  C   UNL     1       3.656   4.996  17.743  0.00  0.00    +0.000 A 
ATOM     18  C   UNL     1       4.520   5.670  16.886  0.00  0.00    +0.000 A 
ATOM     19  C   UNL     1       4.518   7.065  16.839  0.00  0.00    +0.000 A 
ATOM     20  C   UNL     1       3.640   7.776  17.663  0.00  0.00    +0.000 A 
BRANCH  18  21
ATOM     21  N   UNL     1       5.440   4.918  16.026  0.00  0.00    +0.000 N 
ATOM     22  O   UNL     1       6.159   5.563  15.248  0.00  0.00    +0.000 OA
ATOM     23  O   UNL     1       5.445   3.683  16.126  0.00  0.00    +0.000 OA
ENDBRANCH  18  21
ENDBRANCH  12  15
ENDBRANCH   3   7
BRANCH   1  25
ATOM     24  C   UNL     1      -2.718  11.124  18.028  0.00  0.00    +0.000 C 
ATOM     25  O   UNL     1      -3.135  12.132  18.949  0.00  0.00    +0.000 OA
ENDBRANCH   1  25
BRANCH   6  26
ATOM     26  O   UNL     1      -3.453  14.456  20.650  0.00  0.00    +0.000 OA
BRANCH  26  27
ATOM     27  C   UNL     1      -4.324  14.762  21.738  0.00  0.00    +0.000 C 
BRANCH  27  28
ATOM     28  C   UNL     1      -5.288  13.642  21.940  0.00  0.00    +0.000 A 
ATOM     29  C   UNL     1      -6.260  13.111  21.047  0.00  0.00    +0.000 A 
ATOM     30  C   UNL     1      -6.564  13.496  19.650  0.00  0.00    +0.000 C 
ATOM     31  N   UNL     1      -6.953  12.114  21.613  0.00  0.00    +0.000 NA
ATOM     32  O   UNL     1      -6.410  11.943  22.871  0.00  0.00    +0.000 OA
ATOM     33  C   UNL     1      -5.406  12.837  23.055  0.00  0.00    +0.000 A 
ATOM     34  C   UNL     1      -4.671  12.754  24.328  0.00  0.00    +0.000 C 
ENDBRANCH  27  28
ENDBRANCH  26  27
ENDBRANCH   6  26
TORSDOF 7
ENDMDL
MODEL 9
REMARK VINA RESULT:      -7.4      3.642      4.311
REMARK  Name = 
REMARK  10 active torsions:
REMARK  status: ('A' for Active; 'I' for Inactive)
REMARK    1  A    between atoms: C_1  and  O_2
REMARK    2  A    between atoms: O_2  and  C_3
REMARK    3  A    between atoms: C_5  and  C_6
REMARK    4  A    between atoms: N_11  and  C_12
REMARK    5  A    between atoms: C_15  and  N_16
REMARK    6  A    between atoms: C_25  and  O_26
REMARK    7  A    between atoms: O_26  and  C_27
REMARK    8  A    between atoms: C_27  and  C_28
REMARK    9  A    between atoms: C_29  and  C_30
REMARK   10  A    between atoms: C_33  and  C_34
REMARK                            x       y       z     vdW  Elec       q    Type
REMARK                         _______ _______ _______ _____ _____    ______ ____
ROOT
ATOM      1  C   UNL     1       2.070   7.179  19.811  0.00  0.00    +0.000 A 
ATOM      2  C   UNL     1       1.153   8.238  19.723  0.00  0.00    +0.000 A 
ATOM      3  C   UNL     1       1.147   9.084  18.606  0.00  0.00    +0.000 A 
ATOM      4  C   UNL     1       2.173   8.987  17.670  0.00  0.00    +0.000 A 
ATOM      5  C   UNL     1       3.092   7.945  17.750  0.00  0.00    +0.000 A 
ATOM      6  C   UNL     1       3.050   7.038  18.812  0.00  0.00    +0.000 A 
ENDROOT
BRANCH   3   7
ATOM      7  C   UNL     1       0.043  10.069  18.456  0.00  0.00    +0.000 C 
ATOM      8  O   UNL     1      -0.694   9.955  17.479  0.00  0.00    +0.000 OA
ATOM      9  N   UNL     1      -0.123  11.072  19.407  0.00  0.00    +0.000 N 
ATOM     10  C   UNL     1      -1.340  11.889  19.374  0.00  0.00    +0.000 C 
ATOM     11  C   UNL     1      -1.991  11.936  20.770  0.00  0.00    +0.000 C 
ATOM     12  N   UNL     1      -1.005  12.376  21.783  0.00  0.00    +0.000 N 
ATOM     13  C   UNL     1       0.246  11.600  21.816  0.00  0.00    +0.000 C 
ATOM     14  C   UNL     1       0.860  11.548  20.398  0.00  0.00    +0.000 C 
BRANCH  12  15
ATOM     15  C   UNL     1      -1.269  13.389  22.680  0.00  0.00    +0.000 A 
ATOM     16  C   UNL     1      -0.442  14.520  22.789  0.00  0.00    +0.000 A 
ATOM     17  C   UNL     1      -0.723  15.556  23.693  0.00  0.00    +0.000 A 
ATOM     18  C   UNL     1      -1.850  15.473  24.504  0.00  0.00    +0.000 A 
ATOM     19  C   UNL     1      -2.698  14.367  24.418  0.00  0.00    +0.000 A 
ATOM     20  C   UNL     1      -2.401  13.346  23.510  0.00  0.00    +0.000 A 
BRANCH  18  21
ATOM     21  N   UNL     1      -2.154  16.546  25.456  0.00  0.00    +0.000 N 
ATOM     22  O   UNL     1      -1.263  16.883  26.250  0.00  0.00    +0.000 OA
ATOM     23  O   UNL     1      -3.284  17.053  25.414  0.00  0.00    +0.000 OA
ENDBRANCH  18  21
ENDBRANCH  12  15
ENDBRANCH   3   7
BRANCH   1  25
ATOM     24  C   UNL     1       1.439   5.000  20.523  0.00  0.00    +0.000 C 
ATOM     25  O   UNL     1       2.036   6.261  20.825  0.00  0.00    +0.000 OA
ENDBRANCH   1  25
BRANCH   6  26
ATOM     26  O   UNL     1       3.973   6.036  18.682  0.00  0.00    +0.000 OA
BRANCH  26  27
ATOM     27  C   UNL     1       4.079   5.400  17.410  0.00  0.00    +0.000 C 
BRANCH  27  28
ATOM     28  C   UNL     1       5.514   5.136  17.099  0.00  0.00    +0.000 A 
ATOM     29  C   UNL     1       6.646   5.151  17.961  0.00  0.00    +0.000 A 
ATOM     30  C   UNL     1       6.714   5.397  19.419  0.00  0.00    +0.000 C 
ATOM     31  N   UNL     1       7.775   4.884  17.292  0.00  0.00    +0.000 NA
ATOM     32  O   UNL     1       7.393   4.638  15.988  0.00  0.00    +0.000 OA
ATOM     33  C   UNL     1       6.047   4.767  15.880  0.00  0.00    +0.000 A 
ATOM     34  C   UNL     1       5.458   4.478  14.561  0.00  0.00    +0.000 C 
ENDBRANCH  27  28
ENDBRANCH  26  27
ENDBRANCH   6  26
TORSDOF 7
ENDMDL
