MODEL 1
REMARK VINA RESULT:      -7.0      0.000      0.000
REMARK  Name = 
REMARK  11 active torsions:
REMARK  status: ('A' for Active; 'I' for Inactive)
REMARK    1  A    between atoms: NE_4  and  CD_5
REMARK    2  A    between atoms: CD_5  and  CG_6
REMARK    3  A    between atoms: CG_6  and  CB_7
REMARK    4  A    between atoms: CB_7  and  CA_8
REMARK    5  A    between atoms: CA_8  and  N_9
REMARK    6  A    between atoms: CA_8  and  C_21
REMARK    7  A    between atoms: C_10  and  C_12
REMARK    8  A    between atoms: C_12  and  S_13
REMARK    9  A    between atoms: C_12  and  C_14
REMARK   10  A    between atoms: C_14  and  C_15
REMARK   11  A    between atoms: C_21  and  OXT_23
REMARK                            x       y       z     vdW  Elec       q    Type
REMARK                         _______ _______ _______ _____ _____    ______ ____
ROOT
ATOM      1  CA  ARG A   1       2.576   5.679  18.137  0.00  0.00    +0.000 C 
ENDROOT
BRANCH   1   2
ATOM      2  N   ARG A   1       3.850   5.215  17.560  0.00  0.00    +0.000 N 
ATOM      3  C   UNK A   0       4.825   6.126  17.178  0.00  0.00    +0.000 C 
ATOM      4  O   UNK A   0       4.635   7.339  17.183  0.00  0.00    +0.000 OA
ATOM      5  H   ARG A   1       4.165   4.277  17.792  0.00  0.00    +0.000 HD
BRANCH   3   6
ATOM      6  C   UNK A   0       6.117   5.483  16.655  0.00  0.00    +0.000 C 
BRANCH   6   7
ATOM      7  S   UNK A   0       7.196   5.169  18.106  0.00  0.00    +0.000 S 
ATOM      8  H   UNK A   0       7.879   4.153  17.552  0.00  0.00    +0.000 HD
ENDBRANCH   6   7
BRANCH   6   9
ATOM      9  C   UNK A   0       5.854   4.171  15.906  0.00  0.00    +0.000 C 
BRANCH   9  10
ATOM     10  C   UNK A   0       6.279   4.255  14.456  0.00  0.00    +0.000 A 
ATOM     11  C   UNK A   0       5.657   3.467  13.477  0.00  0.00    +0.000 A 
ATOM     12  C   UNK A   0       6.126   3.475  12.163  0.00  0.00    +0.000 A 
ATOM     13  C   UNK A   0       7.201   4.287  11.811  0.00  0.00    +0.000 A 
ATOM     14  C   UNK A   0       7.798   5.106  12.767  0.00  0.00    +0.000 A 
ATOM     15  C   UNK A   0       7.339   5.092  14.084  0.00  0.00    +0.000 A 
ENDBRANCH   9  10
ENDBRANCH   6   9
ENDBRANCH   3   6
ENDBRANCH   1   2
BRANCH   1  16
ATOM     16  C   ARG A   1       2.775   5.862  19.647  0.00  0.00    +0.000 C 
ATOM     17  O   ARG A   1       3.160   4.986  20.401  0.00  0.00    +0.000 OA
BRANCH  16  18
ATOM     18  OXT ARG A   1       2.480   7.114  20.082  0.00  0.00    +0.000 OA
ATOM     19  HXT ARG A   1       2.534   7.790  19.378  0.00  0.00    +0.000 HD
ENDBRANCH  16  18
ENDBRANCH   1  16
BRANCH   1  20
ATOM     20  CB  ARG A   1       1.466   4.662  17.826  0.00  0.00    +0.000 C 
BRANCH  20  21
ATOM     21  CG  ARG A   1       1.969   3.283  17.393  0.00  0.00    +0.000 C 
BRANCH  21  22
ATOM     22  CD  ARG A   1       1.805   2.287  18.547  0.00  0.00    +0.000 C 
BRANCH  22  26
ATOM     23  NH1 ARG A   1       4.202   0.714  18.305  0.00  0.00    +0.000 NA
ATOM     24  CZ  ARG A   1       4.052   1.575  19.241  0.00  0.00    +0.000 C 
ATOM     25  NH2 ARG A   1       4.992   1.831  20.172  0.00  0.00    +0.000 N 
ATOM     26  NE  ARG A   1       2.940   2.316  19.447  0.00  0.00    +0.000 N 
ATOM     27  HH1 ARG A   1       5.134   0.306  18.362  0.00  0.00    +0.000 HD
ATOM     28 HH21 ARG A   1       5.725   1.135  20.234  0.00  0.00    +0.000 HD
ATOM     29 HH22 ARG A   1       4.599   2.019  21.086  0.00  0.00    +0.000 HD
ATOM     30  HE  ARG A   1       3.113   3.220  19.869  0.00  0.00    +0.000 HD
ENDBRANCH  22  26
ENDBRANCH  21  22
ENDBRANCH  20  21
ENDBRANCH   1  20
TORSDOF 11
ENDMDL
MODEL 2
REMARK VINA RESULT:      -6.9      2.990      6.488
REMARK  Name = 
REMARK  11 active torsions:
REMARK  status: ('A' for Active; 'I' for Inactive)
REMARK    1  A    between atoms: NE_4  and  CD_5
REMARK    2  A    between atoms: CD_5  and  CG_6
REMARK    3  A    between atoms: CG_6  and  CB_7
REMARK    4  A    between atoms: CB_7  and  CA_8
REMARK    5  A    between atoms: CA_8  and  N_9
REMARK    6  A    between atoms: CA_8  and  C_21
REMARK    7  A    between atoms: C_10  and  C_12
REMARK    8  A    between atoms: C_12  and  S_13
REMARK    9  A    between atoms: C_12  and  C_14
REMARK   10  A    between atoms: C_14  and  C_15
REMARK   11  A    between atoms: C_21  and  OXT_23
REMARK                            x       y       z     vdW  Elec       q    Type
REMARK                         _______ _______ _______ _____ _____    ______ ____
ROOT
ATOM      1  CA  ARG A   1       6.624   5.502  17.491  0.00  0.00    +0.000 C 
ENDROOT
BRANCH   1   2
ATOM      2  N   ARG A   1       5.224   5.959  17.524  0.00  0.00    +0.000 N 
ATOM      3  C   UNK A   0       4.499   5.929  18.707  0.00  0.00    +0.000 C 
ATOM      4  O   UNK A   0       4.933   5.415  19.735  0.00  0.00    +0.000 OA
ATOM      5  H   ARG A   1       4.924   6.629  16.820  0.00  0.00    +0.000 HD
BRANCH   3   6
ATOM      6  C   UNK A   0       3.078   6.497  18.591  0.00  0.00    +0.000 C 
BRANCH   6   7
ATOM      7  S   UNK A   0       3.185   8.033  17.592  0.00  0.00    +0.000 S 
ATOM      8  H   UNK A   0       2.110   7.774  16.827  0.00  0.00    +0.000 HD
ENDBRANCH   6   7
BRANCH   6   9
ATOM      9  C   UNK A   0       2.107   5.510  17.930  0.00  0.00    +0.000 C 
BRANCH   9  10
ATOM     10  C   UNK A   0       1.806   4.330  18.828  0.00  0.00    +0.000 A 
ATOM     11  C   UNK A   0       1.435   4.520  20.166  0.00  0.00    +0.000 A 
ATOM     12  C   UNK A   0       1.261   3.425  21.013  0.00  0.00    +0.000 A 
ATOM     13  C   UNK A   0       1.432   2.132  20.525  0.00  0.00    +0.000 A 
ATOM     14  C   UNK A   0       1.759   1.931  19.186  0.00  0.00    +0.000 A 
ATOM     15  C   UNK A   0       1.944   3.024  18.340  0.00  0.00    +0.000 A 
ENDBRANCH   9  10
ENDBRANCH   6   9
ENDBRANCH   3   6
ENDBRANCH   1   2
BRANCH   1  16
ATOM     16  C   ARG A   1       7.526   6.701  17.810  0.00  0.00    +0.000 C 
ATOM     17  O   ARG A   1       8.204   6.804  18.817  0.00  0.00    +0.000 OA
BRANCH  16  18
ATOM     18  OXT ARG A   1       7.505   7.661  16.850  0.00  0.00    +0.000 OA
ATOM     19  HXT ARG A   1       6.634   8.093  16.754  0.00  0.00    +0.000 HD
ENDBRANCH  16  18
ENDBRANCH   1  16
BRANCH   1  20
ATOM     20  CB  ARG A   1       6.939   4.902  16.111  0.00  0.00    +0.000 C 
BRANCH  20  21
ATOM     21  CG  ARG A   1       5.825   4.032  15.524  0.00  0.00    +0.000 C 
BRANCH  21  22
ATOM     22  CD  ARG A   1       5.694   4.305  14.022  0.00  0.00    +0.000 C 
BRANCH  22  26
ATOM     23  NH1 ARG A   1       4.531   3.274  11.599  0.00  0.00    +0.000 NA
ATOM     24  CZ  ARG A   1       5.625   2.806  12.075  0.00  0.00    +0.000 C 
ATOM     25  NH2 ARG A   1       6.327   1.818  11.487  0.00  0.00    +0.000 N 
ATOM     26  NE  ARG A   1       6.206   3.205  13.229  0.00  0.00    +0.000 N 
ATOM     27  HH1 ARG A   1       4.319   2.815  10.715  0.00  0.00    +0.000 HD
ATOM     28 HH21 ARG A   1       5.819   1.302  10.779  0.00  0.00    +0.000 HD
ATOM     29 HH22 ARG A   1       6.750   1.186  12.155  0.00  0.00    +0.000 HD
ATOM     30  HE  ARG A   1       7.215   3.121  13.239  0.00  0.00    +0.000 HD
ENDBRANCH  22  26
ENDBRANCH  21  22
ENDBRANCH  20  21
ENDBRANCH   1  20
TORSDOF 11
ENDMDL
MODEL 3
REMARK VINA RESULT:      -6.8      4.338      7.792
REMARK  Name = 
REMARK  11 active torsions:
REMARK  status: ('A' for Active; 'I' for Inactive)
REMARK    1  A    between atoms: NE_4  and  CD_5
REMARK    2  A    between atoms: CD_5  and  CG_6
REMARK    3  A    between atoms: CG_6  and  CB_7
REMARK    4  A    between atoms: CB_7  and  CA_8
REMARK    5  A    between atoms: CA_8  and  N_9
REMARK    6  A    between atoms: CA_8  and  C_21
REMARK    7  A    between atoms: C_10  and  C_12
REMARK    8  A    between atoms: C_12  and  S_13
REMARK    9  A    between atoms: C_12  and  C_14
REMARK   10  A    between atoms: C_14  and  C_15
REMARK   11  A    between atoms: C_21  and  OXT_23
REMARK                            x       y       z     vdW  Elec       q    Type
REMARK                         _______ _______ _______ _____ _____    ______ ____
ROOT
ATOM      1  CA  ARG A   1       6.831   6.049  17.392  0.00  0.00    +0.000 C 
ENDROOT
BRANCH   1   2
ATOM      2  N   ARG A   1       5.523   6.133  18.065  0.00  0.00    +0.000 N 
ATOM      3  C   UNK A   0       4.411   6.617  17.390  0.00  0.00    +0.000 C 
ATOM      4  O   UNK A   0       4.482   7.105  16.265  0.00  0.00    +0.000 OA
ATOM      5  H   ARG A   1       5.348   5.507  18.847  0.00  0.00    +0.000 HD
BRANCH   3   6
ATOM      6  C   UNK A   0       3.113   6.582  18.207  0.00  0.00    +0.000 C 
BRANCH   6   7
ATOM      7  S   UNK A   0       2.213   8.145  17.869  0.00  0.00    +0.000 S 
ATOM      8  H   UNK A   0       1.973   8.447  19.157  0.00  0.00    +0.000 HD
ENDBRANCH   6   7
BRANCH   6   9
ATOM      9  C   UNK A   0       2.229   5.381  17.846  0.00  0.00    +0.000 C 
BRANCH   9  10
ATOM     10  C   UNK A   0       1.994   4.476  19.036  0.00  0.00    +0.000 A 
ATOM     11  C   UNK A   0       1.211   3.319  18.917  0.00  0.00    +0.000 A 
ATOM     12  C   UNK A   0       0.915   2.549  20.042  0.00  0.00    +0.000 A 
ATOM     13  C   UNK A   0       1.419   2.913  21.289  0.00  0.00    +0.000 A 
ATOM     14  C   UNK A   0       2.233   4.037  21.410  0.00  0.00    +0.000 A 
ATOM     15  C   UNK A   0       2.522   4.815  20.289  0.00  0.00    +0.000 A 
ENDBRANCH   9  10
ENDBRANCH   6   9
ENDBRANCH   3   6
ENDBRANCH   1   2
BRANCH   1  16
ATOM     16  C   ARG A   1       7.272   4.579  17.388  0.00  0.00    +0.000 C 
ATOM     17  O   ARG A   1       8.392   4.196  17.675  0.00  0.00    +0.000 OA
BRANCH  16  18
ATOM     18  OXT ARG A   1       6.282   3.721  17.032  0.00  0.00    +0.000 OA
ATOM     19  HXT ARG A   1       6.026   3.108  17.749  0.00  0.00    +0.000 HD
ENDBRANCH  16  18
ENDBRANCH   1  16
BRANCH   1  20
ATOM     20  CB  ARG A   1       7.845   6.947  18.117  0.00  0.00    +0.000 C 
BRANCH  20  21
ATOM     21  CG  ARG A   1       7.923   8.381  17.585  0.00  0.00    +0.000 C 
BRANCH  21  22
ATOM     22  CD  ARG A   1       8.716   9.253  18.565  0.00  0.00    +0.000 C 
BRANCH  22  26
ATOM     23  NH1 ARG A   1      10.811  11.145  19.121  0.00  0.00    +0.000 NA
ATOM     24  CZ  ARG A   1       9.792  11.457  18.411  0.00  0.00    +0.000 C 
ATOM     25  NH2 ARG A   1       9.618  12.672  17.855  0.00  0.00    +0.000 N 
ATOM     26  NE  ARG A   1       8.747  10.640  18.146  0.00  0.00    +0.000 N 
ATOM     27  HH1 ARG A   1      11.458  11.931  19.154  0.00  0.00    +0.000 HD
ATOM     28 HH21 ARG A   1      10.218  13.397  18.229  0.00  0.00    +0.000 HD
ATOM     29 HH22 ARG A   1       8.651  12.971  17.859  0.00  0.00    +0.000 HD
ATOM     30  HE  ARG A   1       8.294  10.816  17.258  0.00  0.00    +0.000 HD
ENDBRANCH  22  26
ENDBRANCH  21  22
ENDBRANCH  20  21
ENDBRANCH   1  20
TORSDOF 11
ENDMDL
MODEL 4
REMARK VINA RESULT:      -6.8      4.520      7.994
REMARK  Name = 
REMARK  11 active torsions:
REMARK  status: ('A' for Active; 'I' for Inactive)
REMARK    1  A    between atoms: NE_4  and  CD_5
REMARK    2  A    between atoms: CD_5  and  CG_6
REMARK    3  A    between atoms: CG_6  and  CB_7
REMARK    4  A    between atoms: CB_7  and  CA_8
REMARK    5  A    between atoms: CA_8  and  N_9
REMARK    6  A    between atoms: CA_8  and  C_21
REMARK    7  A    between atoms: C_10  and  C_12
REMARK    8  A    between atoms: C_12  and  S_13
REMARK    9  A    between atoms: C_12  and  C_14
REMARK   10  A    between atoms: C_14  and  C_15
REMARK   11  A    between atoms: C_21  and  OXT_23
REMARK                            x       y       z     vdW  Elec       q    Type
REMARK                         _______ _______ _______ _____ _____    ______ ____
ROOT
ATOM      1  CA  ARG A   1       6.968   6.465  17.497  0.00  0.00    +0.000 C 
ENDROOT
BRANCH   1   2
ATOM      2  N   ARG A   1       5.657   6.533  18.166  0.00  0.00    +0.000 N 
ATOM      3  C   UNK A   0       4.496   6.711  17.427  0.00  0.00    +0.000 C 
ATOM      4  O   UNK A   0       4.509   6.942  16.221  0.00  0.00    +0.000 OA
ATOM      5  H   ARG A   1       5.559   6.080  19.071  0.00  0.00    +0.000 HD
BRANCH   3   6
ATOM      6  C   UNK A   0       3.209   6.698  18.263  0.00  0.00    +0.000 C 
BRANCH   6   7
ATOM      7  S   UNK A   0       2.387   8.321  18.027  0.00  0.00    +0.000 S 
ATOM      8  H   UNK A   0       2.319   8.247  16.686  0.00  0.00    +0.000 HD
ENDBRANCH   6   7
BRANCH   6   9
ATOM      9  C   UNK A   0       2.259   5.565  17.851  0.00  0.00    +0.000 C 
BRANCH   9  10
ATOM     10  C   UNK A   0       1.949   4.641  19.009  0.00  0.00    +0.000 A 
ATOM     11  C   UNK A   0       2.311   4.983  20.319  0.00  0.00    +0.000 A 
ATOM     12  C   UNK A   0       2.115   4.079  21.364  0.00  0.00    +0.000 A 
ATOM     13  C   UNK A   0       1.533   2.839  21.113  0.00  0.00    +0.000 A 
ATOM     14  C   UNK A   0       1.130   2.507  19.821  0.00  0.00    +0.000 A 
ATOM     15  C   UNK A   0       1.335   3.404  18.773  0.00  0.00    +0.000 A 
ENDBRANCH   9  10
ENDBRANCH   6   9
ENDBRANCH   3   6
ENDBRANCH   1   2
BRANCH   1  16
ATOM     16  C   ARG A   1       7.447   5.008  17.533  0.00  0.00    +0.000 C 
ATOM     17  O   ARG A   1       7.458   4.312  18.533  0.00  0.00    +0.000 OA
BRANCH  16  18
ATOM     18  OXT ARG A   1       7.864   4.548  16.326  0.00  0.00    +0.000 OA
ATOM     19  HXT ARG A   1       8.788   4.229  16.332  0.00  0.00    +0.000 HD
ENDBRANCH  16  18
ENDBRANCH   1  16
BRANCH   1  20
ATOM     20  CB  ARG A   1       7.957   7.408  18.200  0.00  0.00    +0.000 C 
BRANCH  20  21
ATOM     21  CG  ARG A   1       7.877   8.869  17.747  0.00  0.00    +0.000 C 
BRANCH  21  22
ATOM     22  CD  ARG A   1       8.798   9.731  18.618  0.00  0.00    +0.000 C 
BRANCH  22  26
ATOM     23  NH1 ARG A   1      11.096  11.411  19.037  0.00  0.00    +0.000 NA
ATOM     24  CZ  ARG A   1      10.144  11.753  18.250  0.00  0.00    +0.000 C 
ATOM     25  NH2 ARG A   1      10.140  12.902  17.547  0.00  0.00    +0.000 N 
ATOM     26  NE  ARG A   1       9.015  11.041  18.038  0.00  0.00    +0.000 N 
ATOM     27  HH1 ARG A   1      11.834  12.112  19.004  0.00  0.00    +0.000 HD
ATOM     28 HH21 ARG A   1      10.814  13.591  17.858  0.00  0.00    +0.000 HD
ATOM     29 HH22 ARG A   1       9.218  13.313  17.473  0.00  0.00    +0.000 HD
ATOM     30  HE  ARG A   1       8.613  11.159  17.117  0.00  0.00    +0.000 HD
ENDBRANCH  22  26
ENDBRANCH  21  22
ENDBRANCH  20  21
ENDBRANCH   1  20
TORSDOF 11
ENDMDL
MODEL 5
REMARK VINA RESULT:      -6.7      4.227      7.504
REMARK  Name = 
REMARK  11 active torsions:
REMARK  status: ('A' for Active; 'I' for Inactive)
REMARK    1  A    between atoms: NE_4  and  CD_5
REMARK    2  A    between atoms: CD_5  and  CG_6
REMARK    3  A    between atoms: CG_6  and  CB_7
REMARK    4  A    between atoms: CB_7  and  CA_8
REMARK    5  A    between atoms: CA_8  and  N_9
REMARK    6  A    between atoms: CA_8  and  C_21
REMARK    7  A    between atoms: C_10  and  C_12
REMARK    8  A    between atoms: C_12  and  S_13
REMARK    9  A    between atoms: C_12  and  C_14
REMARK   10  A    between atoms: C_14  and  C_15
REMARK   11  A    between atoms: C_21  and  OXT_23
REMARK                            x       y       z     vdW  Elec       q    Type
REMARK                         _______ _______ _______ _____ _____    ______ ____
ROOT
ATOM      1  CA  ARG A   1       6.811   6.093  17.510  0.00  0.00    +0.000 C 
ENDROOT
BRANCH   1   2
ATOM      2  N   ARG A   1       5.508   6.257  18.179  0.00  0.00    +0.000 N 
ATOM      3  C   UNK A   0       4.380   6.604  17.450  0.00  0.00    +0.000 C 
ATOM      4  O   UNK A   0       4.428   6.909  16.261  0.00  0.00    +0.000 OA
ATOM      5  H   ARG A   1       5.355   5.759  19.052  0.00  0.00    +0.000 HD
BRANCH   3   6
ATOM      6  C   UNK A   0       3.090   6.673  18.280  0.00  0.00    +0.000 C 
BRANCH   6   7
ATOM      7  S   UNK A   0       2.401   8.361  18.079  0.00  0.00    +0.000 S 
ATOM      8  H   UNK A   0       2.689   8.777  19.324  0.00  0.00    +0.000 HD
ENDBRANCH   6   7
BRANCH   6   9
ATOM      9  C   UNK A   0       2.056   5.630  17.837  0.00  0.00    +0.000 C 
BRANCH   9  10
ATOM     10  C   UNK A   0       1.929   4.502  18.838  0.00  0.00    +0.000 A 
ATOM     11  C   UNK A   0       1.967   3.164  18.423  0.00  0.00    +0.000 A 
ATOM     12  C   UNK A   0       1.744   2.135  19.338  0.00  0.00    +0.000 A 
ATOM     13  C   UNK A   0       1.508   2.433  20.679  0.00  0.00    +0.000 A 
ATOM     14  C   UNK A   0       1.511   3.757  21.109  0.00  0.00    +0.000 A 
ATOM     15  C   UNK A   0       1.722   4.789  20.194  0.00  0.00    +0.000 A 
ENDBRANCH   9  10
ENDBRANCH   6   9
ENDBRANCH   3   6
ENDBRANCH   1   2
BRANCH   1  16
ATOM     16  C   ARG A   1       7.262   4.638  17.692  0.00  0.00    +0.000 C 
ATOM     17  O   ARG A   1       8.292   4.174  17.236  0.00  0.00    +0.000 OA
BRANCH  16  18
ATOM     18  OXT ARG A   1       6.395   3.893  18.425  0.00  0.00    +0.000 OA
ATOM     19  HXT ARG A   1       6.829   3.385  19.138  0.00  0.00    +0.000 HD
ENDBRANCH  16  18
ENDBRANCH   1  16
BRANCH   1  20
ATOM     20  CB  ARG A   1       7.826   7.083  18.105  0.00  0.00    +0.000 C 
BRANCH  20  21
ATOM     21  CG  ARG A   1       7.590   8.546  17.720  0.00  0.00    +0.000 C 
BRANCH  21  22
ATOM     22  CD  ARG A   1       8.830   9.378  18.068  0.00  0.00    +0.000 C 
BRANCH  22  26
ATOM     23  NH1 ARG A   1      10.637  11.261  19.280  0.00  0.00    +0.000 NA
ATOM     24  CZ  ARG A   1       9.685  10.715  19.943  0.00  0.00    +0.000 C 
ATOM     25  NH2 ARG A   1       9.438  10.981  21.241  0.00  0.00    +0.000 N 
ATOM     26  NE  ARG A   1       8.828   9.790  19.457  0.00  0.00    +0.000 N 
ATOM     27  HH1 ARG A   1      11.123  11.932  19.872  0.00  0.00    +0.000 HD
ATOM     28 HH21 ARG A   1      10.191  11.451  21.727  0.00  0.00    +0.000 HD
ATOM     29 HH22 ARG A   1       9.134  10.165  21.757  0.00  0.00    +0.000 HD
ATOM     30  HE  ARG A   1       7.910   9.806  19.884  0.00  0.00    +0.000 HD
ENDBRANCH  22  26
ENDBRANCH  21  22
ENDBRANCH  20  21
ENDBRANCH   1  20
TORSDOF 11
ENDMDL
MODEL 6
REMARK VINA RESULT:      -6.7      2.846      6.362
REMARK  Name = 
REMARK  11 active torsions:
REMARK  status: ('A' for Active; 'I' for Inactive)
REMARK    1  A    between atoms: NE_4  and  CD_5
REMARK    2  A    between atoms: CD_5  and  CG_6
REMARK    3  A    between atoms: CG_6  and  CB_7
REMARK    4  A    between atoms: CB_7  and  CA_8
REMARK    5  A    between atoms: CA_8  and  N_9
REMARK    6  A    between atoms: CA_8  and  C_21
REMARK    7  A    between atoms: C_10  and  C_12
REMARK    8  A    between atoms: C_12  and  S_13
REMARK    9  A    between atoms: C_12  and  C_14
REMARK   10  A    between atoms: C_14  and  C_15
REMARK   11  A    between atoms: C_21  and  OXT_23
REMARK                            x       y       z     vdW  Elec       q    Type
REMARK                         _______ _______ _______ _____ _____    ______ ____
ROOT
ATOM      1  CA  ARG A   1       6.464   5.477  17.871  0.00  0.00    +0.000 C 
ENDROOT
BRANCH   1   2
ATOM      2  N   ARG A   1       5.093   6.008  17.785  0.00  0.00    +0.000 N 
ATOM      3  C   UNK A   0       4.242   5.947  18.879  0.00  0.00    +0.000 C 
ATOM      4  O   UNK A   0       4.535   5.349  19.911  0.00  0.00    +0.000 OA
ATOM      5  H   ARG A   1       4.905   6.735  17.098  0.00  0.00    +0.000 HD
BRANCH   3   6
ATOM      6  C   UNK A   0       2.871   6.598  18.649  0.00  0.00    +0.000 C 
BRANCH   6   7
ATOM      7  S   UNK A   0       3.160   8.182  17.770  0.00  0.00    +0.000 S 
ATOM      8  H   UNK A   0       4.451   8.303  18.125  0.00  0.00    +0.000 HD
ENDBRANCH   6   7
BRANCH   6   9
ATOM      9  C   UNK A   0       1.933   5.706  17.825  0.00  0.00    +0.000 C 
BRANCH   9  10
ATOM     10  C   UNK A   0       1.810   4.319  18.417  0.00  0.00    +0.000 A 
ATOM     11  C   UNK A   0       1.205   4.121  19.666  0.00  0.00    +0.000 A 
ATOM     12  C   UNK A   0       1.190   2.854  20.250  0.00  0.00    +0.000 A 
ATOM     13  C   UNK A   0       1.755   1.771  19.580  0.00  0.00    +0.000 A 
ATOM     14  C   UNK A   0       2.320   1.950  18.320  0.00  0.00    +0.000 A 
ATOM     15  C   UNK A   0       2.347   3.217  17.739  0.00  0.00    +0.000 A 
ENDBRANCH   9  10
ENDBRANCH   6   9
ENDBRANCH   3   6
ENDBRANCH   1   2
BRANCH   1  16
ATOM     16  C   ARG A   1       7.441   6.646  17.682  0.00  0.00    +0.000 C 
ATOM     17  O   ARG A   1       7.558   7.285  16.652  0.00  0.00    +0.000 OA
BRANCH  16  18
ATOM     18  OXT ARG A   1       8.180   6.915  18.789  0.00  0.00    +0.000 OA
ATOM     19  HXT ARG A   1       8.967   7.465  18.604  0.00  0.00    +0.000 HD
ENDBRANCH  16  18
ENDBRANCH   1  16
BRANCH   1  20
ATOM     20  CB  ARG A   1       6.666   4.388  16.806  0.00  0.00    +0.000 C 
BRANCH  20  21
ATOM     21  CG  ARG A   1       5.465   4.171  15.881  0.00  0.00    +0.000 C 
BRANCH  21  22
ATOM     22  CD  ARG A   1       5.919   4.252  14.419  0.00  0.00    +0.000 C 
BRANCH  22  26
ATOM     23  NH1 ARG A   1       7.442   4.588  12.001  0.00  0.00    +0.000 NA
ATOM     24  CZ  ARG A   1       7.764   5.182  13.090  0.00  0.00    +0.000 C 
ATOM     25  NH2 ARG A   1       8.817   6.016  13.196  0.00  0.00    +0.000 N 
ATOM     26  NE  ARG A   1       7.128   5.038  14.274  0.00  0.00    +0.000 N 
ATOM     27  HH1 ARG A   1       8.070   4.879  11.255  0.00  0.00    +0.000 HD
ATOM     28 HH21 ARG A   1       9.479   5.959  12.433  0.00  0.00    +0.000 HD
ATOM     29 HH22 ARG A   1       9.291   5.938  14.087  0.00  0.00    +0.000 HD
ATOM     30  HE  ARG A   1       7.167   5.854  14.871  0.00  0.00    +0.000 HD
ENDBRANCH  22  26
ENDBRANCH  21  22
ENDBRANCH  20  21
ENDBRANCH   1  20
TORSDOF 11
ENDMDL
MODEL 7
REMARK VINA RESULT:      -6.6      3.378      6.661
REMARK  Name = 
REMARK  11 active torsions:
REMARK  status: ('A' for Active; 'I' for Inactive)
REMARK    1  A    between atoms: NE_4  and  CD_5
REMARK    2  A    between atoms: CD_5  and  CG_6
REMARK    3  A    between atoms: CG_6  and  CB_7
REMARK    4  A    between atoms: CB_7  and  CA_8
REMARK    5  A    between atoms: CA_8  and  N_9
REMARK    6  A    between atoms: CA_8  and  C_21
REMARK    7  A    between atoms: C_10  and  C_12
REMARK    8  A    between atoms: C_12  and  S_13
REMARK    9  A    between atoms: C_12  and  C_14
REMARK   10  A    between atoms: C_14  and  C_15
REMARK   11  A    between atoms: C_21  and  OXT_23
REMARK                            x       y       z     vdW  Elec       q    Type
REMARK                         _______ _______ _______ _____ _____    ______ ____
ROOT
ATOM      1  CA  ARG A   1       6.903   4.663  18.354  0.00  0.00    +0.000 C 
ENDROOT
BRANCH   1   2
ATOM      2  N   ARG A   1       5.454   4.919  18.420  0.00  0.00    +0.000 N 
ATOM      3  C   UNK A   0       4.621   4.084  19.151  0.00  0.00    +0.000 C 
ATOM      4  O   UNK A   0       5.018   3.041  19.666  0.00  0.00    +0.000 OA
ATOM      5  H   ARG A   1       5.131   5.872  18.272  0.00  0.00    +0.000 HD
BRANCH   3   6
ATOM      6  C   UNK A   0       3.150   4.521  19.173  0.00  0.00    +0.000 C 
BRANCH   6   7
ATOM      7  S   UNK A   0       2.139   3.020  19.477  0.00  0.00    +0.000 S 
ATOM      8  H   UNK A   0       2.118   2.607  18.198  0.00  0.00    +0.000 HD
ENDBRANCH   6   7
BRANCH   6   9
ATOM      9  C   UNK A   0       2.870   5.569  20.258  0.00  0.00    +0.000 C 
BRANCH   9  10
ATOM     10  C   UNK A   0       2.326   6.854  19.672  0.00  0.00    +0.000 A 
ATOM     11  C   UNK A   0       2.527   7.171  18.322  0.00  0.00    +0.000 A 
ATOM     12  C   UNK A   0       2.112   8.404  17.817  0.00  0.00    +0.000 A 
ATOM     13  C   UNK A   0       1.472   9.319  18.650  0.00  0.00    +0.000 A 
ATOM     14  C   UNK A   0       1.229   8.996  19.983  0.00  0.00    +0.000 A 
ATOM     15  C   UNK A   0       1.652   7.768  20.493  0.00  0.00    +0.000 A 
ENDBRANCH   9  10
ENDBRANCH   6   9
ENDBRANCH   3   6
ENDBRANCH   1   2
BRANCH   1  16
ATOM     16  C   ARG A   1       7.620   5.769  19.141  0.00  0.00    +0.000 C 
ATOM     17  O   ARG A   1       7.974   6.832  18.664  0.00  0.00    +0.000 OA
BRANCH  16  18
ATOM     18  OXT ARG A   1       7.827   5.454  20.445  0.00  0.00    +0.000 OA
ATOM     19  HXT ARG A   1       8.283   6.160  20.945  0.00  0.00    +0.000 HD
ENDBRANCH  16  18
ENDBRANCH   1  16
BRANCH   1  20
ATOM     20  CB  ARG A   1       7.356   4.622  16.886  0.00  0.00    +0.000 C 
BRANCH  20  21
ATOM     21  CG  ARG A   1       6.328   5.163  15.887  0.00  0.00    +0.000 C 
BRANCH  21  22
ATOM     22  CD  ARG A   1       6.066   4.117  14.798  0.00  0.00    +0.000 C 
BRANCH  22  26
ATOM     23  NH1 ARG A   1       5.964   2.606  12.351  0.00  0.00    +0.000 NA
ATOM     24  CZ  ARG A   1       6.642   3.689  12.448  0.00  0.00    +0.000 C 
ATOM     25  NH2 ARG A   1       7.343   4.219  11.427  0.00  0.00    +0.000 N 
ATOM     26  NE  ARG A   1       6.776   4.427  13.573  0.00  0.00    +0.000 N 
ATOM     27  HH1 ARG A   1       6.013   2.257  11.396  0.00  0.00    +0.000 HD
ATOM     28 HH21 ARG A   1       7.500   3.589  10.650  0.00  0.00    +0.000 HD
ATOM     29 HH22 ARG A   1       8.213   4.642  11.726  0.00  0.00    +0.000 HD
ATOM     30  HE  ARG A   1       6.911   5.417  13.410  0.00  0.00    +0.000 HD
ENDBRANCH  22  26
ENDBRANCH  21  22
ENDBRANCH  20  21
ENDBRANCH   1  20
TORSDOF 11
ENDMDL
MODEL 8
REMARK VINA RESULT:      -6.6      2.008      2.585
REMARK  Name = 
REMARK  11 active torsions:
REMARK  status: ('A' for Active; 'I' for Inactive)
REMARK    1  A    between atoms: NE_4  and  CD_5
REMARK    2  A    between atoms: CD_5  and  CG_6
REMARK    3  A    between atoms: CG_6  and  CB_7
REMARK    4  A    between atoms: CB_7  and  CA_8
REMARK    5  A    between atoms: CA_8  and  N_9
REMARK    6  A    between atoms: CA_8  and  C_21
REMARK    7  A    between atoms: C_10  and  C_12
REMARK    8  A    between atoms: C_12  and  S_13
REMARK    9  A    between atoms: C_12  and  C_14
REMARK   10  A    between atoms: C_14  and  C_15
REMARK   11  A    between atoms: C_21  and  OXT_23
REMARK                            x       y       z     vdW  Elec       q    Type
REMARK                         _______ _______ _______ _____ _____    ______ ____
ROOT
ATOM      1  CA  ARG A   1       3.553   3.734  18.177  0.00  0.00    +0.000 C 
ENDROOT
BRANCH   1   2
ATOM      2  N   ARG A   1       4.542   4.353  17.278  0.00  0.00    +0.000 N 
ATOM      3  C   UNK A   0       5.232   5.493  17.665  0.00  0.00    +0.000 C 
ATOM      4  O   UNK A   0       4.971   6.104  18.698  0.00  0.00    +0.000 OA
ATOM      5  H   ARG A   1       4.988   3.762  16.580  0.00  0.00    +0.000 HD
BRANCH   3   6
ATOM      6  C   UNK A   0       6.271   5.978  16.645  0.00  0.00    +0.000 C 
BRANCH   6   7
ATOM      7  S   UNK A   0       7.315   7.233  17.483  0.00  0.00    +0.000 S 
ATOM      8  H   UNK A   0       8.328   7.181  16.601  0.00  0.00    +0.000 HD
ENDBRANCH   6   7
BRANCH   6   9
ATOM      9  C   UNK A   0       7.149   4.835  16.119  0.00  0.00    +0.000 C 
BRANCH   9  10
ATOM     10  C   UNK A   0       6.992   4.646  14.626  0.00  0.00    +0.000 A 
ATOM     11  C   UNK A   0       6.052   3.743  14.110  0.00  0.00    +0.000 A 
ATOM     12  C   UNK A   0       5.987   3.498  12.738  0.00  0.00    +0.000 A 
ATOM     13  C   UNK A   0       6.842   4.173  11.868  0.00  0.00    +0.000 A 
ATOM     14  C   UNK A   0       7.750   5.104  12.367  0.00  0.00    +0.000 A 
ATOM     15  C   UNK A   0       7.824   5.342  13.739  0.00  0.00    +0.000 A 
ENDBRANCH   9  10
ENDBRANCH   6   9
ENDBRANCH   3   6
ENDBRANCH   1   2
BRANCH   1  16
ATOM     16  C   ARG A   1       4.126   2.399  18.671  0.00  0.00    +0.000 C 
ATOM     17  O   ARG A   1       3.758   1.305  18.280  0.00  0.00    +0.000 OA
BRANCH  16  18
ATOM     18  OXT ARG A   1       5.105   2.544  19.601  0.00  0.00    +0.000 OA
ATOM     19  HXT ARG A   1       5.769   1.827  19.577  0.00  0.00    +0.000 HD
ENDBRANCH  16  18
ENDBRANCH   1  16
BRANCH   1  20
ATOM     20  CB  ARG A   1       2.223   3.542  17.430  0.00  0.00    +0.000 C 
BRANCH  20  21
ATOM     21  CG  ARG A   1       1.001   3.372  18.338  0.00  0.00    +0.000 C 
BRANCH  21  22
ATOM     22  CD  ARG A   1       1.265   4.042  19.691  0.00  0.00    +0.000 C 
BRANCH  22  26
ATOM     23  NH1 ARG A   1       2.800   2.749  21.753  0.00  0.00    +0.000 NA
ATOM     24  CZ  ARG A   1       1.519   2.720  21.747  0.00  0.00    +0.000 C 
ATOM     25  NH2 ARG A   1       0.786   2.107  22.697  0.00  0.00    +0.000 N 
ATOM     26  NE  ARG A   1       0.732   3.262  20.790  0.00  0.00    +0.000 N 
ATOM     27  HH1 ARG A   1       3.147   2.283  22.589  0.00  0.00    +0.000 HD
ATOM     28 HH21 ARG A   1       1.305   1.466  23.284  0.00  0.00    +0.000 HD
ATOM     29 HH22 ARG A   1      -0.043   1.659  22.325  0.00  0.00    +0.000 HD
ATOM     30  HE  ARG A   1      -0.172   3.574  21.120  0.00  0.00    +0.000 HD
ENDBRANCH  22  26
ENDBRANCH  21  22
ENDBRANCH  20  21
ENDBRANCH   1  20
TORSDOF 11
ENDMDL
MODEL 9
REMARK VINA RESULT:      -6.6      3.129      6.588
REMARK  Name = 
REMARK  11 active torsions:
REMARK  status: ('A' for Active; 'I' for Inactive)
REMARK    1  A    between atoms: NE_4  and  CD_5
REMARK    2  A    between atoms: CD_5  and  CG_6
REMARK    3  A    between atoms: CG_6  and  CB_7
REMARK    4  A    between atoms: CB_7  and  CA_8
REMARK    5  A    between atoms: CA_8  and  N_9
REMARK    6  A    between atoms: CA_8  and  C_21
REMARK    7  A    between atoms: C_10  and  C_12
REMARK    8  A    between atoms: C_12  and  S_13
REMARK    9  A    between atoms: C_12  and  C_14
REMARK   10  A    between atoms: C_14  and  C_15
REMARK   11  A    between atoms: C_21  and  OXT_23
REMARK                            x       y       z     vdW  Elec       q    Type
REMARK                         _______ _______ _______ _____ _____    ______ ____
ROOT
ATOM      1  CA  ARG A   1       6.617   5.169  17.326  0.00  0.00    +0.000 C 
ENDROOT
BRANCH   1   2
ATOM      2  N   ARG A   1       5.183   4.981  17.607  0.00  0.00    +0.000 N 
ATOM      3  C   UNK A   0       4.769   4.317  18.753  0.00  0.00    +0.000 C 
ATOM      4  O   UNK A   0       5.554   3.754  19.511  0.00  0.00    +0.000 OA
ATOM      5  H   ARG A   1       4.526   5.641  17.197  0.00  0.00    +0.000 HD
BRANCH   3   6
ATOM      6  C   UNK A   0       3.245   4.260  18.932  0.00  0.00    +0.000 C 
BRANCH   6   7
ATOM      7  S   UNK A   0       2.795   2.505  19.220  0.00  0.00    +0.000 S 
ATOM      8  H   UNK A   0       3.238   2.455  20.488  0.00  0.00    +0.000 HD
ENDBRANCH   6   7
BRANCH   6   9
ATOM      9  C   UNK A   0       2.764   5.123  20.106  0.00  0.00    +0.000 C 
BRANCH   9  10
ATOM     10  C   UNK A   0       2.287   6.484  19.647  0.00  0.00    +0.000 A 
ATOM     11  C   UNK A   0       2.458   6.895  18.318  0.00  0.00    +0.000 A 
ATOM     12  C   UNK A   0       2.111   8.189  17.929  0.00  0.00    +0.000 A 
ATOM     13  C   UNK A   0       1.566   9.073  18.858  0.00  0.00    +0.000 A 
ATOM     14  C   UNK A   0       1.352   8.660  20.171  0.00  0.00    +0.000 A 
ATOM     15  C   UNK A   0       1.709   7.370  20.565  0.00  0.00    +0.000 A 
ENDBRANCH   9  10
ENDBRANCH   6   9
ENDBRANCH   3   6
ENDBRANCH   1   2
BRANCH   1  16
ATOM     16  C   ARG A   1       6.865   6.664  17.086  0.00  0.00    +0.000 C 
ATOM     17  O   ARG A   1       7.934   7.138  16.745  0.00  0.00    +0.000 OA
BRANCH  16  18
ATOM     18  OXT ARG A   1       5.763   7.432  17.288  0.00  0.00    +0.000 OA
ATOM     19  HXT ARG A   1       5.344   7.731  16.457  0.00  0.00    +0.000 HD
ENDBRANCH  16  18
ENDBRANCH   1  16
BRANCH   1  20
ATOM     20  CB  ARG A   1       7.021   4.321  16.109  0.00  0.00    +0.000 C 
BRANCH  20  21
ATOM     21  CG  ARG A   1       5.870   3.981  15.158  0.00  0.00    +0.000 C 
BRANCH  21  22
ATOM     22  CD  ARG A   1       6.301   4.245  13.711  0.00  0.00    +0.000 C 
BRANCH  22  26
ATOM     23  NH1 ARG A   1       4.526   3.324  11.642  0.00  0.00    +0.000 NA
ATOM     24  CZ  ARG A   1       5.580   2.671  11.967  0.00  0.00    +0.000 C 
ATOM     25  NH2 ARG A   1       5.956   1.524  11.370  0.00  0.00    +0.000 N 
ATOM     26  NE  ARG A   1       6.435   3.015  12.957  0.00  0.00    +0.000 N 
ATOM     27  HH1 ARG A   1       4.068   2.863  10.858  0.00  0.00    +0.000 HD
ATOM     28 HH21 ARG A   1       5.234   1.080  10.816  0.00  0.00    +0.000 HD
ATOM     29 HH22 ARG A   1       6.369   0.862  12.015  0.00  0.00    +0.000 HD
ATOM     30  HE  ARG A   1       7.392   2.725  12.802  0.00  0.00    +0.000 HD
ENDBRANCH  22  26
ENDBRANCH  21  22
ENDBRANCH  20  21
ENDBRANCH   1  20
TORSDOF 11
ENDMDL
