MODEL 1
REMARK VINA RESULT:      -7.3      0.000      0.000
REMARK  Name = 
REMARK  3 active torsions:
REMARK  status: ('A' for Active; 'I' for Inactive)
REMARK    1  A    between atoms: C_1  and  C_2
REMARK    2  A    between atoms: C_6  and  C_7
REMARK    3  A    between atoms: C_12  and  C_13
REMARK                            x       y       z     vdW  Elec       q    Type
REMARK                         _______ _______ _______ _____ _____    ______ ____
ROOT
ATOM      1  C   UNL     1       2.750   5.089  18.381  0.00  0.00    +0.000 C 
ATOM      2  O   UNL     1       1.818   5.549  17.722  0.00  0.00    +0.000 OA
ATOM      3  N   UNL     1       4.064   5.493  18.073  0.00  0.00    +0.000 N 
ATOM      4  C   UNL     1       4.274   6.646  17.197  0.00  0.00    +0.000 C 
ATOM      5  C   UNL     1       5.339   6.346  16.144  0.00  0.00    +0.000 C 
ATOM      6  C   UNL     1       6.656   5.848  16.762  0.00  0.00    +0.000 C 
ATOM      7  C   UNL     1       6.363   4.640  17.646  0.00  0.00    +0.000 C 
ATOM      8  C   UNL     1       5.264   4.923  18.653  0.00  0.00    +0.000 C 
ENDROOT
BRANCH   1  14
ATOM      9  C   UNL     1       3.107   1.704  18.586  0.00  0.00    +0.000 C 
ATOM     10  C   UNL     1       2.649   2.726  19.577  0.00  0.00    +0.000 A 
ATOM     11  N   UNL     1       2.333   2.215  20.830  0.00  0.00    +0.000 NA
ATOM     12  C   UNL     1       2.032   3.187  21.650  0.00  0.00    +0.000 A 
ATOM     13  S   UNL     1       2.026   4.754  20.988  0.00  0.00    +0.000 S 
ATOM     14  C   UNL     1       2.516   4.112  19.449  0.00  0.00    +0.000 A 
ENDBRANCH   1  14
BRANCH   6  15
ATOM     15  C   UNL     1       7.406   6.929  17.485  0.00  0.00    +0.000 A 
ATOM     16  N   UNL     1       7.426   8.235  17.064  0.00  0.00    +0.000 NA
ATOM     17  C   UNL     1       8.171   8.806  17.979  0.00  0.00    +0.000 A 
ATOM     18  O   UNL     1       8.612   7.948  18.936  0.00  0.00    +0.000 OA
ATOM     19  N   UNL     1       8.093   6.693  18.608  0.00  0.00    +0.000 NA
ENDBRANCH   6  15
TORSDOF 2
ENDMDL
MODEL 2
REMARK VINA RESULT:      -6.9      2.913      3.723
REMARK  Name = 
REMARK  3 active torsions:
REMARK  status: ('A' for Active; 'I' for Inactive)
REMARK    1  A    between atoms: C_1  and  C_2
REMARK    2  A    between atoms: C_6  and  C_7
REMARK    3  A    between atoms: C_12  and  C_13
REMARK                            x       y       z     vdW  Elec       q    Type
REMARK                         _______ _______ _______ _____ _____    ______ ____
ROOT
ATOM      1  C   UNL     1       4.450   3.503  19.210  0.00  0.00    +0.000 C 
ATOM      2  O   UNL     1       5.217   3.127  20.096  0.00  0.00    +0.000 OA
ATOM      3  N   UNL     1       4.990   4.101  18.054  0.00  0.00    +0.000 N 
ATOM      4  C   UNL     1       6.427   4.003  17.799  0.00  0.00    +0.000 C 
ATOM      5  C   UNL     1       7.002   5.356  17.382  0.00  0.00    +0.000 C 
ATOM      6  C   UNL     1       6.248   5.975  16.193  0.00  0.00    +0.000 C 
ATOM      7  C   UNL     1       4.765   6.061  16.536  0.00  0.00    +0.000 C 
ATOM      8  C   UNL     1       4.210   4.729  17.006  0.00  0.00    +0.000 C 
ENDROOT
BRANCH   1  14
ATOM      9  C   UNL     1       2.027   5.483  20.563  0.00  0.00    +0.000 C 
ATOM     10  C   UNL     1       1.972   4.147  19.895  0.00  0.00    +0.000 A 
ATOM     11  N   UNL     1       0.694   3.614  19.772  0.00  0.00    +0.000 NA
ATOM     12  C   UNL     1       0.737   2.494  19.101  0.00  0.00    +0.000 A 
ATOM     13  S   UNL     1       2.281   1.954  18.634  0.00  0.00    +0.000 S 
ATOM     14  C   UNL     1       2.997   3.365  19.354  0.00  0.00    +0.000 A 
ENDBRANCH   1  14
BRANCH   6  15
ATOM     15  C   UNL     1       6.506   5.255  14.901  0.00  0.00    +0.000 A 
ATOM     16  N   UNL     1       5.640   4.331  14.373  0.00  0.00    +0.000 NA
ATOM     17  C   UNL     1       6.250   3.984  13.267  0.00  0.00    +0.000 A 
ATOM     18  O   UNL     1       7.432   4.627  13.072  0.00  0.00    +0.000 OA
ATOM     19  N   UNL     1       7.599   5.483  14.163  0.00  0.00    +0.000 NA
ENDBRANCH   6  15
TORSDOF 2
ENDMDL
MODEL 3
REMARK VINA RESULT:      -6.7      1.228      1.651
REMARK  Name = 
REMARK  3 active torsions:
REMARK  status: ('A' for Active; 'I' for Inactive)
REMARK    1  A    between atoms: C_1  and  C_2
REMARK    2  A    between atoms: C_6  and  C_7
REMARK    3  A    between atoms: C_12  and  C_13
REMARK                            x       y       z     vdW  Elec       q    Type
REMARK                         _______ _______ _______ _____ _____    ______ ____
ROOT
ATOM      1  C   UNL     1       2.930   4.477  18.102  0.00  0.00    +0.000 C 
ATOM      2  O   UNL     1       2.206   4.472  17.107  0.00  0.00    +0.000 OA
ATOM      3  N   UNL     1       4.252   4.945  17.978  0.00  0.00    +0.000 N 
ATOM      4  C   UNL     1       4.646   5.674  16.772  0.00  0.00    +0.000 C 
ATOM      5  C   UNL     1       5.986   5.168  16.240  0.00  0.00    +0.000 C 
ATOM      6  C   UNL     1       7.091   5.189  17.310  0.00  0.00    +0.000 C 
ATOM      7  C   UNL     1       6.618   4.400  18.526  0.00  0.00    +0.000 C 
ATOM      8  C   UNL     1       5.260   4.867  19.017  0.00  0.00    +0.000 C 
ENDROOT
BRANCH   1  14
ATOM      9  C   UNL     1       1.685   5.999  20.888  0.00  0.00    +0.000 C 
ATOM     10  C   UNL     1       1.931   4.562  20.556  0.00  0.00    +0.000 A 
ATOM     11  N   UNL     1       1.559   3.667  21.552  0.00  0.00    +0.000 NA
ATOM     12  C   UNL     1       1.727   2.439  21.139  0.00  0.00    +0.000 A 
ATOM     13  S   UNL     1       2.398   2.252  19.586  0.00  0.00    +0.000 S 
ATOM     14  C   UNL     1       2.447   3.980  19.395  0.00  0.00    +0.000 A 
ENDBRANCH   1  14
BRANCH   6  15
ATOM     15  C   UNL     1       7.539   6.580  17.655  0.00  0.00    +0.000 A 
ATOM     16  N   UNL     1       7.264   7.672  16.871  0.00  0.00    +0.000 NA
ATOM     17  C   UNL     1       7.821   8.644  17.550  0.00  0.00    +0.000 A 
ATOM     18  O   UNL     1       8.422   8.232  18.698  0.00  0.00    +0.000 OA
ATOM     19  N   UNL     1       8.225   6.851  18.771  0.00  0.00    +0.000 NA
ENDBRANCH   6  15
TORSDOF 2
ENDMDL
MODEL 4
REMARK VINA RESULT:      -6.6      1.620      2.143
REMARK  Name = 
REMARK  3 active torsions:
REMARK  status: ('A' for Active; 'I' for Inactive)
REMARK    1  A    between atoms: C_1  and  C_2
REMARK    2  A    between atoms: C_6  and  C_7
REMARK    3  A    between atoms: C_12  and  C_13
REMARK                            x       y       z     vdW  Elec       q    Type
REMARK                         _______ _______ _______ _____ _____    ______ ____
ROOT
ATOM      1  C   UNL     1       3.593   4.010  17.873  0.00  0.00    +0.000 C 
ATOM      2  O   UNL     1       3.319   3.438  16.818  0.00  0.00    +0.000 OA
ATOM      3  N   UNL     1       4.801   4.728  17.962  0.00  0.00    +0.000 N 
ATOM      4  C   UNL     1       5.552   5.024  16.742  0.00  0.00    +0.000 C 
ATOM      5  C   UNL     1       7.040   4.729  16.930  0.00  0.00    +0.000 C 
ATOM      6  C   UNL     1       7.632   5.444  18.157  0.00  0.00    +0.000 C 
ATOM      7  C   UNL     1       6.811   5.076  19.389  0.00  0.00    +0.000 C 
ATOM      8  C   UNL     1       5.328   5.316  19.178  0.00  0.00    +0.000 C 
ENDROOT
BRANCH   1  14
ATOM      9  C   UNL     1       2.128   6.345  19.878  0.00  0.00    +0.000 C 
ATOM     10  C   UNL     1       2.081   4.851  19.880  0.00  0.00    +0.000 A 
ATOM     11  N   UNL     1       1.267   4.299  20.863  0.00  0.00    +0.000 NA
ATOM     12  C   UNL     1       1.219   3.000  20.730  0.00  0.00    +0.000 A 
ATOM     13  S   UNL     1       2.180   2.334  19.494  0.00  0.00    +0.000 S 
ATOM     14  C   UNL     1       2.703   3.927  19.035  0.00  0.00    +0.000 A 
ENDBRANCH   1  14
BRANCH   6  15
ATOM     15  C   UNL     1       7.758   6.927  17.961  0.00  0.00    +0.000 A 
ATOM     16  N   UNL     1       8.517   7.728  18.778  0.00  0.00    +0.000 NA
ATOM     17  C   UNL     1       8.345   8.910  18.238  0.00  0.00    +0.000 A 
ATOM     18  O   UNL     1       7.535   8.898  17.146  0.00  0.00    +0.000 OA
ATOM     19  N   UNL     1       7.148   7.569  16.958  0.00  0.00    +0.000 NA
ENDBRANCH   6  15
TORSDOF 2
ENDMDL
MODEL 5
REMARK VINA RESULT:      -6.6      2.778      3.467
REMARK  Name = 
REMARK  3 active torsions:
REMARK  status: ('A' for Active; 'I' for Inactive)
REMARK    1  A    between atoms: C_1  and  C_2
REMARK    2  A    between atoms: C_6  and  C_7
REMARK    3  A    between atoms: C_12  and  C_13
REMARK                            x       y       z     vdW  Elec       q    Type
REMARK                         _______ _______ _______ _____ _____    ______ ____
ROOT
ATOM      1  C   UNL     1       4.616   3.870  19.237  0.00  0.00    +0.000 C 
ATOM      2  O   UNL     1       5.406   3.555  20.127  0.00  0.00    +0.000 OA
ATOM      3  N   UNL     1       5.124   4.380  18.027  0.00  0.00    +0.000 N 
ATOM      4  C   UNL     1       6.553   4.255  17.739  0.00  0.00    +0.000 C 
ATOM      5  C   UNL     1       7.122   5.570  17.208  0.00  0.00    +0.000 C 
ATOM      6  C   UNL     1       6.337   6.106  15.999  0.00  0.00    +0.000 C 
ATOM      7  C   UNL     1       4.864   6.225  16.377  0.00  0.00    +0.000 C 
ATOM      8  C   UNL     1       4.318   4.934  16.957  0.00  0.00    +0.000 C 
ENDROOT
BRANCH   1  14
ATOM      9  C   UNL     1       2.221   1.864  17.874  0.00  0.00    +0.000 C 
ATOM     10  C   UNL     1       2.154   2.949  18.900  0.00  0.00    +0.000 A 
ATOM     11  N   UNL     1       0.886   3.172  19.424  0.00  0.00    +0.000 NA
ATOM     12  C   UNL     1       0.942   4.070  20.371  0.00  0.00    +0.000 A 
ATOM     13  S   UNL     1       2.468   4.766  20.659  0.00  0.00    +0.000 S 
ATOM     14  C   UNL     1       3.167   3.752  19.431  0.00  0.00    +0.000 A 
ENDBRANCH   1  14
BRANCH   6  15
ATOM     15  C   UNL     1       6.555   5.292  14.756  0.00  0.00    +0.000 A 
ATOM     16  N   UNL     1       5.677   4.328  14.329  0.00  0.00    +0.000 NA
ATOM     17  C   UNL     1       6.252   3.902  13.231  0.00  0.00    +0.000 A 
ATOM     18  O   UNL     1       7.423   4.533  12.948  0.00  0.00    +0.000 OA
ATOM     19  N   UNL     1       7.620   5.468  13.966  0.00  0.00    +0.000 NA
ENDBRANCH   6  15
TORSDOF 2
ENDMDL
MODEL 6
REMARK VINA RESULT:      -6.6      2.608      6.343
REMARK  Name = 
REMARK  3 active torsions:
REMARK  status: ('A' for Active; 'I' for Inactive)
REMARK    1  A    between atoms: C_1  and  C_2
REMARK    2  A    between atoms: C_6  and  C_7
REMARK    3  A    between atoms: C_12  and  C_13
REMARK                            x       y       z     vdW  Elec       q    Type
REMARK                         _______ _______ _______ _____ _____    ______ ____
ROOT
ATOM      1  C   UNL     1       5.954   4.891  17.434  0.00  0.00    +0.000 C 
ATOM      2  O   UNL     1       6.261   4.109  16.535  0.00  0.00    +0.000 OA
ATOM      3  N   UNL     1       4.746   4.686  18.129  0.00  0.00    +0.000 N 
ATOM      4  C   UNL     1       4.038   3.414  17.979  0.00  0.00    +0.000 C 
ATOM      5  C   UNL     1       2.544   3.643  17.755  0.00  0.00    +0.000 C 
ATOM      6  C   UNL     1       1.913   4.526  18.845  0.00  0.00    +0.000 C 
ATOM      7  C   UNL     1       2.690   5.836  18.933  0.00  0.00    +0.000 C 
ATOM      8  C   UNL     1       4.180   5.605  19.097  0.00  0.00    +0.000 C 
ENDROOT
BRANCH   1  14
ATOM      9  C   UNL     1       8.308   5.453  19.834  0.00  0.00    +0.000 C 
ATOM     10  C   UNL     1       7.777   6.311  18.732  0.00  0.00    +0.000 A 
ATOM     11  N   UNL     1       8.366   7.567  18.641  0.00  0.00    +0.000 NA
ATOM     12  C   UNL     1       7.904   8.206  17.600  0.00  0.00    +0.000 A 
ATOM     13  S   UNL     1       6.697   7.411  16.703  0.00  0.00    +0.000 S 
ATOM     14  C   UNL     1       6.804   6.039  17.766  0.00  0.00    +0.000 A 
ENDBRANCH   1  14
BRANCH   6  15
ATOM     15  C   UNL     1       1.800   3.826  20.168  0.00  0.00    +0.000 A 
ATOM     16  N   UNL     1       1.176   2.613  20.322  0.00  0.00    +0.000 NA
ATOM     17  C   UNL     1       1.327   2.389  21.605  0.00  0.00    +0.000 A 
ATOM     18  O   UNL     1       2.000   3.376  22.255  0.00  0.00    +0.000 OA
ATOM     19  N   UNL     1       2.322   4.333  21.291  0.00  0.00    +0.000 NA
ENDBRANCH   6  15
TORSDOF 2
ENDMDL
MODEL 7
REMARK VINA RESULT:      -6.5      1.110      1.505
REMARK  Name = 
REMARK  3 active torsions:
REMARK  status: ('A' for Active; 'I' for Inactive)
REMARK    1  A    between atoms: C_1  and  C_2
REMARK    2  A    between atoms: C_6  and  C_7
REMARK    3  A    between atoms: C_12  and  C_13
REMARK                            x       y       z     vdW  Elec       q    Type
REMARK                         _______ _______ _______ _____ _____    ______ ____
ROOT
ATOM      1  C   UNL     1       2.582   5.076  18.033  0.00  0.00    +0.000 C 
ATOM      2  O   UNL     1       1.661   5.714  17.522  0.00  0.00    +0.000 OA
ATOM      3  N   UNL     1       3.908   5.462  17.760  0.00  0.00    +0.000 N 
ATOM      4  C   UNL     1       4.164   6.758  17.130  0.00  0.00    +0.000 C 
ATOM      5  C   UNL     1       5.177   6.624  15.994  0.00  0.00    +0.000 C 
ATOM      6  C   UNL     1       6.478   5.936  16.442  0.00  0.00    +0.000 C 
ATOM      7  C   UNL     1       6.135   4.589  17.071  0.00  0.00    +0.000 C 
ATOM      8  C   UNL     1       5.087   4.719  18.160  0.00  0.00    +0.000 C 
ENDROOT
BRANCH   1  14
ATOM      9  C   UNL     1       2.123   4.685  21.388  0.00  0.00    +0.000 C 
ATOM     10  C   UNL     1       2.123   3.709  20.256  0.00  0.00    +0.000 A 
ATOM     11  N   UNL     1       1.859   2.395  20.626  0.00  0.00    +0.000 NA
ATOM     12  C   UNL     1       1.791   1.635  19.565  0.00  0.00    +0.000 A 
ATOM     13  S   UNL     1       2.104   2.392  18.074  0.00  0.00    +0.000 S 
ATOM     14  C   UNL     1       2.318   3.914  18.887  0.00  0.00    +0.000 A 
ENDBRANCH   1  14
BRANCH   6  15
ATOM     15  C   UNL     1       7.315   6.801  17.338  0.00  0.00    +0.000 A 
ATOM     16  N   UNL     1       7.520   8.139  17.109  0.00  0.00    +0.000 NA
ATOM     17  C   UNL     1       8.278   8.477  18.122  0.00  0.00    +0.000 A 
ATOM     18  O   UNL     1       8.557   7.445  18.963  0.00  0.00    +0.000 OA
ATOM     19  N   UNL     1       7.905   6.326  18.441  0.00  0.00    +0.000 NA
ENDBRANCH   6  15
TORSDOF 2
ENDMDL
MODEL 8
REMARK VINA RESULT:      -6.0      2.569      6.408
REMARK  Name = 
REMARK  3 active torsions:
REMARK  status: ('A' for Active; 'I' for Inactive)
REMARK    1  A    between atoms: C_1  and  C_2
REMARK    2  A    between atoms: C_6  and  C_7
REMARK    3  A    between atoms: C_12  and  C_13
REMARK                            x       y       z     vdW  Elec       q    Type
REMARK                         _______ _______ _______ _____ _____    ______ ____
ROOT
ATOM      1  C   UNL     1       5.458   4.237  17.061  0.00  0.00    +0.000 C 
ATOM      2  O   UNL     1       5.790   3.321  16.309  0.00  0.00    +0.000 OA
ATOM      3  N   UNL     1       4.324   4.068  17.880  0.00  0.00    +0.000 N 
ATOM      4  C   UNL     1       3.746   2.733  18.037  0.00  0.00    +0.000 C 
ATOM      5  C   UNL     1       2.225   2.776  17.897  0.00  0.00    +0.000 C 
ATOM      6  C   UNL     1       1.574   3.800  18.842  0.00  0.00    +0.000 C 
ATOM      7  C   UNL     1       2.213   5.165  18.610  0.00  0.00    +0.000 C 
ATOM      8  C   UNL     1       3.727   5.108  18.694  0.00  0.00    +0.000 C 
ENDROOT
BRANCH   1  14
ATOM      9  C   UNL     1       5.085   7.222  15.457  0.00  0.00    +0.000 C 
ATOM     10  C   UNL     1       6.085   6.741  16.459  0.00  0.00    +0.000 A 
ATOM     11  N   UNL     1       7.028   7.690  16.836  0.00  0.00    +0.000 NA
ATOM     12  C   UNL     1       7.799   7.209  17.775  0.00  0.00    +0.000 A 
ATOM     13  S   UNL     1       7.518   5.592  18.225  0.00  0.00    +0.000 S 
ATOM     14  C   UNL     1       6.202   5.501  17.093  0.00  0.00    +0.000 A 
ENDBRANCH   1  14
BRANCH   6  15
ATOM     15  C   UNL     1       1.618   3.373  20.281  0.00  0.00    +0.000 A 
ATOM     16  N   UNL     1       1.118   2.173  20.721  0.00  0.00    +0.000 NA
ATOM     17  C   UNL     1       1.379   2.223  22.004  0.00  0.00    +0.000 A 
ATOM     18  O   UNL     1       2.002   3.367  22.390  0.00  0.00    +0.000 OA
ATOM     19  N   UNL     1       2.169   4.133  21.234  0.00  0.00    +0.000 NA
ENDBRANCH   6  15
TORSDOF 2
ENDMDL
MODEL 9
REMARK VINA RESULT:      -6.0      2.703      3.420
REMARK  Name = 
REMARK  3 active torsions:
REMARK  status: ('A' for Active; 'I' for Inactive)
REMARK    1  A    between atoms: C_1  and  C_2
REMARK    2  A    between atoms: C_6  and  C_7
REMARK    3  A    between atoms: C_12  and  C_13
REMARK                            x       y       z     vdW  Elec       q    Type
REMARK                         _______ _______ _______ _____ _____    ______ ____
ROOT
ATOM      1  C   UNL     1       4.260   3.425  19.509  0.00  0.00    +0.000 C 
ATOM      2  O   UNL     1       4.994   2.885  20.335  0.00  0.00    +0.000 OA
ATOM      3  N   UNL     1       4.840   4.215  18.498  0.00  0.00    +0.000 N 
ATOM      4  C   UNL     1       6.284   4.144  18.271  0.00  0.00    +0.000 C 
ATOM      5  C   UNL     1       6.883   5.542  18.123  0.00  0.00    +0.000 C 
ATOM      6  C   UNL     1       6.173   6.376  17.043  0.00  0.00    +0.000 C 
ATOM      7  C   UNL     1       4.680   6.419  17.353  0.00  0.00    +0.000 C 
ATOM      8  C   UNL     1       4.100   5.032  17.557  0.00  0.00    +0.000 C 
ENDROOT
BRANCH   1  14
ATOM      9  C   UNL     1       1.775   5.371  20.798  0.00  0.00    +0.000 C 
ATOM     10  C   UNL     1       1.752   4.052  20.096  0.00  0.00    +0.000 A 
ATOM     11  N   UNL     1       0.482   3.522  19.900  0.00  0.00    +0.000 NA
ATOM     12  C   UNL     1       0.556   2.419  19.204  0.00  0.00    +0.000 A 
ATOM     13  S   UNL     1       2.121   1.891  18.796  0.00  0.00    +0.000 S 
ATOM     14  C   UNL     1       2.802   3.284  19.582  0.00  0.00    +0.000 A 
ENDBRANCH   1  14
BRANCH   6  15
ATOM     15  C   UNL     1       6.466   5.897  15.651  0.00  0.00    +0.000 A 
ATOM     16  N   UNL     1       7.662   5.328  15.291  0.00  0.00    +0.000 NA
ATOM     17  C   UNL     1       7.467   5.061  14.023  0.00  0.00    +0.000 A 
ATOM     18  O   UNL     1       6.237   5.424  13.573  0.00  0.00    +0.000 OA
ATOM     19  N   UNL     1       5.565   5.977  14.665  0.00  0.00    +0.000 NA
ENDBRANCH   6  15
TORSDOF 2
ENDMDL
