MODEL 1
REMARK VINA RESULT:      -7.2      0.000      0.000
REMARK  Name = 
REMARK  6 active torsions:
REMARK  status: ('A' for Active; 'I' for Inactive)
REMARK    1  A    between atoms: C_1  and  O_2
REMARK    2  A    between atoms: O_2  and  C_3
REMARK    3  A    between atoms: C_6  and  N_7
REMARK    4  A    between atoms: C_16  and  C_17
REMARK    5  A    between atoms: C_21  and  O_22
REMARK    6  A    between atoms: O_22  and  C_23
REMARK                            x       y       z     vdW  Elec       q    Type
REMARK                         _______ _______ _______ _____ _____    ______ ____
ROOT
ATOM      1  N   UNL     1      -0.645  12.751  21.433  0.00  0.00    +0.000 N 
ATOM      2  C   UNL     1      -0.391  11.646  22.212  0.00  0.00    +0.000 C 
ATOM      3  O   UNL     1      -0.742  11.532  23.385  0.00  0.00    +0.000 OA
ATOM      4  N   UNL     1       0.231  10.592  21.566  0.00  0.00    +0.000 N 
ATOM      5  C   UNL     1       0.358   9.346  22.327  0.00  0.00    +0.000 C 
ATOM      6  C   UNL     1       0.139   8.133  21.422  0.00  0.00    +0.000 C 
ATOM      7  N   UNL     1       1.097   8.179  20.317  0.00  0.00    +0.000 N 
ATOM      8  C   UNL     1       1.874   7.121  19.956  0.00  0.00    +0.000 A 
ATOM      9  N   UNL     1       2.753   7.153  18.972  0.00  0.00    +0.000 NA
ATOM     10  C   UNL     1       3.429   5.946  18.863  0.00  0.00    +0.000 A 
ATOM     11  C   UNL     1       3.070   4.994  19.790  0.00  0.00    +0.000 A 
ATOM     12  S   UNL     1       1.827   5.591  20.782  0.00  0.00    +0.000 S 
ATOM     13  C   UNL     1       1.059   9.405  19.505  0.00  0.00    +0.000 C 
ATOM     14  C   UNL     1       1.131  10.669  20.400  0.00  0.00    +0.000 C 
ATOM     15  H   UNL     1      -0.639  12.593  20.439  0.00  0.00    +0.000 HD
ENDROOT
BRANCH   1  19
ATOM     16  C   UNL     1      -2.812  16.120  22.790  0.00  0.00    +0.000 A 
ATOM     17  C   UNL     1      -1.485  15.955  23.174  0.00  0.00    +0.000 A 
ATOM     18  C   UNL     1      -0.742  14.871  22.706  0.00  0.00    +0.000 A 
ATOM     19  C   UNL     1      -1.323  13.913  21.872  0.00  0.00    +0.000 A 
ATOM     20  C   UNL     1      -2.651  14.092  21.470  0.00  0.00    +0.000 A 
ATOM     21  C   UNL     1      -3.395  15.187  21.933  0.00  0.00    +0.000 A 
BRANCH  16  23
ATOM     22  C   UNL     1      -3.194  17.415  24.730  0.00  0.00    +0.000 C 
ATOM     23  O   UNL     1      -3.440  17.196  23.348  0.00  0.00    +0.000 OA
ENDBRANCH  16  23
ENDBRANCH   1  19
BRANCH  10  24
ATOM     24  C   UNL     1       4.468   5.727  17.864  0.00  0.00    +0.000 A 
ATOM     25  C   UNL     1       4.341   4.685  16.940  0.00  0.00    +0.000 A 
ATOM     26  C   UNL     1       5.316   4.493  15.960  0.00  0.00    +0.000 A 
ATOM     27  C   UNL     1       6.427   5.334  15.909  0.00  0.00    +0.000 A 
ATOM     28  C   UNL     1       6.579   6.369  16.834  0.00  0.00    +0.000 A 
ATOM     29  C   UNL     1       5.600   6.559  17.808  0.00  0.00    +0.000 A 
BRANCH  28  30
ATOM     30  O   UNL     1       7.715   7.117  16.686  0.00  0.00    +0.000 OA
ATOM     31  C   UNL     1       7.906   8.186  17.606  0.00  0.00    +0.000 C 
ENDBRANCH  28  30
ENDBRANCH  10  24
TORSDOF 4
ENDMDL
MODEL 2
REMARK VINA RESULT:      -7.1      2.772      3.688
REMARK  Name = 
REMARK  6 active torsions:
REMARK  status: ('A' for Active; 'I' for Inactive)
REMARK    1  A    between atoms: C_1  and  O_2
REMARK    2  A    between atoms: O_2  and  C_3
REMARK    3  A    between atoms: C_6  and  N_7
REMARK    4  A    between atoms: C_16  and  C_17
REMARK    5  A    between atoms: C_21  and  O_22
REMARK    6  A    between atoms: O_22  and  C_23
REMARK                            x       y       z     vdW  Elec       q    Type
REMARK                         _______ _______ _______ _____ _____    ______ ____
ROOT
ATOM      1  N   UNL     1      -1.741  12.999  23.059  0.00  0.00    +0.000 N 
ATOM      2  C   UNL     1      -1.542  12.833  21.707  0.00  0.00    +0.000 C 
ATOM      3  O   UNL     1      -1.909  13.637  20.852  0.00  0.00    +0.000 OA
ATOM      4  N   UNL     1      -0.807  11.718  21.345  0.00  0.00    +0.000 N 
ATOM      5  C   UNL     1      -0.437  11.612  19.931  0.00  0.00    +0.000 C 
ATOM      6  C   UNL     1       0.973  11.043  19.781  0.00  0.00    +0.000 C 
ATOM      7  N   UNL     1       1.039   9.740  20.444  0.00  0.00    +0.000 N 
ATOM      8  C   UNL     1       1.546   8.623  19.852  0.00  0.00    +0.000 A 
ATOM      9  N   UNL     1       1.597   7.440  20.433  0.00  0.00    +0.000 NA
ATOM     10  C   UNL     1       2.122   6.482  19.576  0.00  0.00    +0.000 A 
ATOM     11  C   UNL     1       2.453   6.945  18.322  0.00  0.00    +0.000 A 
ATOM     12  S   UNL     1       2.160   8.615  18.225  0.00  0.00    +0.000 S 
ATOM     13  C   UNL     1       0.666   9.742  21.866  0.00  0.00    +0.000 C 
ATOM     14  C   UNL     1      -0.700  10.446  22.083  0.00  0.00    +0.000 C 
ATOM     15  H   UNL     1      -1.108  12.494  23.656  0.00  0.00    +0.000 HD
ENDROOT
BRANCH   1  19
ATOM     16  C   UNL     1      -3.859  16.166  24.895  0.00  0.00    +0.000 A 
ATOM     17  C   UNL     1      -2.473  16.106  25.012  0.00  0.00    +0.000 A 
ATOM     18  C   UNL     1      -1.753  15.091  24.381  0.00  0.00    +0.000 A 
ATOM     19  C   UNL     1      -2.409  14.097  23.650  0.00  0.00    +0.000 A 
ATOM     20  C   UNL     1      -3.800  14.172  23.517  0.00  0.00    +0.000 A 
ATOM     21  C   UNL     1      -4.523  15.198  24.143  0.00  0.00    +0.000 A 
BRANCH  16  23
ATOM     22  C   UNL     1      -5.093  18.180  24.812  0.00  0.00    +0.000 C 
ATOM     23  O   UNL     1      -4.448  17.182  25.591  0.00  0.00    +0.000 OA
ENDBRANCH  16  23
ENDBRANCH   1  19
BRANCH  10  24
ATOM     24  C   UNL     1       2.268   5.086  19.969  0.00  0.00    +0.000 A 
ATOM     25  C   UNL     1       1.377   4.523  20.889  0.00  0.00    +0.000 A 
ATOM     26  C   UNL     1       1.492   3.178  21.243  0.00  0.00    +0.000 A 
ATOM     27  C   UNL     1       2.504   2.395  20.687  0.00  0.00    +0.000 A 
ATOM     28  C   UNL     1       3.412   2.945  19.781  0.00  0.00    +0.000 A 
ATOM     29  C   UNL     1       3.291   4.289  19.427  0.00  0.00    +0.000 A 
BRANCH  28  30
ATOM     30  O   UNL     1       4.364   2.079  19.315  0.00  0.00    +0.000 OA
ATOM     31  C   UNL     1       3.956   1.149  18.318  0.00  0.00    +0.000 C 
ENDBRANCH  28  30
ENDBRANCH  10  24
TORSDOF 4
ENDMDL
MODEL 3
REMARK VINA RESULT:      -7.0      2.359      3.535
REMARK  Name = 
REMARK  6 active torsions:
REMARK  status: ('A' for Active; 'I' for Inactive)
REMARK    1  A    between atoms: C_1  and  O_2
REMARK    2  A    between atoms: O_2  and  C_3
REMARK    3  A    between atoms: C_6  and  N_7
REMARK    4  A    between atoms: C_16  and  C_17
REMARK    5  A    between atoms: C_21  and  O_22
REMARK    6  A    between atoms: O_22  and  C_23
REMARK                            x       y       z     vdW  Elec       q    Type
REMARK                         _______ _______ _______ _____ _____    ______ ____
ROOT
ATOM      1  N   UNL     1      -2.155  13.701  23.003  0.00  0.00    +0.000 N 
ATOM      2  C   UNL     1      -2.070  13.511  21.643  0.00  0.00    +0.000 C 
ATOM      3  O   UNL     1      -2.612  14.235  20.810  0.00  0.00    +0.000 OA
ATOM      4  N   UNL     1      -1.246  12.476  21.236  0.00  0.00    +0.000 N 
ATOM      5  C   UNL     1      -1.006  12.363  19.795  0.00  0.00    +0.000 C 
ATOM      6  C   UNL     1       0.441  11.957  19.516  0.00  0.00    +0.000 C 
ATOM      7  N   UNL     1       0.725  10.695  20.201  0.00  0.00    +0.000 N 
ATOM      8  C   UNL     1       1.301   9.624  19.587  0.00  0.00    +0.000 A 
ATOM      9  N   UNL     1       1.549   8.477  20.188  0.00  0.00    +0.000 NA
ATOM     10  C   UNL     1       2.098   7.556  19.306  0.00  0.00    +0.000 A 
ATOM     11  C   UNL     1       2.249   8.009  18.014  0.00  0.00    +0.000 A 
ATOM     12  S   UNL     1       1.751   9.629  17.907  0.00  0.00    +0.000 S 
ATOM     13  C   UNL     1       0.495  10.705  21.653  0.00  0.00    +0.000 C 
ATOM     14  C   UNL     1      -0.917  11.252  21.990  0.00  0.00    +0.000 C 
ATOM     15  H   UNL     1      -1.412  13.294  23.546  0.00  0.00    +0.000 HD
ENDROOT
BRANCH   1  19
ATOM     16  C   UNL     1      -4.460  16.665  24.949  0.00  0.00    +0.000 A 
ATOM     17  C   UNL     1      -3.073  16.688  25.061  0.00  0.00    +0.000 A 
ATOM     18  C   UNL     1      -2.293  15.743  24.395  0.00  0.00    +0.000 A 
ATOM     19  C   UNL     1      -2.888  14.735  23.633  0.00  0.00    +0.000 A 
ATOM     20  C   UNL     1      -4.281  14.726  23.505  0.00  0.00    +0.000 A 
ATOM     21  C   UNL     1      -5.065  15.683  24.167  0.00  0.00    +0.000 A 
BRANCH  16  23
ATOM     22  C   UNL     1      -5.773  18.631  24.935  0.00  0.00    +0.000 C 
ATOM     23  O   UNL     1      -5.109  17.619  25.680  0.00  0.00    +0.000 OA
ENDBRANCH  16  23
ENDBRANCH   1  19
BRANCH  10  24
ATOM     24  C   UNL     1       2.447   6.201  19.716  0.00  0.00    +0.000 A 
ATOM     25  C   UNL     1       1.593   5.485  20.561  0.00  0.00    +0.000 A 
ATOM     26  C   UNL     1       1.905   4.176  20.929  0.00  0.00    +0.000 A 
ATOM     27  C   UNL     1       3.079   3.582  20.462  0.00  0.00    +0.000 A 
ATOM     28  C   UNL     1       3.951   4.288  19.632  0.00  0.00    +0.000 A 
ATOM     29  C   UNL     1       3.633   5.595  19.265  0.00  0.00    +0.000 A 
BRANCH  28  30
ATOM     30  O   UNL     1       5.072   3.602  19.252  0.00  0.00    +0.000 OA
ATOM     31  C   UNL     1       6.018   4.306  18.455  0.00  0.00    +0.000 C 
ENDBRANCH  28  30
ENDBRANCH  10  24
TORSDOF 4
ENDMDL
MODEL 4
REMARK VINA RESULT:      -7.0      2.792      3.804
REMARK  Name = 
REMARK  6 active torsions:
REMARK  status: ('A' for Active; 'I' for Inactive)
REMARK    1  A    between atoms: C_1  and  O_2
REMARK    2  A    between atoms: O_2  and  C_3
REMARK    3  A    between atoms: C_6  and  N_7
REMARK    4  A    between atoms: C_16  and  C_17
REMARK    5  A    between atoms: C_21  and  O_22
REMARK    6  A    between atoms: O_22  and  C_23
REMARK                            x       y       z     vdW  Elec       q    Type
REMARK                         _______ _______ _______ _____ _____    ______ ____
ROOT
ATOM      1  N   UNL     1      -2.189  12.151  22.374  0.00  0.00    +0.000 N 
ATOM      2  C   UNL     1      -1.883  12.092  21.033  0.00  0.00    +0.000 C 
ATOM      3  O   UNL     1      -2.314  12.878  20.192  0.00  0.00    +0.000 OA
ATOM      4  N   UNL     1      -0.967  11.120  20.674  0.00  0.00    +0.000 N 
ATOM      5  C   UNL     1      -0.498  11.148  19.285  0.00  0.00    +0.000 C 
ATOM      6  C   UNL     1       0.989  10.804  19.209  0.00  0.00    +0.000 C 
ATOM      7  N   UNL     1       1.210   9.490  19.815  0.00  0.00    +0.000 N 
ATOM      8  C   UNL     1       1.916   8.495  19.209  0.00  0.00    +0.000 A 
ATOM      9  N   UNL     1       2.109   7.302  19.738  0.00  0.00    +0.000 NA
ATOM     10  C   UNL     1       2.825   6.481  18.877  0.00  0.00    +0.000 A 
ATOM     11  C   UNL     1       3.161   7.058  17.672  0.00  0.00    +0.000 A 
ATOM     12  S   UNL     1       2.625   8.668  17.631  0.00  0.00    +0.000 S 
ATOM     13  C   UNL     1       0.752   9.358  21.206  0.00  0.00    +0.000 C 
ATOM     14  C   UNL     1      -0.715   9.838  21.359  0.00  0.00    +0.000 C 
ATOM     15  H   UNL     1      -1.526  11.712  22.991  0.00  0.00    +0.000 HD
ENDROOT
BRANCH   1  19
ATOM     16  C   UNL     1      -4.660  15.128  24.082  0.00  0.00    +0.000 A 
ATOM     17  C   UNL     1      -5.235  14.088  23.360  0.00  0.00    +0.000 A 
ATOM     18  C   UNL     1      -4.441  13.075  22.821  0.00  0.00    +0.000 A 
ATOM     19  C   UNL     1      -3.052  13.104  22.966  0.00  0.00    +0.000 A 
ATOM     20  C   UNL     1      -2.477  14.139  23.711  0.00  0.00    +0.000 A 
ATOM     21  C   UNL     1      -3.278  15.152  24.261  0.00  0.00    +0.000 A 
BRANCH  16  23
ATOM     22  C   UNL     1      -4.977  17.327  24.891  0.00  0.00    +0.000 C 
ATOM     23  O   UNL     1      -5.540  16.075  24.522  0.00  0.00    +0.000 OA
ENDBRANCH  16  23
ENDBRANCH   1  19
BRANCH  10  24
ATOM     24  C   UNL     1       3.156   5.103  19.216  0.00  0.00    +0.000 A 
ATOM     25  C   UNL     1       3.906   4.326  18.327  0.00  0.00    +0.000 A 
ATOM     26  C   UNL     1       4.255   3.017  18.662  0.00  0.00    +0.000 A 
ATOM     27  C   UNL     1       3.845   2.477  19.882  0.00  0.00    +0.000 A 
ATOM     28  C   UNL     1       3.081   3.232  20.773  0.00  0.00    +0.000 A 
ATOM     29  C   UNL     1       2.738   4.541  20.435  0.00  0.00    +0.000 A 
BRANCH  28  30
ATOM     30  O   UNL     1       2.732   2.588  21.929  0.00  0.00    +0.000 OA
ATOM     31  C   UNL     1       1.346   2.336  22.132  0.00  0.00    +0.000 C 
ENDBRANCH  28  30
ENDBRANCH  10  24
TORSDOF 4
ENDMDL
MODEL 5
REMARK VINA RESULT:      -7.0      1.030      1.496
REMARK  Name = 
REMARK  6 active torsions:
REMARK  status: ('A' for Active; 'I' for Inactive)
REMARK    1  A    between atoms: C_1  and  O_2
REMARK    2  A    between atoms: O_2  and  C_3
REMARK    3  A    between atoms: C_6  and  N_7
REMARK    4  A    between atoms: C_16  and  C_17
REMARK    5  A    between atoms: C_21  and  O_22
REMARK    6  A    between atoms: O_22  and  C_23
REMARK                            x       y       z     vdW  Elec       q    Type
REMARK                         _______ _______ _______ _____ _____    ______ ____
ROOT
ATOM      1  N   UNL     1      -0.775  12.478  21.642  0.00  0.00    +0.000 N 
ATOM      2  C   UNL     1      -0.680  11.296  22.341  0.00  0.00    +0.000 C 
ATOM      3  O   UNL     1      -1.247  11.080  23.410  0.00  0.00    +0.000 OA
ATOM      4  N   UNL     1       0.043  10.293  21.721  0.00  0.00    +0.000 N 
ATOM      5  C   UNL     1       0.015   8.976  22.364  0.00  0.00    +0.000 C 
ATOM      6  C   UNL     1      -0.040   7.863  21.319  0.00  0.00    +0.000 C 
ATOM      7  N   UNL     1       1.109   7.989  20.422  0.00  0.00    +0.000 N 
ATOM      8  C   UNL     1       1.932   6.950  20.109  0.00  0.00    +0.000 A 
ATOM      9  N   UNL     1       2.980   7.053  19.314  0.00  0.00    +0.000 NA
ATOM     10  C   UNL     1       3.655   5.844  19.213  0.00  0.00    +0.000 A 
ATOM     11  C   UNL     1       3.120   4.817  19.959  0.00  0.00    +0.000 A 
ATOM     12  S   UNL     1       1.718   5.350  20.756  0.00  0.00    +0.000 S 
ATOM     13  C   UNL     1       1.234   9.287  19.743  0.00  0.00    +0.000 C 
ATOM     14  C   UNL     1       1.147  10.458  20.757  0.00  0.00    +0.000 C 
ATOM     15  H   UNL     1      -0.583  12.415  20.656  0.00  0.00    +0.000 HD
ENDROOT
BRANCH   1  19
ATOM     16  C   UNL     1      -3.113  15.749  22.950  0.00  0.00    +0.000 A 
ATOM     17  C   UNL     1      -1.758  15.705  23.260  0.00  0.00    +0.000 A 
ATOM     18  C   UNL     1      -0.961  14.654  22.804  0.00  0.00    +0.000 A 
ATOM     19  C   UNL     1      -1.514  13.609  22.060  0.00  0.00    +0.000 A 
ATOM     20  C   UNL     1      -2.873  13.667  21.731  0.00  0.00    +0.000 A 
ATOM     21  C   UNL     1      -3.671  14.729  22.181  0.00  0.00    +0.000 A 
BRANCH  16  23
ATOM     22  C   UNL     1      -4.818  16.484  24.413  0.00  0.00    +0.000 C 
ATOM     23  O   UNL     1      -3.789  16.807  23.487  0.00  0.00    +0.000 OA
ENDBRANCH  16  23
ENDBRANCH   1  19
BRANCH  10  24
ATOM     24  C   UNL     1       4.861   5.694  18.409  0.00  0.00    +0.000 A 
ATOM     25  C   UNL     1       6.090   5.453  19.032  0.00  0.00    +0.000 A 
ATOM     26  C   UNL     1       7.242   5.275  18.265  0.00  0.00    +0.000 A 
ATOM     27  C   UNL     1       7.171   5.348  16.873  0.00  0.00    +0.000 A 
ATOM     28  C   UNL     1       5.956   5.605  16.236  0.00  0.00    +0.000 A 
ATOM     29  C   UNL     1       4.807   5.779  17.007  0.00  0.00    +0.000 A 
BRANCH  28  30
ATOM     30  O   UNL     1       6.019   5.665  14.870  0.00  0.00    +0.000 OA
ATOM     31  C   UNL     1       6.218   4.435  14.181  0.00  0.00    +0.000 C 
ENDBRANCH  28  30
ENDBRANCH  10  24
TORSDOF 4
ENDMDL
MODEL 6
REMARK VINA RESULT:      -6.9      3.088     11.732
REMARK  Name = 
REMARK  6 active torsions:
REMARK  status: ('A' for Active; 'I' for Inactive)
REMARK    1  A    between atoms: C_1  and  O_2
REMARK    2  A    between atoms: O_2  and  C_3
REMARK    3  A    between atoms: C_6  and  N_7
REMARK    4  A    between atoms: C_16  and  C_17
REMARK    5  A    between atoms: C_21  and  O_22
REMARK    6  A    between atoms: O_22  and  C_23
REMARK                            x       y       z     vdW  Elec       q    Type
REMARK                         _______ _______ _______ _____ _____    ______ ____
ROOT
ATOM      1  N   UNL     1       1.873   6.750  20.702  0.00  0.00    +0.000 N 
ATOM      2  C   UNL     1       1.872   7.816  19.832  0.00  0.00    +0.000 C 
ATOM      3  O   UNL     1       2.406   7.804  18.724  0.00  0.00    +0.000 OA
ATOM      4  N   UNL     1       1.144   8.920  20.242  0.00  0.00    +0.000 N 
ATOM      5  C   UNL     1       0.989   9.998  19.262  0.00  0.00    +0.000 C 
ATOM      6  C   UNL     1      -0.410  10.608  19.345  0.00  0.00    +0.000 C 
ATOM      7  N   UNL     1      -0.643  11.092  20.706  0.00  0.00    +0.000 N 
ATOM      8  C   UNL     1      -1.111  12.340  20.987  0.00  0.00    +0.000 A 
ATOM      9  N   UNL     1      -1.311  12.794  22.209  0.00  0.00    +0.000 NA
ATOM     10  C   UNL     1      -1.748  14.112  22.191  0.00  0.00    +0.000 A 
ATOM     11  C   UNL     1      -1.861  14.667  20.936  0.00  0.00    +0.000 A 
ATOM     12  S   UNL     1      -1.471  13.512  19.754  0.00  0.00    +0.000 S 
ATOM     13  C   UNL     1      -0.490  10.083  21.764  0.00  0.00    +0.000 C 
ATOM     14  C   UNL     1       0.861   9.333  21.629  0.00  0.00    +0.000 C 
ATOM     15  H   UNL     1       1.132   6.744  21.383  0.00  0.00    +0.000 HD
ENDROOT
BRANCH   1  19
ATOM     16  C   UNL     1       3.585   2.963  19.920  0.00  0.00    +0.000 A 
ATOM     17  C   UNL     1       4.206   4.111  19.438  0.00  0.00    +0.000 A 
ATOM     18  C   UNL     1       3.678   5.372  19.718  0.00  0.00    +0.000 A 
ATOM     19  C   UNL     1       2.499   5.505  20.457  0.00  0.00    +0.000 A 
ATOM     20  C   UNL     1       1.889   4.350  20.958  0.00  0.00    +0.000 A 
ATOM     21  C   UNL     1       2.426   3.084  20.685  0.00  0.00    +0.000 A 
BRANCH  16  23
ATOM     22  C   UNL     1       3.785   1.271  18.281  0.00  0.00    +0.000 C 
ATOM     23  O   UNL     1       4.178   1.792  19.544  0.00  0.00    +0.000 OA
ENDBRANCH  16  23
ENDBRANCH   1  19
BRANCH  10  24
ATOM     24  C   UNL     1      -2.023  14.855  23.414  0.00  0.00    +0.000 A 
ATOM     25  C   UNL     1      -1.011  15.042  24.361  0.00  0.00    +0.000 A 
ATOM     26  C   UNL     1      -1.261  15.782  25.517  0.00  0.00    +0.000 A 
ATOM     27  C   UNL     1      -2.526  16.327  25.737  0.00  0.00    +0.000 A 
ATOM     28  C   UNL     1      -3.553  16.136  24.810  0.00  0.00    +0.000 A 
ATOM     29  C   UNL     1      -3.298  15.399  23.654  0.00  0.00    +0.000 A 
BRANCH  28  30
ATOM     30  O   UNL     1      -4.749  16.711  25.143  0.00  0.00    +0.000 OA
ATOM     31  C   UNL     1      -4.735  18.104  25.433  0.00  0.00    +0.000 C 
ENDBRANCH  28  30
ENDBRANCH  10  24
TORSDOF 4
ENDMDL
MODEL 7
REMARK VINA RESULT:      -6.8      2.764     11.424
REMARK  Name = 
REMARK  6 active torsions:
REMARK  status: ('A' for Active; 'I' for Inactive)
REMARK    1  A    between atoms: C_1  and  O_2
REMARK    2  A    between atoms: O_2  and  C_3
REMARK    3  A    between atoms: C_6  and  N_7
REMARK    4  A    between atoms: C_16  and  C_17
REMARK    5  A    between atoms: C_21  and  O_22
REMARK    6  A    between atoms: O_22  and  C_23
REMARK                            x       y       z     vdW  Elec       q    Type
REMARK                         _______ _______ _______ _____ _____    ______ ____
ROOT
ATOM      1  N   UNL     1       2.952   7.383  18.066  0.00  0.00    +0.000 N 
ATOM      2  C   UNL     1       2.388   7.196  19.307  0.00  0.00    +0.000 C 
ATOM      3  O   UNL     1       2.633   6.240  20.040  0.00  0.00    +0.000 OA
ATOM      4  N   UNL     1       1.563   8.217  19.747  0.00  0.00    +0.000 N 
ATOM      5  C   UNL     1       1.089   8.121  21.130  0.00  0.00    +0.000 C 
ATOM      6  C   UNL     1       1.054   9.500  21.788  0.00  0.00    +0.000 C 
ATOM      7  N   UNL     1       0.201  10.388  20.997  0.00  0.00    +0.000 N 
ATOM      8  C   UNL     1      -0.791  11.149  21.536  0.00  0.00    +0.000 A 
ATOM      9  N   UNL     1      -1.577  11.942  20.833  0.00  0.00    +0.000 NA
ATOM     10  C   UNL     1      -2.523  12.558  21.640  0.00  0.00    +0.000 A 
ATOM     11  C   UNL     1      -2.463  12.209  22.971  0.00  0.00    +0.000 A 
ATOM     12  S   UNL     1      -1.171  11.140  23.233  0.00  0.00    +0.000 S 
ATOM     13  C   UNL     1       0.588  10.533  19.586  0.00  0.00    +0.000 C 
ATOM     14  C   UNL     1       0.779   9.148  18.915  0.00  0.00    +0.000 C 
ATOM     15  H   UNL     1       2.964   8.333  17.733  0.00  0.00    +0.000 HD
ENDROOT
BRANCH   1  19
ATOM     16  C   UNL     1       5.556   4.658  16.150  0.00  0.00    +0.000 A 
ATOM     17  C   UNL     1       5.855   6.016  16.142  0.00  0.00    +0.000 A 
ATOM     18  C   UNL     1       5.029   6.927  16.802  0.00  0.00    +0.000 A 
ATOM     19  C   UNL     1       3.870   6.499  17.452  0.00  0.00    +0.000 A 
ATOM     20  C   UNL     1       3.583   5.130  17.477  0.00  0.00    +0.000 A 
ATOM     21  C   UNL     1       4.419   4.213  16.822  0.00  0.00    +0.000 A 
BRANCH  16  23
ATOM     22  C   UNL     1       6.513   4.160  14.046  0.00  0.00    +0.000 C 
ATOM     23  O   UNL     1       6.420   3.877  15.436  0.00  0.00    +0.000 OA
ENDBRANCH  16  23
ENDBRANCH   1  19
BRANCH  10  24
ATOM     24  C   UNL     1      -3.525  13.470  21.104  0.00  0.00    +0.000 A 
ATOM     25  C   UNL     1      -3.358  14.852  21.245  0.00  0.00    +0.000 A 
ATOM     26  C   UNL     1      -4.297  15.731  20.703  0.00  0.00    +0.000 A 
ATOM     27  C   UNL     1      -5.411  15.231  20.028  0.00  0.00    +0.000 A 
ATOM     28  C   UNL     1      -5.602  13.855  19.893  0.00  0.00    +0.000 A 
ATOM     29  C   UNL     1      -4.659  12.980  20.433  0.00  0.00    +0.000 A 
BRANCH  28  30
ATOM     30  O   UNL     1      -6.737  13.490  19.220  0.00  0.00    +0.000 OA
ATOM     31  C   UNL     1      -7.283  14.443  18.316  0.00  0.00    +0.000 C 
ENDBRANCH  28  30
ENDBRANCH  10  24
TORSDOF 4
ENDMDL
MODEL 8
REMARK VINA RESULT:      -6.8      1.726      2.438
REMARK  Name = 
REMARK  6 active torsions:
REMARK  status: ('A' for Active; 'I' for Inactive)
REMARK    1  A    between atoms: C_1  and  O_2
REMARK    2  A    between atoms: O_2  and  C_3
REMARK    3  A    between atoms: C_6  and  N_7
REMARK    4  A    between atoms: C_16  and  C_17
REMARK    5  A    between atoms: C_21  and  O_22
REMARK    6  A    between atoms: O_22  and  C_23
REMARK                            x       y       z     vdW  Elec       q    Type
REMARK                         _______ _______ _______ _____ _____    ______ ____
ROOT
ATOM      1  N   UNL     1      -0.313  11.627  20.345  0.00  0.00    +0.000 N 
ATOM      2  C   UNL     1       0.257  10.698  21.185  0.00  0.00    +0.000 C 
ATOM      3  O   UNL     1       0.127  10.701  22.408  0.00  0.00    +0.000 OA
ATOM      4  N   UNL     1       0.941   9.670  20.561  0.00  0.00    +0.000 N 
ATOM      5  C   UNL     1       1.409   8.581  21.423  0.00  0.00    +0.000 C 
ATOM      6  C   UNL     1       1.262   7.231  20.719  0.00  0.00    +0.000 C 
ATOM      7  N   UNL     1       2.004   7.265  19.458  0.00  0.00    +0.000 N 
ATOM      8  C   UNL     1       2.887   6.297  19.084  0.00  0.00    +0.000 A 
ATOM      9  N   UNL     1       3.573   6.322  17.958  0.00  0.00    +0.000 NA
ATOM     10  C   UNL     1       4.425   5.230  17.864  0.00  0.00    +0.000 A 
ATOM     11  C   UNL     1       4.396   4.378  18.945  0.00  0.00    +0.000 A 
ATOM     12  S   UNL     1       3.246   4.914  20.074  0.00  0.00    +0.000 S 
ATOM     13  C   UNL     1       1.618   8.339  18.533  0.00  0.00    +0.000 C 
ATOM     14  C   UNL     1       1.611   9.716  19.248  0.00  0.00    +0.000 C 
ATOM     15  H   UNL     1      -0.441  11.330  19.392  0.00  0.00    +0.000 HD
ENDROOT
BRANCH   1  19
ATOM     16  C   UNL     1      -2.788  14.782  21.688  0.00  0.00    +0.000 A 
ATOM     17  C   UNL     1      -1.406  14.893  21.807  0.00  0.00    +0.000 A 
ATOM     18  C   UNL     1      -0.571  13.880  21.335  0.00  0.00    +0.000 A 
ATOM     19  C   UNL     1      -1.105  12.721  20.766  0.00  0.00    +0.000 A 
ATOM     20  C   UNL     1      -2.493  12.621  20.628  0.00  0.00    +0.000 A 
ATOM     21  C   UNL     1      -3.332  13.644  21.094  0.00  0.00    +0.000 A 
BRANCH  16  23
ATOM     22  C   UNL     1      -2.790  16.645  23.143  0.00  0.00    +0.000 C 
ATOM     23  O   UNL     1      -3.494  15.821  22.224  0.00  0.00    +0.000 OA
ENDBRANCH  16  23
ENDBRANCH   1  19
BRANCH  10  24
ATOM     24  C   UNL     1       5.310   5.032  16.723  0.00  0.00    +0.000 A 
ATOM     25  C   UNL     1       6.674   5.320  16.837  0.00  0.00    +0.000 A 
ATOM     26  C   UNL     1       7.530   5.099  15.758  0.00  0.00    +0.000 A 
ATOM     27  C   UNL     1       7.024   4.601  14.557  0.00  0.00    +0.000 A 
ATOM     28  C   UNL     1       5.663   4.324  14.420  0.00  0.00    +0.000 A 
ATOM     29  C   UNL     1       4.811   4.543  15.502  0.00  0.00    +0.000 A 
BRANCH  28  30
ATOM     30  O   UNL     1       5.288   3.851  13.191  0.00  0.00    +0.000 OA
ATOM     31  C   UNL     1       6.330   3.427  12.320  0.00  0.00    +0.000 C 
ENDBRANCH  28  30
ENDBRANCH  10  24
TORSDOF 4
ENDMDL
MODEL 9
REMARK VINA RESULT:      -6.8      2.679      3.726
REMARK  Name = 
REMARK  6 active torsions:
REMARK  status: ('A' for Active; 'I' for Inactive)
REMARK    1  A    between atoms: C_1  and  O_2
REMARK    2  A    between atoms: O_2  and  C_3
REMARK    3  A    between atoms: C_6  and  N_7
REMARK    4  A    between atoms: C_16  and  C_17
REMARK    5  A    between atoms: C_21  and  O_22
REMARK    6  A    between atoms: O_22  and  C_23
REMARK                            x       y       z     vdW  Elec       q    Type
REMARK                         _______ _______ _______ _____ _____    ______ ____
ROOT
ATOM      1  N   UNL     1      -1.957  13.017  22.330  0.00  0.00    +0.000 N 
ATOM      2  C   UNL     1      -1.707  12.754  21.003  0.00  0.00    +0.000 C 
ATOM      3  O   UNL     1      -2.091  13.462  20.074  0.00  0.00    +0.000 OA
ATOM      4  N   UNL     1      -0.900  11.657  20.755  0.00  0.00    +0.000 N 
ATOM      5  C   UNL     1      -0.482  11.458  19.364  0.00  0.00    +0.000 C 
ATOM      6  C   UNL     1       0.963  10.961  19.299  0.00  0.00    +0.000 C 
ATOM      7  N   UNL     1       1.079   9.722  20.070  0.00  0.00    +0.000 N 
ATOM      8  C   UNL     1       1.665   8.592  19.586  0.00  0.00    +0.000 A 
ATOM      9  N   UNL     1       1.764   7.465  20.264  0.00  0.00    +0.000 NA
ATOM     10  C   UNL     1       2.367   6.473  19.504  0.00  0.00    +0.000 A 
ATOM     11  C   UNL     1       2.712   6.851  18.226  0.00  0.00    +0.000 A 
ATOM     12  S   UNL     1       2.330   8.487  17.983  0.00  0.00    +0.000 S 
ATOM     13  C   UNL     1       0.662   9.819  21.477  0.00  0.00    +0.000 C 
ATOM     14  C   UNL     1      -0.746  10.457  21.598  0.00  0.00    +0.000 C 
ATOM     15  H   UNL     1      -1.317  12.599  22.984  0.00  0.00    +0.000 HD
ENDROOT
BRANCH   1  19
ATOM     16  C   UNL     1      -4.138  16.404  23.620  0.00  0.00    +0.000 A 
ATOM     17  C   UNL     1      -4.731  15.146  23.663  0.00  0.00    +0.000 A 
ATOM     18  C   UNL     1      -4.015  14.011  23.278  0.00  0.00    +0.000 A 
ATOM     19  C   UNL     1      -2.703  14.119  22.811  0.00  0.00    +0.000 A 
ATOM     20  C   UNL     1      -2.102  15.382  22.789  0.00  0.00    +0.000 A 
ATOM     21  C   UNL     1      -2.819  16.521  23.184  0.00  0.00    +0.000 A 
BRANCH  16  23
ATOM     22  C   UNL     1      -5.594  18.129  22.920  0.00  0.00    +0.000 C 
ATOM     23  O   UNL     1      -4.956  17.435  23.983  0.00  0.00    +0.000 OA
ENDBRANCH  16  23
ENDBRANCH   1  19
BRANCH  10  24
ATOM     24  C   UNL     1       2.578   5.124  20.016  0.00  0.00    +0.000 A 
ATOM     25  C   UNL     1       1.923   4.708  21.180  0.00  0.00    +0.000 A 
ATOM     26  C   UNL     1       2.094   3.407  21.654  0.00  0.00    +0.000 A 
ATOM     27  C   UNL     1       2.931   2.522  20.974  0.00  0.00    +0.000 A 
ATOM     28  C   UNL     1       3.606   2.925  19.821  0.00  0.00    +0.000 A 
ATOM     29  C   UNL     1       3.428   4.225  19.348  0.00  0.00    +0.000 A 
BRANCH  28  30
ATOM     30  O   UNL     1       4.404   1.970  19.252  0.00  0.00    +0.000 OA
ATOM     31  C   UNL     1       3.850   1.230  18.170  0.00  0.00    +0.000 C 
ENDBRANCH  28  30
ENDBRANCH  10  24
TORSDOF 4
ENDMDL
