MODEL 1
REMARK VINA RESULT:      -8.0      0.000      0.000
REMARK  Name = 
REMARK  4 active torsions:
REMARK  status: ('A' for Active; 'I' for Inactive)
REMARK    1  A    between atoms: C_1  and  O_2
REMARK    2  A    between atoms: O_2  and  C_3
REMARK    3  A    between atoms: C_14  and  C_16
REMARK    4  A    between atoms: C_19  and  C_20
REMARK                            x       y       z     vdW  Elec       q    Type
REMARK                         _______ _______ _______ _____ _____    ______ ____
ROOT
ATOM      1  C   UNL     1      -1.268  11.592  22.006  0.00  0.00    +0.000 A 
ATOM      2  C   UNL     1      -1.671  12.444  20.978  0.00  0.00    +0.000 A 
ATOM      3  C   UNL     1      -1.251  12.237  19.659  0.00  0.00    +0.000 A 
ATOM      4  C   UNL     1      -0.414  11.148  19.403  0.00  0.00    +0.000 A 
ATOM      5  N   UNL     1       0.156  10.734  18.219  0.00  0.00    +0.000 N 
ATOM      6  C   UNL     1       0.933   9.641  18.450  0.00  0.00    +0.000 A 
ATOM      7  C   UNL     1       0.837   9.289  19.784  0.00  0.00    +0.000 A 
ATOM      8  C   UNL     1      -0.000  10.261  20.405  0.00  0.00    +0.000 A 
ATOM      9  C   UNL     1      -0.443  10.493  21.724  0.00  0.00    +0.000 A 
ATOM     10  C   UNL     1       1.572   8.121  20.379  0.00  0.00    +0.000 C 
ATOM     11  N   UNL     1       2.307   7.392  19.323  0.00  0.00    +0.000 N 
ATOM     12  C   UNL     1       2.572   6.039  19.540  0.00  0.00    +0.000 C 
ATOM     13  O   UNL     1       2.268   5.485  20.598  0.00  0.00    +0.000 OA
ATOM     14  C   UNL     1       2.893   8.218  18.247  0.00  0.00    +0.000 C 
ATOM     15  C   UNL     1       1.787   8.939  17.454  0.00  0.00    +0.000 C 
ATOM     16  H   UNL     1       0.036  11.197  17.330  0.00  0.00    +0.000 HD
ENDROOT
BRANCH  12  17
ATOM     17  C   UNL     1       3.257   5.272  18.482  0.00  0.00    +0.000 A 
ATOM     18  C   UNL     1       2.711   4.211  17.782  0.00  0.00    +0.000 A 
ATOM     19  N   UNL     1       3.687   3.775  16.933  0.00  0.00    +0.000 N 
ATOM     20  C   UNL     1       4.788   4.582  17.097  0.00  0.00    +0.000 A 
ATOM     21  N   UNL     1       4.535   5.514  18.003  0.00  0.00    +0.000 NA
ATOM     22  H   UNL     1       3.625   2.990  16.296  0.00  0.00    +0.000 HD
BRANCH  20  23
ATOM     23  C   UNL     1       6.045   4.339  16.328  0.00  0.00    +0.000 C 
ATOM     24  F   UNL     1       7.114   4.203  17.161  0.00  0.00    +0.000 F 
ATOM     25  F   UNL     1       5.990   3.210  15.579  0.00  0.00    +0.000 F 
ATOM     26  F   UNL     1       6.338   5.367  15.490  0.00  0.00    +0.000 F 
ENDBRANCH  20  23
ENDBRANCH  12  17
BRANCH   1  28
ATOM     27  C   UNL     1      -2.929  12.179  23.604  0.00  0.00    +0.000 C 
ATOM     28  O   UNL     1      -1.611  11.723  23.327  0.00  0.00    +0.000 OA
ENDBRANCH   1  28
TORSDOF 3
ENDMDL
MODEL 2
REMARK VINA RESULT:      -7.8      4.488      8.288
REMARK  Name = 
REMARK  4 active torsions:
REMARK  status: ('A' for Active; 'I' for Inactive)
REMARK    1  A    between atoms: C_1  and  O_2
REMARK    2  A    between atoms: O_2  and  C_3
REMARK    3  A    between atoms: C_14  and  C_16
REMARK    4  A    between atoms: C_19  and  C_20
REMARK                            x       y       z     vdW  Elec       q    Type
REMARK                         _______ _______ _______ _____ _____    ______ ____
ROOT
ATOM      1  C   UNL     1       3.061   3.760  20.199  0.00  0.00    +0.000 A 
ATOM      2  C   UNL     1       3.730   3.585  18.988  0.00  0.00    +0.000 A 
ATOM      3  C   UNL     1       3.834   4.628  18.061  0.00  0.00    +0.000 A 
ATOM      4  C   UNL     1       3.245   5.853  18.386  0.00  0.00    +0.000 A 
ATOM      5  N   UNL     1       3.179   7.020  17.657  0.00  0.00    +0.000 N 
ATOM      6  C   UNL     1       2.471   7.949  18.356  0.00  0.00    +0.000 A 
ATOM      7  C   UNL     1       2.111   7.419  19.580  0.00  0.00    +0.000 A 
ATOM      8  C   UNL     1       2.579   6.072  19.598  0.00  0.00    +0.000 A 
ATOM      9  C   UNL     1       2.493   5.003  20.514  0.00  0.00    +0.000 A 
ATOM     10  C   UNL     1       1.318   8.182  20.604  0.00  0.00    +0.000 C 
ATOM     11  N   UNL     1       1.081   9.564  20.134  0.00  0.00    +0.000 N 
ATOM     12  C   UNL     1       0.877  10.547  21.103  0.00  0.00    +0.000 C 
ATOM     13  O   UNL     1       0.826  10.268  22.302  0.00  0.00    +0.000 OA
ATOM     14  C   UNL     1       0.851   9.730  18.684  0.00  0.00    +0.000 C 
ATOM     15  C   UNL     1       2.100   9.311  17.887  0.00  0.00    +0.000 C 
ATOM     16  H   UNL     1       3.570   7.145  16.734  0.00  0.00    +0.000 HD
ENDROOT
BRANCH  12  17
ATOM     17  C   UNL     1       0.689  11.944  20.668  0.00  0.00    +0.000 A 
ATOM     18  C   UNL     1      -0.489  12.662  20.767  0.00  0.00    +0.000 A 
ATOM     19  N   UNL     1      -0.234  13.887  20.222  0.00  0.00    +0.000 N 
ATOM     20  C   UNL     1       1.085  13.916  19.834  0.00  0.00    +0.000 A 
ATOM     21  N   UNL     1       1.668  12.764  20.128  0.00  0.00    +0.000 NA
ATOM     22  H   UNL     1      -0.895  14.647  20.109  0.00  0.00    +0.000 HD
BRANCH  20  23
ATOM     23  C   UNL     1       1.668  15.118  19.166  0.00  0.00    +0.000 C 
ATOM     24  F   UNL     1       0.692  15.931  18.676  0.00  0.00    +0.000 F 
ATOM     25  F   UNL     1       2.418  15.871  20.008  0.00  0.00    +0.000 F 
ATOM     26  F   UNL     1       2.457  14.784  18.111  0.00  0.00    +0.000 F 
ENDBRANCH  20  23
ENDBRANCH  12  17
BRANCH   1  28
ATOM     27  C   UNL     1       1.579   2.643  21.688  0.00  0.00    +0.000 C 
ATOM     28  O   UNL     1       2.891   2.796  21.159  0.00  0.00    +0.000 OA
ENDBRANCH   1  28
TORSDOF 3
ENDMDL
MODEL 3
REMARK VINA RESULT:      -7.8      5.939      9.442
REMARK  Name = 
REMARK  4 active torsions:
REMARK  status: ('A' for Active; 'I' for Inactive)
REMARK    1  A    between atoms: C_1  and  O_2
REMARK    2  A    between atoms: O_2  and  C_3
REMARK    3  A    between atoms: C_14  and  C_16
REMARK    4  A    between atoms: C_19  and  C_20
REMARK                            x       y       z     vdW  Elec       q    Type
REMARK                         _______ _______ _______ _____ _____    ______ ____
ROOT
ATOM      1  C   UNL     1       3.674   5.548  19.115  0.00  0.00    +0.000 A 
ATOM      2  C   UNL     1       3.991   6.000  17.835  0.00  0.00    +0.000 A 
ATOM      3  C   UNL     1       3.470   7.202  17.342  0.00  0.00    +0.000 A 
ATOM      4  C   UNL     1       2.620   7.936  18.173  0.00  0.00    +0.000 A 
ATOM      5  N   UNL     1       1.961   9.121  17.933  0.00  0.00    +0.000 N 
ATOM      6  C   UNL     1       1.208   9.447  19.019  0.00  0.00    +0.000 A 
ATOM      7  C   UNL     1       1.409   8.505  20.010  0.00  0.00    +0.000 A 
ATOM      8  C   UNL     1       2.290   7.523  19.470  0.00  0.00    +0.000 A 
ATOM      9  C   UNL     1       2.833   6.309  19.941  0.00  0.00    +0.000 A 
ATOM     10  C   UNL     1       0.728   8.563  21.349  0.00  0.00    +0.000 C 
ATOM     11  N   UNL     1      -0.084   9.795  21.451  0.00  0.00    +0.000 N 
ATOM     12  C   UNL     1      -0.326  10.302  22.728  0.00  0.00    +0.000 C 
ATOM     13  O   UNL     1       0.062   9.713  23.739  0.00  0.00    +0.000 OA
ATOM     14  C   UNL     1      -0.756  10.238  20.212  0.00  0.00    +0.000 C 
ATOM     15  C   UNL     1       0.282  10.606  19.135  0.00  0.00    +0.000 C 
ATOM     16  H   UNL     1       2.009   9.642  17.069  0.00  0.00    +0.000 HD
ENDROOT
BRANCH  12  17
ATOM     17  C   UNL     1      -1.089  11.558  22.860  0.00  0.00    +0.000 A 
ATOM     18  C   UNL     1      -0.657  12.804  22.444  0.00  0.00    +0.000 A 
ATOM     19  N   UNL     1      -1.645  13.682  22.785  0.00  0.00    +0.000 N 
ATOM     20  C   UNL     1      -2.668  12.969  23.366  0.00  0.00    +0.000 A 
ATOM     21  N   UNL     1      -2.365  11.680  23.388  0.00  0.00    +0.000 NA
ATOM     22  H   UNL     1      -1.634  14.686  22.648  0.00  0.00    +0.000 HD
BRANCH  20  23
ATOM     23  C   UNL     1      -3.890  13.654  23.883  0.00  0.00    +0.000 C 
ATOM     24  F   UNL     1      -3.579  14.542  24.866  0.00  0.00    +0.000 F 
ATOM     25  F   UNL     1      -4.545  14.351  22.921  0.00  0.00    +0.000 F 
ATOM     26  F   UNL     1      -4.778  12.778  24.421  0.00  0.00    +0.000 F 
ENDBRANCH  20  23
ENDBRANCH  12  17
BRANCH   1  28
ATOM     27  C   UNL     1       3.131   3.403  19.990  0.00  0.00    +0.000 C 
ATOM     28  O   UNL     1       4.118   4.379  19.678  0.00  0.00    +0.000 OA
ENDBRANCH   1  28
TORSDOF 3
ENDMDL
MODEL 4
REMARK VINA RESULT:      -7.6      4.663      8.457
REMARK  Name = 
REMARK  4 active torsions:
REMARK  status: ('A' for Active; 'I' for Inactive)
REMARK    1  A    between atoms: C_1  and  O_2
REMARK    2  A    between atoms: O_2  and  C_3
REMARK    3  A    between atoms: C_14  and  C_16
REMARK    4  A    between atoms: C_19  and  C_20
REMARK                            x       y       z     vdW  Elec       q    Type
REMARK                         _______ _______ _______ _____ _____    ______ ____
ROOT
ATOM      1  C   UNL     1       3.480   3.772  19.585  0.00  0.00    +0.000 A 
ATOM      2  C   UNL     1       4.105   3.801  18.339  0.00  0.00    +0.000 A 
ATOM      3  C   UNL     1       4.094   4.956  17.550  0.00  0.00    +0.000 A 
ATOM      4  C   UNL     1       3.435   6.083  18.048  0.00  0.00    +0.000 A 
ATOM      5  N   UNL     1       3.255   7.323  17.477  0.00  0.00    +0.000 N 
ATOM      6  C   UNL     1       2.513   8.101  18.312  0.00  0.00    +0.000 A 
ATOM      7  C   UNL     1       2.245   7.397  19.471  0.00  0.00    +0.000 A 
ATOM      8  C   UNL     1       2.808   6.098  19.301  0.00  0.00    +0.000 A 
ATOM      9  C   UNL     1       2.839   4.920  20.076  0.00  0.00    +0.000 A 
ATOM     10  C   UNL     1       1.445   7.964  20.609  0.00  0.00    +0.000 C 
ATOM     11  N   UNL     1       1.090   9.372  20.328  0.00  0.00    +0.000 N 
ATOM     12  C   UNL     1       0.859  10.208  21.421  0.00  0.00    +0.000 C 
ATOM     13  O   UNL     1       0.881   9.779  22.576  0.00  0.00    +0.000 OA
ATOM     14  C   UNL     1       0.786   9.699  18.919  0.00  0.00    +0.000 C 
ATOM     15  C   UNL     1       2.026   9.479  18.033  0.00  0.00    +0.000 C 
ATOM     16  H   UNL     1       3.595   7.591  16.565  0.00  0.00    +0.000 HD
ENDROOT
BRANCH  12  17
ATOM     17  C   UNL     1       0.554  11.630  21.174  0.00  0.00    +0.000 A 
ATOM     18  C   UNL     1      -0.708  12.195  21.207  0.00  0.00    +0.000 A 
ATOM     19  N   UNL     1      -0.542  13.513  20.891  0.00  0.00    +0.000 N 
ATOM     20  C   UNL     1       0.801  13.742  20.704  0.00  0.00    +0.000 A 
ATOM     21  N   UNL     1       1.482  12.624  20.906  0.00  0.00    +0.000 NA
ATOM     22  H   UNL     1      -1.274  14.208  20.797  0.00  0.00    +0.000 HD
BRANCH  20  23
ATOM     23  C   UNL     1       1.307  15.090  20.311  0.00  0.00    +0.000 C 
ATOM     24  F   UNL     1       2.313  14.992  19.399  0.00  0.00    +0.000 F 
ATOM     25  F   UNL     1       0.347  15.866  19.750  0.00  0.00    +0.000 F 
ATOM     26  F   UNL     1       1.813  15.775  21.370  0.00  0.00    +0.000 F 
ENDBRANCH  20  23
ENDBRANCH  12  17
BRANCH   1  28
ATOM     27  C   UNL     1       2.460   2.736  21.468  0.00  0.00    +0.000 C 
ATOM     28  O   UNL     1       3.421   2.686  20.420  0.00  0.00    +0.000 OA
ENDBRANCH   1  28
TORSDOF 3
ENDMDL
MODEL 5
REMARK VINA RESULT:      -7.5      5.608      9.291
REMARK  Name = 
REMARK  4 active torsions:
REMARK  status: ('A' for Active; 'I' for Inactive)
REMARK    1  A    between atoms: C_1  and  O_2
REMARK    2  A    between atoms: O_2  and  C_3
REMARK    3  A    between atoms: C_14  and  C_16
REMARK    4  A    between atoms: C_19  and  C_20
REMARK                            x       y       z     vdW  Elec       q    Type
REMARK                         _______ _______ _______ _____ _____    ______ ____
ROOT
ATOM      1  C   UNL     1       3.384   5.609  19.072  0.00  0.00    +0.000 A 
ATOM      2  C   UNL     1       3.772   6.111  17.830  0.00  0.00    +0.000 A 
ATOM      3  C   UNL     1       3.346   7.370  17.393  0.00  0.00    +0.000 A 
ATOM      4  C   UNL     1       2.518   8.111  18.241  0.00  0.00    +0.000 A 
ATOM      5  N   UNL     1       1.945   9.349  18.051  0.00  0.00    +0.000 N 
ATOM      6  C   UNL     1       1.180   9.663  19.132  0.00  0.00    +0.000 A 
ATOM      7  C   UNL     1       1.287   8.655  20.072  0.00  0.00    +0.000 A 
ATOM      8  C   UNL     1       2.119   7.648  19.501  0.00  0.00    +0.000 A 
ATOM      9  C   UNL     1       2.567   6.377  19.916  0.00  0.00    +0.000 A 
ATOM     10  C   UNL     1       0.568   8.682  21.391  0.00  0.00    +0.000 C 
ATOM     11  N   UNL     1      -0.167   9.958  21.542  0.00  0.00    +0.000 N 
ATOM     12  C   UNL     1      -0.417  10.407  22.839  0.00  0.00    +0.000 C 
ATOM     13  O   UNL     1      -0.102   9.737  23.824  0.00  0.00    +0.000 OA
ATOM     14  C   UNL     1      -0.768  10.514  20.312  0.00  0.00    +0.000 C 
ATOM     15  C   UNL     1       0.327  10.871  19.289  0.00  0.00    +0.000 C 
ATOM     16  H   UNL     1       2.055   9.913  17.221  0.00  0.00    +0.000 HD
ENDROOT
BRANCH  12  17
ATOM     17  C   UNL     1      -1.101  11.701  23.022  0.00  0.00    +0.000 A 
ATOM     18  C   UNL     1      -2.457  11.865  23.243  0.00  0.00    +0.000 A 
ATOM     19  N   UNL     1      -2.668  13.212  23.320  0.00  0.00    +0.000 N 
ATOM     20  C   UNL     1      -1.455  13.843  23.180  0.00  0.00    +0.000 A 
ATOM     21  N   UNL     1      -0.492  12.946  23.035  0.00  0.00    +0.000 NA
ATOM     22  H   UNL     1      -3.560  13.676  23.447  0.00  0.00    +0.000 HD
BRANCH  20  23
ATOM     23  C   UNL     1      -1.355  15.334  23.184  0.00  0.00    +0.000 C 
ATOM     24  F   UNL     1      -1.803  15.861  22.012  0.00  0.00    +0.000 F 
ATOM     25  F   UNL     1      -2.088  15.903  24.173  0.00  0.00    +0.000 F 
ATOM     26  F   UNL     1      -0.074  15.759  23.335  0.00  0.00    +0.000 F 
ENDBRANCH  20  23
ENDBRANCH  12  17
BRANCH   1  28
ATOM     27  C   UNL     1       4.629   3.600  18.799  0.00  0.00    +0.000 C 
ATOM     28  O   UNL     1       3.733   4.383  19.578  0.00  0.00    +0.000 OA
ENDBRANCH   1  28
TORSDOF 3
ENDMDL
MODEL 6
REMARK VINA RESULT:      -7.4      5.215      8.777
REMARK  Name = 
REMARK  4 active torsions:
REMARK  status: ('A' for Active; 'I' for Inactive)
REMARK    1  A    between atoms: C_1  and  O_2
REMARK    2  A    between atoms: O_2  and  C_3
REMARK    3  A    between atoms: C_14  and  C_16
REMARK    4  A    between atoms: C_19  and  C_20
REMARK                            x       y       z     vdW  Elec       q    Type
REMARK                         _______ _______ _______ _____ _____    ______ ____
ROOT
ATOM      1  C   UNL     1       3.109   3.868  19.865  0.00  0.00    +0.000 A 
ATOM      2  C   UNL     1       3.752   3.776  18.632  0.00  0.00    +0.000 A 
ATOM      3  C   UNL     1       3.823   4.875  17.768  0.00  0.00    +0.000 A 
ATOM      4  C   UNL     1       3.226   6.070  18.180  0.00  0.00    +0.000 A 
ATOM      5  N   UNL     1       3.129   7.278  17.525  0.00  0.00    +0.000 N 
ATOM      6  C   UNL     1       2.425   8.153  18.294  0.00  0.00    +0.000 A 
ATOM      7  C   UNL     1       2.099   7.545  19.491  0.00  0.00    +0.000 A 
ATOM      8  C   UNL     1       2.584   6.206  19.417  0.00  0.00    +0.000 A 
ATOM      9  C   UNL     1       2.532   5.082  20.268  0.00  0.00    +0.000 A 
ATOM     10  C   UNL     1       1.319   8.233  20.576  0.00  0.00    +0.000 C 
ATOM     11  N   UNL     1       1.054   9.638  20.197  0.00  0.00    +0.000 N 
ATOM     12  C   UNL     1       0.859  10.557  21.228  0.00  0.00    +0.000 C 
ATOM     13  O   UNL     1       0.839  10.205  22.409  0.00  0.00    +0.000 OA
ATOM     14  C   UNL     1       0.790   9.888  18.764  0.00  0.00    +0.000 C 
ATOM     15  C   UNL     1       2.026   9.535  17.916  0.00  0.00    +0.000 C 
ATOM     16  H   UNL     1       3.498   7.464  16.603  0.00  0.00    +0.000 HD
ENDROOT
BRANCH  12  17
ATOM     17  C   UNL     1       0.645  11.976  20.883  0.00  0.00    +0.000 A 
ATOM     18  C   UNL     1       1.624  12.850  20.448  0.00  0.00    +0.000 A 
ATOM     19  N   UNL     1       1.008  14.056  20.278  0.00  0.00    +0.000 N 
ATOM     20  C   UNL     1      -0.325  13.900  20.575  0.00  0.00    +0.000 A 
ATOM     21  N   UNL     1      -0.571  12.642  20.908  0.00  0.00    +0.000 NA
ATOM     22  H   UNL     1       1.448  14.923  19.994  0.00  0.00    +0.000 HD
BRANCH  20  23
ATOM     23  C   UNL     1      -1.270  15.055  20.518  0.00  0.00    +0.000 C 
ATOM     24  F   UNL     1      -2.565  14.635  20.533  0.00  0.00    +0.000 F 
ATOM     25  F   UNL     1      -1.124  15.902  21.568  0.00  0.00    +0.000 F 
ATOM     26  F   UNL     1      -1.115  15.787  19.385  0.00  0.00    +0.000 F 
ENDBRANCH  20  23
ENDBRANCH  12  17
BRANCH   1  28
ATOM     27  C   UNL     1       1.795   2.850  21.567  0.00  0.00    +0.000 C 
ATOM     28  O   UNL     1       2.972   2.846  20.769  0.00  0.00    +0.000 OA
ENDBRANCH   1  28
TORSDOF 3
ENDMDL
MODEL 7
REMARK VINA RESULT:      -7.3      5.298      9.019
REMARK  Name = 
REMARK  4 active torsions:
REMARK  status: ('A' for Active; 'I' for Inactive)
REMARK    1  A    between atoms: C_1  and  O_2
REMARK    2  A    between atoms: O_2  and  C_3
REMARK    3  A    between atoms: C_14  and  C_16
REMARK    4  A    between atoms: C_19  and  C_20
REMARK                            x       y       z     vdW  Elec       q    Type
REMARK                         _______ _______ _______ _____ _____    ______ ____
ROOT
ATOM      1  C   UNL     1       3.345   4.870  19.438  0.00  0.00    +0.000 A 
ATOM      2  C   UNL     1       3.811   5.235  18.176  0.00  0.00    +0.000 A 
ATOM      3  C   UNL     1       3.498   6.482  17.622  0.00  0.00    +0.000 A 
ATOM      4  C   UNL     1       2.701   7.350  18.373  0.00  0.00    +0.000 A 
ATOM      5  N   UNL     1       2.232   8.607  18.061  0.00  0.00    +0.000 N 
ATOM      6  C   UNL     1       1.458   9.066  19.082  0.00  0.00    +0.000 A 
ATOM      7  C   UNL     1       1.456   8.135  20.104  0.00  0.00    +0.000 A 
ATOM      8  C   UNL     1       2.227   7.026  19.649  0.00  0.00    +0.000 A 
ATOM      9  C   UNL     1       2.562   5.764  20.184  0.00  0.00    +0.000 A 
ATOM     10  C   UNL     1       0.697   8.326  21.387  0.00  0.00    +0.000 C 
ATOM     11  N   UNL     1       0.058   9.661  21.405  0.00  0.00    +0.000 N 
ATOM     12  C   UNL     1      -0.200  10.234  22.650  0.00  0.00    +0.000 C 
ATOM     13  O   UNL     1       0.031   9.628  23.698  0.00  0.00    +0.000 OA
ATOM     14  C   UNL     1      -0.457  10.154  20.110  0.00  0.00    +0.000 C 
ATOM     15  C   UNL     1       0.695  10.343  19.106  0.00  0.00    +0.000 C 
ATOM     16  H   UNL     1       2.413   9.090  17.192  0.00  0.00    +0.000 HD
ENDROOT
BRANCH  12  17
ATOM     17  C   UNL     1      -0.788  11.586  22.700  0.00  0.00    +0.000 A 
ATOM     18  C   UNL     1      -2.091  11.879  23.061  0.00  0.00    +0.000 A 
ATOM     19  N   UNL     1      -2.224  13.232  22.938  0.00  0.00    +0.000 N 
ATOM     20  C   UNL     1      -1.012  13.746  22.543  0.00  0.00    +0.000 A 
ATOM     21  N   UNL     1      -0.122  12.771  22.428  0.00  0.00    +0.000 NA
ATOM     22  H   UNL     1      -3.066  13.772  23.098  0.00  0.00    +0.000 HD
BRANCH  20  23
ATOM     23  C   UNL     1      -0.839  15.207  22.286  0.00  0.00    +0.000 C 
ATOM     24  F   UNL     1      -0.173  15.811  23.308  0.00  0.00    +0.000 F 
ATOM     25  F   UNL     1      -0.131  15.460  21.157  0.00  0.00    +0.000 F 
ATOM     26  F   UNL     1      -2.029  15.850  22.169  0.00  0.00    +0.000 F 
ENDBRANCH  20  23
ENDBRANCH  12  17
BRANCH   1  28
ATOM     27  C   UNL     1       2.772   2.570  19.651  0.00  0.00    +0.000 C 
ATOM     28  O   UNL     1       3.581   3.668  20.055  0.00  0.00    +0.000 OA
ENDBRANCH   1  28
TORSDOF 3
ENDMDL
MODEL 8
REMARK VINA RESULT:      -7.3      5.087      8.814
REMARK  Name = 
REMARK  4 active torsions:
REMARK  status: ('A' for Active; 'I' for Inactive)
REMARK    1  A    between atoms: C_1  and  O_2
REMARK    2  A    between atoms: O_2  and  C_3
REMARK    3  A    between atoms: C_14  and  C_16
REMARK    4  A    between atoms: C_19  and  C_20
REMARK                            x       y       z     vdW  Elec       q    Type
REMARK                         _______ _______ _______ _____ _____    ______ ____
ROOT
ATOM      1  C   UNL     1       3.079   4.478  19.760  0.00  0.00    +0.000 A 
ATOM      2  C   UNL     1       3.658   4.693  18.510  0.00  0.00    +0.000 A 
ATOM      3  C   UNL     1       3.521   5.920  17.851  0.00  0.00    +0.000 A 
ATOM      4  C   UNL     1       2.784   6.924  18.484  0.00  0.00    +0.000 A 
ATOM      5  N   UNL     1       2.478   8.197  18.055  0.00  0.00    +0.000 N 
ATOM      6  C   UNL     1       1.701   8.813  18.987  0.00  0.00    +0.000 A 
ATOM      7  C   UNL     1       1.534   7.969  20.069  0.00  0.00    +0.000 A 
ATOM      8  C   UNL     1       2.201   6.751  19.746  0.00  0.00    +0.000 A 
ATOM      9  C   UNL     1       2.359   5.505  20.387  0.00  0.00    +0.000 A 
ATOM     10  C   UNL     1       0.726   8.339  21.281  0.00  0.00    +0.000 C 
ATOM     11  N   UNL     1       0.242   9.731  21.163  0.00  0.00    +0.000 N 
ATOM     12  C   UNL     1      -0.024  10.423  22.345  0.00  0.00    +0.000 C 
ATOM     13  O   UNL     1       0.074   9.878  23.446  0.00  0.00    +0.000 OA
ATOM     14  C   UNL     1      -0.137  10.177  19.806  0.00  0.00    +0.000 C 
ATOM     15  C   UNL     1       1.087  10.163  18.871  0.00  0.00    +0.000 C 
ATOM     16  H   UNL     1       2.764   8.590  17.169  0.00  0.00    +0.000 HD
ENDROOT
BRANCH  12  17
ATOM     17  C   UNL     1      -0.458  11.830  22.261  0.00  0.00    +0.000 A 
ATOM     18  C   UNL     1      -1.730  12.294  22.548  0.00  0.00    +0.000 A 
ATOM     19  N   UNL     1      -1.707  13.637  22.309  0.00  0.00    +0.000 N 
ATOM     20  C   UNL     1      -0.434  13.980  21.917  0.00  0.00    +0.000 A 
ATOM     21  N   UNL     1       0.343  12.908  21.917  0.00  0.00    +0.000 NA
ATOM     22  H   UNL     1      -2.487  14.278  22.393  0.00  0.00    +0.000 HD
BRANCH  20  23
ATOM     23  C   UNL     1      -0.092  15.386  21.548  0.00  0.00    +0.000 C 
ATOM     24  F   UNL     1       0.201  15.489  20.223  0.00  0.00    +0.000 F 
ATOM     25  F   UNL     1      -1.106  16.252  21.791  0.00  0.00    +0.000 F 
ATOM     26  F   UNL     1       0.998  15.840  22.220  0.00  0.00    +0.000 F 
ENDBRANCH  20  23
ENDBRANCH  12  17
BRANCH   1  28
ATOM     27  C   UNL     1       2.232   3.171  21.559  0.00  0.00    +0.000 C 
ATOM     28  O   UNL     1       3.142   3.308  20.474  0.00  0.00    +0.000 OA
ENDBRANCH   1  28
TORSDOF 3
ENDMDL
MODEL 9
REMARK VINA RESULT:      -7.2      4.775      9.109
REMARK  Name = 
REMARK  4 active torsions:
REMARK  status: ('A' for Active; 'I' for Inactive)
REMARK    1  A    between atoms: C_1  and  O_2
REMARK    2  A    between atoms: O_2  and  C_3
REMARK    3  A    between atoms: C_14  and  C_16
REMARK    4  A    between atoms: C_19  and  C_20
REMARK                            x       y       z     vdW  Elec       q    Type
REMARK                         _______ _______ _______ _____ _____    ______ ____
ROOT
ATOM      1  C   UNL     1       6.064   4.976  15.546  0.00  0.00    +0.000 A 
ATOM      2  C   UNL     1       5.754   3.673  15.936  0.00  0.00    +0.000 A 
ATOM      3  C   UNL     1       4.743   3.419  16.870  0.00  0.00    +0.000 A 
ATOM      4  C   UNL     1       4.054   4.512  17.402  0.00  0.00    +0.000 A 
ATOM      5  N   UNL     1       3.046   4.546  18.341  0.00  0.00    +0.000 N 
ATOM      6  C   UNL     1       2.701   5.840  18.585  0.00  0.00    +0.000 A 
ATOM      7  C   UNL     1       3.442   6.670  17.765  0.00  0.00    +0.000 A 
ATOM      8  C   UNL     1       4.326   5.833  17.024  0.00  0.00    +0.000 A 
ATOM      9  C   UNL     1       5.347   6.058  16.078  0.00  0.00    +0.000 A 
ATOM     10  C   UNL     1       3.309   8.167  17.777  0.00  0.00    +0.000 C 
ATOM     11  N   UNL     1       2.233   8.574  18.708  0.00  0.00    +0.000 N 
ATOM     12  C   UNL     1       1.596   9.790  18.463  0.00  0.00    +0.000 C 
ATOM     13  O   UNL     1       1.957  10.534  17.550  0.00  0.00    +0.000 OA
ATOM     14  C   UNL     1       2.096   7.766  19.938  0.00  0.00    +0.000 C 
ATOM     15  C   UNL     1       1.715   6.314  19.592  0.00  0.00    +0.000 C 
ATOM     16  H   UNL     1       2.656   3.733  18.795  0.00  0.00    +0.000 HD
ENDROOT
BRANCH  12  17
ATOM     17  C   UNL     1       0.484  10.198  19.343  0.00  0.00    +0.000 A 
ATOM     18  C   UNL     1      -0.848  10.251  18.976  0.00  0.00    +0.000 A 
ATOM     19  N   UNL     1      -1.525  10.708  20.070  0.00  0.00    +0.000 N 
ATOM     20  C   UNL     1      -0.618  10.894  21.086  0.00  0.00    +0.000 A 
ATOM     21  N   UNL     1       0.595  10.558  20.677  0.00  0.00    +0.000 NA
ATOM     22  H   UNL     1      -2.520  10.891  20.131  0.00  0.00    +0.000 HD
BRANCH  20  23
ATOM     23  C   UNL     1      -1.046  11.425  22.415  0.00  0.00    +0.000 C 
ATOM     24  F   UNL     1      -2.377  11.711  22.427  0.00  0.00    +0.000 F 
ATOM     25  F   UNL     1      -0.828  10.545  23.424  0.00  0.00    +0.000 F 
ATOM     26  F   UNL     1      -0.401  12.576  22.738  0.00  0.00    +0.000 F 
ENDBRANCH  20  23
ENDBRANCH  12  17
BRANCH   1  28
ATOM     27  C   UNL     1       7.063   4.628  13.415  0.00  0.00    +0.000 C 
ATOM     28  O   UNL     1       7.046   5.326  14.654  0.00  0.00    +0.000 OA
ENDBRANCH   1  28
TORSDOF 3
ENDMDL
