MODEL 1
REMARK VINA RESULT:      -7.7      0.000      0.000
REMARK  Name = 
REMARK  3 active torsions:
REMARK  status: ('A' for Active; 'I' for Inactive)
REMARK    1  A    between atoms: C_2  and  C_3
REMARK    2  A    between atoms: C_3  and  N_4
REMARK    3  A    between atoms: C_6  and  C_7
REMARK                            x       y       z     vdW  Elec       q    Type
REMARK                         _______ _______ _______ _____ _____    ______ ____
ROOT
ATOM      1  N   UNL     1       5.286   4.597  16.038  0.00  0.00    +0.000 N 
ATOM      2  C   UNL     1       4.485   3.753  16.772  0.00  0.00    +0.000 A 
ATOM      3  C   UNL     1       4.897   3.825  18.084  0.00  0.00    +0.000 A 
ATOM      4  C   UNL     1       5.893   4.835  18.179  0.00  0.00    +0.000 A 
ATOM      5  C   UNL     1       6.647   5.369  19.245  0.00  0.00    +0.000 A 
ATOM      6  C   UNL     1       7.600   6.359  18.989  0.00  0.00    +0.000 A 
ATOM      7  C   UNL     1       7.815   6.813  17.692  0.00  0.00    +0.000 A 
ATOM      8  C   UNL     1       7.087   6.295  16.616  0.00  0.00    +0.000 A 
ATOM      9  C   UNL     1       6.124   5.306  16.879  0.00  0.00    +0.000 A 
ENDROOT
BRANCH   3  10
ATOM     10  C   UNL     1       4.424   2.976  19.119  0.00  0.00    +0.000 C 
ATOM     11  C   UNL     1       3.394   3.268  19.924  0.00  0.00    +0.000 C 
ATOM     12  N   UNL     1       2.926   2.466  20.927  0.00  0.00    +0.000 N 
ATOM     13  C   UNL     1       1.848   3.069  21.553  0.00  0.00    +0.000 C 
ATOM     14  O   UNL     1       1.205   2.600  22.474  0.00  0.00    +0.000 OA
ATOM     15  N   UNL     1       1.637   4.274  20.947  0.00  0.00    +0.000 N 
ATOM     16  C   UNL     1       2.518   4.490  19.927  0.00  0.00    +0.000 C 
ATOM     17  O   UNL     1       2.539   5.459  19.190  0.00  0.00    +0.000 OA
ATOM     18  H   UNL     1       3.281   1.560  21.197  0.00  0.00    +0.000 HD
ATOM     19  H   UNL     1       0.899   4.912  21.194  0.00  0.00    +0.000 HD
ENDBRANCH   3  10
BRANCH   1  20
ATOM     20  C   UNL     1       5.217   4.707  14.583  0.00  0.00    +0.000 C 
BRANCH  20  22
ATOM     21  C   UNL     1       6.212   3.550  12.592  0.00  0.00    +0.000 C 
ATOM     22  C   UNL     1       6.281   3.907  13.883  0.00  0.00    +0.000 C 
ENDBRANCH  20  22
ENDBRANCH   1  20
TORSDOF 3
ENDMDL
MODEL 2
REMARK VINA RESULT:      -7.6      2.819      6.344
REMARK  Name = 
REMARK  3 active torsions:
REMARK  status: ('A' for Active; 'I' for Inactive)
REMARK    1  A    between atoms: C_2  and  C_3
REMARK    2  A    between atoms: C_3  and  N_4
REMARK    3  A    between atoms: C_6  and  C_7
REMARK                            x       y       z     vdW  Elec       q    Type
REMARK                         _______ _______ _______ _____ _____    ______ ____
ROOT
ATOM      1  N   UNL     1       2.948   4.545  19.966  0.00  0.00    +0.000 N 
ATOM      2  C   UNL     1       3.671   3.988  18.936  0.00  0.00    +0.000 A 
ATOM      3  C   UNL     1       3.702   4.903  17.908  0.00  0.00    +0.000 A 
ATOM      4  C   UNL     1       3.093   6.103  18.366  0.00  0.00    +0.000 A 
ATOM      5  C   UNL     1       2.864   7.368  17.785  0.00  0.00    +0.000 A 
ATOM      6  C   UNL     1       2.185   8.349  18.512  0.00  0.00    +0.000 A 
ATOM      7  C   UNL     1       1.726   8.084  19.798  0.00  0.00    +0.000 A 
ATOM      8  C   UNL     1       1.932   6.835  20.395  0.00  0.00    +0.000 A 
ATOM      9  C   UNL     1       2.624   5.855  19.663  0.00  0.00    +0.000 A 
ENDROOT
BRANCH   3  10
ATOM     10  C   UNL     1       4.212   4.631  16.611  0.00  0.00    +0.000 C 
ATOM     11  C   UNL     1       5.409   5.040  16.170  0.00  0.00    +0.000 C 
ATOM     12  N   UNL     1       5.916   4.792  14.925  0.00  0.00    +0.000 N 
ATOM     13  C   UNL     1       7.178   5.349  14.806  0.00  0.00    +0.000 C 
ATOM     14  O   UNL     1       7.894   5.289  13.824  0.00  0.00    +0.000 OA
ATOM     15  N   UNL     1       7.470   5.970  15.986  0.00  0.00    +0.000 N 
ATOM     16  C   UNL     1       6.463   5.830  16.896  0.00  0.00    +0.000 C 
ATOM     17  O   UNL     1       6.466   6.245  18.040  0.00  0.00    +0.000 OA
ATOM     18  H   UNL     1       5.471   4.276  14.179  0.00  0.00    +0.000 HD
ATOM     19  H   UNL     1       8.338   6.441  16.180  0.00  0.00    +0.000 HD
ENDBRANCH   3  10
BRANCH   1  20
ATOM     20  C   UNL     1       2.610   3.826  21.192  0.00  0.00    +0.000 C 
BRANCH  20  22
ATOM     21  C   UNL     1       0.654   2.812  19.992  0.00  0.00    +0.000 C 
ATOM     22  C   UNL     1       1.254   3.177  21.135  0.00  0.00    +0.000 C 
ENDBRANCH  20  22
ENDBRANCH   1  20
TORSDOF 3
ENDMDL
MODEL 3
REMARK VINA RESULT:      -7.5      2.079      3.914
REMARK  Name = 
REMARK  3 active torsions:
REMARK  status: ('A' for Active; 'I' for Inactive)
REMARK    1  A    between atoms: C_2  and  C_3
REMARK    2  A    between atoms: C_3  and  N_4
REMARK    3  A    between atoms: C_6  and  C_7
REMARK                            x       y       z     vdW  Elec       q    Type
REMARK                         _______ _______ _______ _____ _____    ______ ____
ROOT
ATOM      1  N   UNL     1       6.594   6.087  17.539  0.00  0.00    +0.000 N 
ATOM      2  C   UNL     1       5.397   5.936  18.199  0.00  0.00    +0.000 A 
ATOM      3  C   UNL     1       4.526   5.302  17.341  0.00  0.00    +0.000 A 
ATOM      4  C   UNL     1       5.247   4.937  16.171  0.00  0.00    +0.000 A 
ATOM      5  C   UNL     1       4.906   4.256  14.983  0.00  0.00    +0.000 A 
ATOM      6  C   UNL     1       5.866   4.090  13.982  0.00  0.00    +0.000 A 
ATOM      7  C   UNL     1       7.150   4.600  14.145  0.00  0.00    +0.000 A 
ATOM      8  C   UNL     1       7.512   5.287  15.308  0.00  0.00    +0.000 A 
ATOM      9  C   UNL     1       6.546   5.443  16.316  0.00  0.00    +0.000 A 
ENDROOT
BRANCH   3  10
ATOM     10  C   UNL     1       3.143   5.116  17.598  0.00  0.00    +0.000 C 
ATOM     11  C   UNL     1       2.596   3.960  17.997  0.00  0.00    +0.000 C 
ATOM     12  N   UNL     1       1.267   3.762  18.246  0.00  0.00    +0.000 N 
ATOM     13  C   UNL     1       1.049   2.455  18.649  0.00  0.00    +0.000 C 
ATOM     14  O   UNL     1      -0.025   1.973  18.956  0.00  0.00    +0.000 OA
ATOM     15  N   UNL     1       2.255   1.813  18.643  0.00  0.00    +0.000 N 
ATOM     16  C   UNL     1       3.271   2.645  18.274  0.00  0.00    +0.000 C 
ATOM     17  O   UNL     1       4.452   2.355  18.219  0.00  0.00    +0.000 OA
ATOM     18  H   UNL     1       0.525   4.443  18.168  0.00  0.00    +0.000 HD
ATOM     19  H   UNL     1       2.387   0.853  18.915  0.00  0.00    +0.000 HD
ENDBRANCH   3  10
BRANCH   1  20
ATOM     20  C   UNL     1       7.733   6.814  18.095  0.00  0.00    +0.000 C 
BRANCH  20  22
ATOM     21  C   UNL     1       8.458   9.212  18.238  0.00  0.00    +0.000 C 
ATOM     22  C   UNL     1       7.836   8.223  17.578  0.00  0.00    +0.000 C 
ENDBRANCH  20  22
ENDBRANCH   1  20
TORSDOF 3
ENDMDL
MODEL 4
REMARK VINA RESULT:      -7.3      2.917      6.857
REMARK  Name = 
REMARK  3 active torsions:
REMARK  status: ('A' for Active; 'I' for Inactive)
REMARK    1  A    between atoms: C_2  and  C_3
REMARK    2  A    between atoms: C_3  and  N_4
REMARK    3  A    between atoms: C_6  and  C_7
REMARK                            x       y       z     vdW  Elec       q    Type
REMARK                         _______ _______ _______ _____ _____    ______ ____
ROOT
ATOM      1  N   UNL     1       2.013   6.399  20.048  0.00  0.00    +0.000 N 
ATOM      2  C   UNL     1       2.685   7.027  19.025  0.00  0.00    +0.000 A 
ATOM      3  C   UNL     1       2.907   6.093  18.038  0.00  0.00    +0.000 A 
ATOM      4  C   UNL     1       2.241   4.893  18.409  0.00  0.00    +0.000 A 
ATOM      5  C   UNL     1       2.088   3.629  17.799  0.00  0.00    +0.000 A 
ATOM      6  C   UNL     1       1.383   2.623  18.464  0.00  0.00    +0.000 A 
ATOM      7  C   UNL     1       0.841   2.855  19.724  0.00  0.00    +0.000 A 
ATOM      8  C   UNL     1       0.986   4.095  20.355  0.00  0.00    +0.000 A 
ATOM      9  C   UNL     1       1.687   5.107  19.678  0.00  0.00    +0.000 A 
ENDROOT
BRANCH   3  10
ATOM     10  C   UNL     1       3.716   6.315  16.893  0.00  0.00    +0.000 C 
ATOM     11  C   UNL     1       4.928   5.776  16.709  0.00  0.00    +0.000 C 
ATOM     12  N   UNL     1       5.723   5.981  15.615  0.00  0.00    +0.000 N 
ATOM     13  C   UNL     1       6.902   5.266  15.745  0.00  0.00    +0.000 C 
ATOM     14  O   UNL     1       7.807   5.231  14.932  0.00  0.00    +0.000 OA
ATOM     15  N   UNL     1       6.860   4.609  16.941  0.00  0.00    +0.000 N 
ATOM     16  C   UNL     1       5.690   4.840  17.605  0.00  0.00    +0.000 C 
ATOM     17  O   UNL     1       5.363   4.355  18.673  0.00  0.00    +0.000 OA
ATOM     18  H   UNL     1       5.514   6.554  14.810  0.00  0.00    +0.000 HD
ATOM     19  H   UNL     1       7.584   3.998  17.279  0.00  0.00    +0.000 HD
ENDBRANCH   3  10
BRANCH   1  20
ATOM     20  C   UNL     1       1.696   7.047  21.318  0.00  0.00    +0.000 C 
BRANCH  20  22
ATOM     21  C   UNL     1      -0.034   8.810  21.760  0.00  0.00    +0.000 C 
ATOM     22  C   UNL     1       1.088   8.413  21.143  0.00  0.00    +0.000 C 
ENDBRANCH  20  22
ENDBRANCH   1  20
TORSDOF 3
ENDMDL
MODEL 5
REMARK VINA RESULT:      -7.2      3.482      5.208
REMARK  Name = 
REMARK  3 active torsions:
REMARK  status: ('A' for Active; 'I' for Inactive)
REMARK    1  A    between atoms: C_2  and  C_3
REMARK    2  A    between atoms: C_3  and  N_4
REMARK    3  A    between atoms: C_6  and  C_7
REMARK                            x       y       z     vdW  Elec       q    Type
REMARK                         _______ _______ _______ _____ _____    ______ ____
ROOT
ATOM      1  N   UNL     1       5.208   5.149  18.147  0.00  0.00    +0.000 N 
ATOM      2  C   UNL     1       4.919   6.482  17.963  0.00  0.00    +0.000 A 
ATOM      3  C   UNL     1       3.565   6.585  17.733  0.00  0.00    +0.000 A 
ATOM      4  C   UNL     1       2.988   5.298  17.909  0.00  0.00    +0.000 A 
ATOM      5  C   UNL     1       1.670   4.798  17.836  0.00  0.00    +0.000 A 
ATOM      6  C   UNL     1       1.438   3.434  18.031  0.00  0.00    +0.000 A 
ATOM      7  C   UNL     1       2.496   2.567  18.285  0.00  0.00    +0.000 A 
ATOM      8  C   UNL     1       3.812   3.035  18.353  0.00  0.00    +0.000 A 
ATOM      9  C   UNL     1       4.040   4.409  18.167  0.00  0.00    +0.000 A 
ENDROOT
BRANCH   3  10
ATOM     10  C   UNL     1       2.911   7.781  17.335  0.00  0.00    +0.000 C 
ATOM     11  C   UNL     1       2.125   8.514  18.134  0.00  0.00    +0.000 C 
ATOM     12  N   UNL     1       1.484   9.665  17.768  0.00  0.00    +0.000 N 
ATOM     13  C   UNL     1       0.766  10.170  18.839  0.00  0.00    +0.000 C 
ATOM     14  O   UNL     1       0.102  11.189  18.835  0.00  0.00    +0.000 OA
ATOM     15  N   UNL     1       0.944   9.322  19.895  0.00  0.00    +0.000 N 
ATOM     16  C   UNL     1       1.770   8.282  19.577  0.00  0.00    +0.000 C 
ATOM     17  O   UNL     1       2.134   7.399  20.331  0.00  0.00    +0.000 OA
ATOM     18  H   UNL     1       1.512  10.115  16.865  0.00  0.00    +0.000 HD
ATOM     19  H   UNL     1       0.547   9.462  20.809  0.00  0.00    +0.000 HD
ENDBRANCH   3  10
BRANCH   1  20
ATOM     20  C   UNL     1       6.566   4.637  18.312  0.00  0.00    +0.000 C 
BRANCH  20  22
ATOM     21  C   UNL     1       6.810   4.264  15.843  0.00  0.00    +0.000 C 
ATOM     22  C   UNL     1       7.343   4.612  17.023  0.00  0.00    +0.000 C 
ENDBRANCH  20  22
ENDBRANCH   1  20
TORSDOF 3
ENDMDL
MODEL 6
REMARK VINA RESULT:      -7.1      1.553      3.611
REMARK  Name = 
REMARK  3 active torsions:
REMARK  status: ('A' for Active; 'I' for Inactive)
REMARK    1  A    between atoms: C_2  and  C_3
REMARK    2  A    between atoms: C_3  and  N_4
REMARK    3  A    between atoms: C_6  and  C_7
REMARK                            x       y       z     vdW  Elec       q    Type
REMARK                         _______ _______ _______ _____ _____    ______ ____
ROOT
ATOM      1  N   UNL     1       6.802   6.247  17.931  0.00  0.00    +0.000 N 
ATOM      2  C   UNL     1       5.769   6.139  18.833  0.00  0.00    +0.000 A 
ATOM      3  C   UNL     1       4.757   5.431  18.223  0.00  0.00    +0.000 A 
ATOM      4  C   UNL     1       5.232   4.983  16.960  0.00  0.00    +0.000 A 
ATOM      5  C   UNL     1       4.671   4.208  15.922  0.00  0.00    +0.000 A 
ATOM      6  C   UNL     1       5.410   3.972  14.760  0.00  0.00    +0.000 A 
ATOM      7  C   UNL     1       6.687   4.504  14.616  0.00  0.00    +0.000 A 
ATOM      8  C   UNL     1       7.263   5.283  15.624  0.00  0.00    +0.000 A 
ATOM      9  C   UNL     1       6.520   5.510  16.795  0.00  0.00    +0.000 A 
ENDROOT
BRANCH   3  10
ATOM     10  C   UNL     1       3.460   5.255  18.773  0.00  0.00    +0.000 C 
ATOM     11  C   UNL     1       3.117   4.252  19.591  0.00  0.00    +0.000 C 
ATOM     12  N   UNL     1       1.873   4.064  20.127  0.00  0.00    +0.000 N 
ATOM     13  C   UNL     1       1.869   2.938  20.934  0.00  0.00    +0.000 C 
ATOM     14  O   UNL     1       0.917   2.515  21.562  0.00  0.00    +0.000 OA
ATOM     15  N   UNL     1       3.123   2.398  20.899  0.00  0.00    +0.000 N 
ATOM     16  C   UNL     1       3.970   3.131  20.118  0.00  0.00    +0.000 C 
ATOM     17  O   UNL     1       5.152   2.908  19.936  0.00  0.00    +0.000 OA
ATOM     18  H   UNL     1       1.057   4.642  19.987  0.00  0.00    +0.000 HD
ATOM     19  H   UNL     1       3.404   1.581  21.414  0.00  0.00    +0.000 HD
ENDBRANCH   3  10
BRANCH   1  20
ATOM     20  C   UNL     1       8.013   7.025  18.185  0.00  0.00    +0.000 C 
BRANCH  20  22
ATOM     21  C   UNL     1       8.517   9.481  18.262  0.00  0.00    +0.000 C 
ATOM     22  C   UNL     1       7.920   8.436  17.671  0.00  0.00    +0.000 C 
ENDBRANCH  20  22
ENDBRANCH   1  20
TORSDOF 3
ENDMDL
MODEL 7
REMARK VINA RESULT:      -7.0      3.310      5.263
REMARK  Name = 
REMARK  3 active torsions:
REMARK  status: ('A' for Active; 'I' for Inactive)
REMARK    1  A    between atoms: C_2  and  C_3
REMARK    2  A    between atoms: C_3  and  N_4
REMARK    3  A    between atoms: C_6  and  C_7
REMARK                            x       y       z     vdW  Elec       q    Type
REMARK                         _______ _______ _______ _____ _____    ______ ____
ROOT
ATOM      1  N   UNL     1       5.194   5.186  17.717  0.00  0.00    +0.000 N 
ATOM      2  C   UNL     1       4.858   6.520  17.736  0.00  0.00    +0.000 A 
ATOM      3  C   UNL     1       3.484   6.603  17.707  0.00  0.00    +0.000 A 
ATOM      4  C   UNL     1       2.960   5.284  17.803  0.00  0.00    +0.000 A 
ATOM      5  C   UNL     1       1.655   4.751  17.849  0.00  0.00    +0.000 A 
ATOM      6  C   UNL     1       1.477   3.366  17.907  0.00  0.00    +0.000 A 
ATOM      7  C   UNL     1       2.575   2.513  17.909  0.00  0.00    +0.000 A 
ATOM      8  C   UNL     1       3.880   3.015  17.854  0.00  0.00    +0.000 A 
ATOM      9  C   UNL     1       4.054   4.408  17.805  0.00  0.00    +0.000 A 
ENDROOT
BRANCH   3  10
ATOM     10  C   UNL     1       2.759   7.813  17.548  0.00  0.00    +0.000 C 
ATOM     11  C   UNL     1       2.036   8.392  18.516  0.00  0.00    +0.000 C 
ATOM     12  N   UNL     1       1.329   9.555  18.381  0.00  0.00    +0.000 N 
ATOM     13  C   UNL     1       0.707   9.873  19.577  0.00  0.00    +0.000 C 
ATOM     14  O   UNL     1       0.017  10.854  19.782  0.00  0.00    +0.000 OA
ATOM     15  N   UNL     1       1.013   8.893  20.478  0.00  0.00    +0.000 N 
ATOM     16  C   UNL     1       1.833   7.945  19.937  0.00  0.00    +0.000 C 
ATOM     17  O   UNL     1       2.296   6.981  20.518  0.00  0.00    +0.000 OA
ATOM     18  H   UNL     1       1.254  10.129  17.554  0.00  0.00    +0.000 HD
ATOM     19  H   UNL     1       0.706   8.887  21.436  0.00  0.00    +0.000 HD
ENDBRANCH   3  10
BRANCH   1  20
ATOM     20  C   UNL     1       6.571   4.705  17.633  0.00  0.00    +0.000 C 
BRANCH  20  22
ATOM     21  C   UNL     1       7.979   5.725  19.441  0.00  0.00    +0.000 C 
ATOM     22  C   UNL     1       7.571   5.696  18.164  0.00  0.00    +0.000 C 
ENDBRANCH  20  22
ENDBRANCH   1  20
TORSDOF 3
ENDMDL
MODEL 8
REMARK VINA RESULT:      -6.9      3.388      5.517
REMARK  Name = 
REMARK  3 active torsions:
REMARK  status: ('A' for Active; 'I' for Inactive)
REMARK    1  A    between atoms: C_2  and  C_3
REMARK    2  A    between atoms: C_3  and  N_4
REMARK    3  A    between atoms: C_6  and  C_7
REMARK                            x       y       z     vdW  Elec       q    Type
REMARK                         _______ _______ _______ _____ _____    ______ ____
ROOT
ATOM      1  N   UNL     1       4.803   5.033  18.496  0.00  0.00    +0.000 N 
ATOM      2  C   UNL     1       4.403   6.150  19.193  0.00  0.00    +0.000 A 
ATOM      3  C   UNL     1       3.048   6.039  19.413  0.00  0.00    +0.000 A 
ATOM      4  C   UNL     1       2.629   4.761  18.952  0.00  0.00    +0.000 A 
ATOM      5  C   UNL     1       1.392   4.083  18.937  0.00  0.00    +0.000 A 
ATOM      6  C   UNL     1       1.307   2.813  18.360  0.00  0.00    +0.000 A 
ATOM      7  C   UNL     1       2.430   2.220  17.793  0.00  0.00    +0.000 A 
ATOM      8  C   UNL     1       3.667   2.873  17.786  0.00  0.00    +0.000 A 
ATOM      9  C   UNL     1       3.749   4.146  18.376  0.00  0.00    +0.000 A 
ENDROOT
BRANCH   3  10
ATOM     10  C   UNL     1       2.239   7.071  19.957  0.00  0.00    +0.000 C 
ATOM     11  C   UNL     1       1.880   8.178  19.293  0.00  0.00    +0.000 C 
ATOM     12  N   UNL     1       1.105   9.183  19.800  0.00  0.00    +0.000 N 
ATOM     13  C   UNL     1       0.922  10.169  18.845  0.00  0.00    +0.000 C 
ATOM     14  O   UNL     1       0.268  11.186  18.986  0.00  0.00    +0.000 OA
ATOM     15  N   UNL     1       1.599   9.790  17.722  0.00  0.00    +0.000 N 
ATOM     16  C   UNL     1       2.210   8.579  17.882  0.00  0.00    +0.000 C 
ATOM     17  O   UNL     1       2.848   7.980  17.036  0.00  0.00    +0.000 OA
ATOM     18  H   UNL     1       0.701   9.233  20.725  0.00  0.00    +0.000 HD
ATOM     19  H   UNL     1       1.617  10.317  16.865  0.00  0.00    +0.000 HD
ENDBRANCH   3  10
BRANCH   1  20
ATOM     20  C   UNL     1       6.160   4.846  17.988  0.00  0.00    +0.000 C 
BRANCH  20  22
ATOM     21  C   UNL     1       7.838   6.669  18.381  0.00  0.00    +0.000 C 
ATOM     22  C   UNL     1       7.195   5.571  18.805  0.00  0.00    +0.000 C 
ENDBRANCH  20  22
ENDBRANCH   1  20
TORSDOF 3
ENDMDL
MODEL 9
REMARK VINA RESULT:      -6.9      3.358      5.223
REMARK  Name = 
REMARK  3 active torsions:
REMARK  status: ('A' for Active; 'I' for Inactive)
REMARK    1  A    between atoms: C_2  and  C_3
REMARK    2  A    between atoms: C_3  and  N_4
REMARK    3  A    between atoms: C_6  and  C_7
REMARK                            x       y       z     vdW  Elec       q    Type
REMARK                         _______ _______ _______ _____ _____    ______ ____
ROOT
ATOM      1  N   UNL     1       4.737   4.926  18.282  0.00  0.00    +0.000 N 
ATOM      2  C   UNL     1       4.394   6.058  18.985  0.00  0.00    +0.000 A 
ATOM      3  C   UNL     1       3.063   5.951  19.320  0.00  0.00    +0.000 A 
ATOM      4  C   UNL     1       2.610   4.663  18.925  0.00  0.00    +0.000 A 
ATOM      5  C   UNL     1       1.377   3.984  19.029  0.00  0.00    +0.000 A 
ATOM      6  C   UNL     1       1.247   2.701  18.489  0.00  0.00    +0.000 A 
ATOM      7  C   UNL     1       2.320   2.096  17.844  0.00  0.00    +0.000 A 
ATOM      8  C   UNL     1       3.550   2.750  17.719  0.00  0.00    +0.000 A 
ATOM      9  C   UNL     1       3.679   4.035  18.271  0.00  0.00    +0.000 A 
ENDROOT
BRANCH   3  10
ATOM     10  C   UNL     1       2.299   6.995  19.906  0.00  0.00    +0.000 C 
ATOM     11  C   UNL     1       1.944   8.120  19.270  0.00  0.00    +0.000 C 
ATOM     12  N   UNL     1       1.213   9.136  19.818  0.00  0.00    +0.000 N 
ATOM     13  C   UNL     1       1.019  10.139  18.883  0.00  0.00    +0.000 C 
ATOM     14  O   UNL     1       0.396  11.169  19.061  0.00  0.00    +0.000 OA
ATOM     15  N   UNL     1       1.645   9.759  17.730  0.00  0.00    +0.000 N 
ATOM     16  C   UNL     1       2.231   8.532  17.853  0.00  0.00    +0.000 C 
ATOM     17  O   UNL     1       2.824   7.929  16.977  0.00  0.00    +0.000 OA
ATOM     18  H   UNL     1       0.844   9.183  20.757  0.00  0.00    +0.000 HD
ATOM     19  H   UNL     1       1.645  10.296  16.880  0.00  0.00    +0.000 HD
ENDBRANCH   3  10
BRANCH   1  20
ATOM     20  C   UNL     1       6.047   4.728  17.667  0.00  0.00    +0.000 C 
BRANCH  20  22
ATOM     21  C   UNL     1       5.769   4.482  15.186  0.00  0.00    +0.000 C 
ATOM     22  C   UNL     1       6.109   5.226  16.248  0.00  0.00    +0.000 C 
ENDBRANCH  20  22
ENDBRANCH   1  20
TORSDOF 3
ENDMDL
