MODEL 1
REMARK VINA RESULT:      -5.9      0.000      0.000
REMARK  Name = 
REMARK  2 active torsions:
REMARK  status: ('A' for Active; 'I' for Inactive)
REMARK    1  A    between atoms: N_1  and  C_2
REMARK    2  A    between atoms: C_2  and  C_3
REMARK                            x       y       z     vdW  Elec       q    Type
REMARK                         _______ _______ _______ _____ _____    ______ ____
ROOT
ATOM      1  C   UNL     1       6.961   5.230  18.221  0.00  0.00    +0.000 A 
ATOM      2  C   UNL     1       7.360   4.519  17.104  0.00  0.00    +0.000 A 
ATOM      3  N   UNL     1       6.263   3.907  16.563  0.00  0.00    +0.000 N 
ATOM      4  C   UNL     1       5.142   4.197  17.304  0.00  0.00    +0.000 A 
ATOM      5  C   UNL     1       3.809   3.806  17.112  0.00  0.00    +0.000 A 
ATOM      6  C   UNL     1       2.866   4.258  18.038  0.00  0.00    +0.000 A 
ATOM      7  C   UNL     1       3.253   5.061  19.104  0.00  0.00    +0.000 A 
ATOM      8  F   UNL     1       2.326   5.476  19.979  0.00  0.00    +0.000 F 
ATOM      9  C   UNL     1       4.580   5.448  19.287  0.00  0.00    +0.000 A 
ATOM     10  C   UNL     1       5.550   5.013  18.362  0.00  0.00    +0.000 A 
ATOM     11  H   UNL     1       6.270   3.335  15.731  0.00  0.00    +0.000 HD
ENDROOT
BRANCH   1  12
ATOM     12  C   UNL     1       7.829   6.067  19.096  0.00  0.00    +0.000 C 
BRANCH  12  13
ATOM     13  N   UNL     1       8.006   5.368  20.361  0.00  0.00    +0.000 NA
ATOM     14  H   UNL     1       8.699   4.633  20.242  0.00  0.00    +0.000 HD
ATOM     15  H   UNL     1       7.131   4.906  20.607  0.00  0.00    +0.000 HD
ENDBRANCH  12  13
ENDBRANCH   1  12
TORSDOF 2
ENDMDL
MODEL 2
REMARK VINA RESULT:      -5.9      2.283      3.664
REMARK  Name = 
REMARK  2 active torsions:
REMARK  status: ('A' for Active; 'I' for Inactive)
REMARK    1  A    between atoms: N_1  and  C_2
REMARK    2  A    between atoms: C_2  and  C_3
REMARK                            x       y       z     vdW  Elec       q    Type
REMARK                         _______ _______ _______ _____ _____    ______ ____
ROOT
ATOM      1  C   UNL     1       4.201   4.718  17.746  0.00  0.00    +0.000 A 
ATOM      2  C   UNL     1       4.752   5.638  18.619  0.00  0.00    +0.000 A 
ATOM      3  N   UNL     1       3.987   5.676  19.752  0.00  0.00    +0.000 N 
ATOM      4  C   UNL     1       2.935   4.797  19.645  0.00  0.00    +0.000 A 
ATOM      5  C   UNL     1       1.918   4.494  20.562  0.00  0.00    +0.000 A 
ATOM      6  C   UNL     1       0.967   3.545  20.178  0.00  0.00    +0.000 A 
ATOM      7  C   UNL     1       1.040   2.941  18.929  0.00  0.00    +0.000 A 
ATOM      8  F   UNL     1       0.110   2.038  18.587  0.00  0.00    +0.000 F 
ATOM      9  C   UNL     1       2.054   3.246  18.024  0.00  0.00    +0.000 A 
ATOM     10  C   UNL     1       3.032   4.193  18.390  0.00  0.00    +0.000 A 
ATOM     11  H   UNL     1       4.173   6.255  20.559  0.00  0.00    +0.000 HD
ENDROOT
BRANCH   1  12
ATOM     12  C   UNL     1       4.730   4.341  16.405  0.00  0.00    +0.000 C 
BRANCH  12  13
ATOM     13  N   UNL     1       6.003   3.659  16.597  0.00  0.00    +0.000 NA
ATOM     14  H   UNL     1       5.828   2.716  16.938  0.00  0.00    +0.000 HD
ATOM     15  H   UNL     1       6.528   4.139  17.326  0.00  0.00    +0.000 HD
ENDBRANCH  12  13
ENDBRANCH   1  12
TORSDOF 2
ENDMDL
MODEL 3
REMARK VINA RESULT:      -5.8      2.187      2.808
REMARK  Name = 
REMARK  2 active torsions:
REMARK  status: ('A' for Active; 'I' for Inactive)
REMARK    1  A    between atoms: N_1  and  C_2
REMARK    2  A    between atoms: C_2  and  C_3
REMARK                            x       y       z     vdW  Elec       q    Type
REMARK                         _______ _______ _______ _____ _____    ______ ____
ROOT
ATOM      1  C   UNL     1       5.818   5.275  16.656  0.00  0.00    +0.000 A 
ATOM      2  C   UNL     1       5.750   6.635  16.898  0.00  0.00    +0.000 A 
ATOM      3  N   UNL     1       4.519   6.924  17.418  0.00  0.00    +0.000 N 
ATOM      4  C   UNL     1       3.766   5.779  17.522  0.00  0.00    +0.000 A 
ATOM      5  C   UNL     1       2.464   5.598  18.011  0.00  0.00    +0.000 A 
ATOM      6  C   UNL     1       1.945   4.301  17.996  0.00  0.00    +0.000 A 
ATOM      7  C   UNL     1       2.703   3.244  17.506  0.00  0.00    +0.000 A 
ATOM      8  F   UNL     1       2.176   2.012  17.499  0.00  0.00    +0.000 F 
ATOM      9  C   UNL     1       3.997   3.431  17.022  0.00  0.00    +0.000 A 
ATOM     10  C   UNL     1       4.548   4.728  17.035  0.00  0.00    +0.000 A 
ATOM     11  H   UNL     1       4.209   7.844  17.698  0.00  0.00    +0.000 HD
ENDROOT
BRANCH   1  12
ATOM     12  C   UNL     1       6.990   4.528  16.117  0.00  0.00    +0.000 C 
BRANCH  12  13
ATOM     13  N   UNL     1       7.895   4.249  17.223  0.00  0.00    +0.000 NA
ATOM     14  H   UNL     1       7.611   4.795  18.033  0.00  0.00    +0.000 HD
ATOM     15  H   UNL     1       8.830   4.567  16.972  0.00  0.00    +0.000 HD
ENDBRANCH  12  13
ENDBRANCH   1  12
TORSDOF 2
ENDMDL
MODEL 4
REMARK VINA RESULT:      -5.7      1.673      2.862
REMARK  Name = 
REMARK  2 active torsions:
REMARK  status: ('A' for Active; 'I' for Inactive)
REMARK    1  A    between atoms: N_1  and  C_2
REMARK    2  A    between atoms: C_2  and  C_3
REMARK                            x       y       z     vdW  Elec       q    Type
REMARK                         _______ _______ _______ _____ _____    ______ ____
ROOT
ATOM      1  C   UNL     1       6.437   4.395  16.353  0.00  0.00    +0.000 A 
ATOM      2  C   UNL     1       7.451   4.489  17.288  0.00  0.00    +0.000 A 
ATOM      3  N   UNL     1       6.900   4.405  18.537  0.00  0.00    +0.000 N 
ATOM      4  C   UNL     1       5.536   4.261  18.447  0.00  0.00    +0.000 A 
ATOM      5  C   UNL     1       4.576   4.120  19.459  0.00  0.00    +0.000 A 
ATOM      6  C   UNL     1       3.242   3.989  19.067  0.00  0.00    +0.000 A 
ATOM      7  C   UNL     1       2.898   4.005  17.721  0.00  0.00    +0.000 A 
ATOM      8  F   UNL     1       1.609   3.882  17.375  0.00  0.00    +0.000 F 
ATOM      9  C   UNL     1       3.858   4.143  16.720  0.00  0.00    +0.000 A 
ATOM     10  C   UNL     1       5.212   4.268  17.088  0.00  0.00    +0.000 A 
ATOM     11  H   UNL     1       7.419   4.432  19.403  0.00  0.00    +0.000 HD
ENDROOT
BRANCH   1  12
ATOM     12  C   UNL     1       6.595   4.411  14.871  0.00  0.00    +0.000 C 
BRANCH  12  13
ATOM     13  N   UNL     1       7.624   5.386  14.536  0.00  0.00    +0.000 NA
ATOM     14  H   UNL     1       7.668   6.091  15.268  0.00  0.00    +0.000 HD
ATOM     15  H   UNL     1       7.353   5.870  13.681  0.00  0.00    +0.000 HD
ENDBRANCH  12  13
ENDBRANCH   1  12
TORSDOF 2
ENDMDL
MODEL 5
REMARK VINA RESULT:      -5.7      2.869      3.975
REMARK  Name = 
REMARK  2 active torsions:
REMARK  status: ('A' for Active; 'I' for Inactive)
REMARK    1  A    between atoms: N_1  and  C_2
REMARK    2  A    between atoms: C_2  and  C_3
REMARK                            x       y       z     vdW  Elec       q    Type
REMARK                         _______ _______ _______ _____ _____    ______ ____
ROOT
ATOM      1  C   UNL     1       3.047   2.993  19.958  0.00  0.00    +0.000 A 
ATOM      2  C   UNL     1       4.279   2.365  19.946  0.00  0.00    +0.000 A 
ATOM      3  N   UNL     1       5.161   3.151  19.257  0.00  0.00    +0.000 N 
ATOM      4  C   UNL     1       4.534   4.289  18.808  0.00  0.00    +0.000 A 
ATOM      5  C   UNL     1       5.046   5.374  18.081  0.00  0.00    +0.000 A 
ATOM      6  C   UNL     1       4.164   6.407  17.759  0.00  0.00    +0.000 A 
ATOM      7  C   UNL     1       2.831   6.343  18.148  0.00  0.00    +0.000 A 
ATOM      8  F   UNL     1       2.007   7.348  17.819  0.00  0.00    +0.000 F 
ATOM      9  C   UNL     1       2.329   5.263  18.872  0.00  0.00    +0.000 A 
ATOM     10  C   UNL     1       3.201   4.212  19.218  0.00  0.00    +0.000 A 
ATOM     11  H   UNL     1       6.137   2.936  19.108  0.00  0.00    +0.000 HD
ENDROOT
BRANCH   1  12
ATOM     12  C   UNL     1       1.809   2.500  20.624  0.00  0.00    +0.000 C 
BRANCH  12  13
ATOM     13  N   UNL     1       1.926   2.766  22.051  0.00  0.00    +0.000 NA
ATOM     14  H   UNL     1       1.757   3.754  22.221  0.00  0.00    +0.000 HD
ATOM     15  H   UNL     1       2.883   2.579  22.344  0.00  0.00    +0.000 HD
ENDBRANCH  12  13
ENDBRANCH   1  12
TORSDOF 2
ENDMDL
MODEL 6
REMARK VINA RESULT:      -5.6      2.874      4.661
REMARK  Name = 
REMARK  2 active torsions:
REMARK  status: ('A' for Active; 'I' for Inactive)
REMARK    1  A    between atoms: N_1  and  C_2
REMARK    2  A    between atoms: C_2  and  C_3
REMARK                            x       y       z     vdW  Elec       q    Type
REMARK                         _______ _______ _______ _____ _____    ______ ____
ROOT
ATOM      1  C   UNL     1       3.882   3.653  17.966  0.00  0.00    +0.000 A 
ATOM      2  C   UNL     1       4.375   3.757  19.254  0.00  0.00    +0.000 A 
ATOM      3  N   UNL     1       5.672   4.187  19.191  0.00  0.00    +0.000 N 
ATOM      4  C   UNL     1       6.050   4.367  17.881  0.00  0.00    +0.000 A 
ATOM      5  C   UNL     1       7.269   4.810  17.348  0.00  0.00    +0.000 A 
ATOM      6  C   UNL     1       7.369   4.898  15.958  0.00  0.00    +0.000 A 
ATOM      7  C   UNL     1       6.294   4.551  15.150  0.00  0.00    +0.000 A 
ATOM      8  F   UNL     1       6.422   4.640  13.819  0.00  0.00    +0.000 F 
ATOM      9  C   UNL     1       5.084   4.113  15.687  0.00  0.00    +0.000 A 
ATOM     10  C   UNL     1       4.953   4.024  17.087  0.00  0.00    +0.000 A 
ATOM     11  H   UNL     1       6.265   4.361  19.990  0.00  0.00    +0.000 HD
ENDROOT
BRANCH   1  12
ATOM     12  C   UNL     1       2.503   3.246  17.576  0.00  0.00    +0.000 C 
BRANCH  12  13
ATOM     13  N   UNL     1       2.365   1.818  17.824  0.00  0.00    +0.000 NA
ATOM     14  H   UNL     1       1.408   1.535  17.625  0.00  0.00    +0.000 HD
ATOM     15  H   UNL     1       2.521   1.639  18.815  0.00  0.00    +0.000 HD
ENDBRANCH  12  13
ENDBRANCH   1  12
TORSDOF 2
ENDMDL
MODEL 7
REMARK VINA RESULT:      -5.6      2.700      4.307
REMARK  Name = 
REMARK  2 active torsions:
REMARK  status: ('A' for Active; 'I' for Inactive)
REMARK    1  A    between atoms: N_1  and  C_2
REMARK    2  A    between atoms: C_2  and  C_3
REMARK                            x       y       z     vdW  Elec       q    Type
REMARK                         _______ _______ _______ _____ _____    ______ ____
ROOT
ATOM      1  C   UNL     1       2.151   2.851  18.343  0.00  0.00    +0.000 A 
ATOM      2  C   UNL     1       3.120   1.901  18.077  0.00  0.00    +0.000 A 
ATOM      3  N   UNL     1       4.263   2.542  17.687  0.00  0.00    +0.000 N 
ATOM      4  C   UNL     1       4.068   3.903  17.685  0.00  0.00    +0.000 A 
ATOM      5  C   UNL     1       4.959   4.940  17.373  0.00  0.00    +0.000 A 
ATOM      6  C   UNL     1       4.479   6.249  17.460  0.00  0.00    +0.000 A 
ATOM      7  C   UNL     1       3.164   6.494  17.836  0.00  0.00    +0.000 A 
ATOM      8  F   UNL     1       2.730   7.760  17.905  0.00  0.00    +0.000 F 
ATOM      9  C   UNL     1       2.284   5.458  18.146  0.00  0.00    +0.000 A 
ATOM     10  C   UNL     1       2.747   4.129  18.076  0.00  0.00    +0.000 A 
ATOM     11  H   UNL     1       5.131   2.085  17.446  0.00  0.00    +0.000 HD
ENDROOT
BRANCH   1  12
ATOM     12  C   UNL     1       0.764   2.593  18.824  0.00  0.00    +0.000 C 
BRANCH  12  13
ATOM     13  N   UNL     1       0.675   3.039  20.208  0.00  0.00    +0.000 NA
ATOM     14  H   UNL     1       1.058   2.319  20.816  0.00  0.00    +0.000 HD
ATOM     15  H   UNL     1      -0.307   3.140  20.459  0.00  0.00    +0.000 HD
ENDBRANCH  12  13
ENDBRANCH   1  12
TORSDOF 2
ENDMDL
MODEL 8
REMARK VINA RESULT:      -5.6      2.198      3.532
REMARK  Name = 
REMARK  2 active torsions:
REMARK  status: ('A' for Active; 'I' for Inactive)
REMARK    1  A    between atoms: N_1  and  C_2
REMARK    2  A    between atoms: C_2  and  C_3
REMARK                            x       y       z     vdW  Elec       q    Type
REMARK                         _______ _______ _______ _____ _____    ______ ____
ROOT
ATOM      1  C   UNL     1       3.830   3.206  17.743  0.00  0.00    +0.000 A 
ATOM      2  C   UNL     1       3.507   1.864  17.668  0.00  0.00    +0.000 A 
ATOM      3  N   UNL     1       2.493   1.611  18.550  0.00  0.00    +0.000 N 
ATOM      4  C   UNL     1       2.139   2.762  19.212  0.00  0.00    +0.000 A 
ATOM      5  C   UNL     1       1.148   2.977  20.181  0.00  0.00    +0.000 A 
ATOM      6  C   UNL     1       1.011   4.272  20.686  0.00  0.00    +0.000 A 
ATOM      7  C   UNL     1       1.837   5.294  20.237  0.00  0.00    +0.000 A 
ATOM      8  F   UNL     1       1.686   6.526  20.744  0.00  0.00    +0.000 F 
ATOM      9  C   UNL     1       2.819   5.075  19.272  0.00  0.00    +0.000 A 
ATOM     10  C   UNL     1       2.972   3.779  18.739  0.00  0.00    +0.000 A 
ATOM     11  H   UNL     1       2.055   0.711  18.688  0.00  0.00    +0.000 HD
ENDROOT
BRANCH   1  12
ATOM     12  C   UNL     1       4.861   3.916  16.934  0.00  0.00    +0.000 C 
BRANCH  12  13
ATOM     13  N   UNL     1       6.072   4.022  17.736  0.00  0.00    +0.000 NA
ATOM     14  H   UNL     1       6.725   3.296  17.453  0.00  0.00    +0.000 HD
ATOM     15  H   UNL     1       5.838   3.840  18.711  0.00  0.00    +0.000 HD
ENDBRANCH  12  13
ENDBRANCH   1  12
TORSDOF 2
ENDMDL
MODEL 9
REMARK VINA RESULT:      -5.6      2.064      2.924
REMARK  Name = 
REMARK  2 active torsions:
REMARK  status: ('A' for Active; 'I' for Inactive)
REMARK    1  A    between atoms: N_1  and  C_2
REMARK    2  A    between atoms: C_2  and  C_3
REMARK                            x       y       z     vdW  Elec       q    Type
REMARK                         _______ _______ _______ _____ _____    ______ ____
ROOT
ATOM      1  C   UNL     1       4.927   5.464  17.622  0.00  0.00    +0.000 A 
ATOM      2  C   UNL     1       6.142   5.072  18.153  0.00  0.00    +0.000 A 
ATOM      3  N   UNL     1       5.957   3.915  18.858  0.00  0.00    +0.000 N 
ATOM      4  C   UNL     1       4.637   3.532  18.806  0.00  0.00    +0.000 A 
ATOM      5  C   UNL     1       4.001   2.413  19.362  0.00  0.00    +0.000 A 
ATOM      6  C   UNL     1       2.628   2.279  19.144  0.00  0.00    +0.000 A 
ATOM      7  C   UNL     1       1.935   3.230  18.406  0.00  0.00    +0.000 A 
ATOM      8  F   UNL     1       0.617   3.077  18.217  0.00  0.00    +0.000 F 
ATOM      9  C   UNL     1       2.575   4.339  17.854  0.00  0.00    +0.000 A 
ATOM     10  C   UNL     1       3.961   4.494  18.051  0.00  0.00    +0.000 A 
ATOM     11  H   UNL     1       6.685   3.404  19.337  0.00  0.00    +0.000 HD
ENDROOT
BRANCH   1  12
ATOM     12  C   UNL     1       4.678   6.655  16.762  0.00  0.00    +0.000 C 
BRANCH  12  13
ATOM     13  N   UNL     1       5.421   6.480  15.521  0.00  0.00    +0.000 NA
ATOM     14  H   UNL     1       5.565   7.389  15.088  0.00  0.00    +0.000 HD
ATOM     15  H   UNL     1       4.855   5.934  14.873  0.00  0.00    +0.000 HD
ENDBRANCH  12  13
ENDBRANCH   1  12
TORSDOF 2
ENDMDL
