MODEL 1
REMARK VINA RESULT:      -7.3      0.000      0.000
REMARK  Name = 
REMARK  10 active torsions:
REMARK  status: ('A' for Active; 'I' for Inactive)
REMARK    1  A    between atoms: C_1  and  C_2
REMARK    2  A    between atoms: C_2  and  C_3
REMARK    3  A    between atoms: C_3  and  C_4
REMARK    4  A    between atoms: C_4  and  C_5
REMARK    5  A    between atoms: C_5  and  C_6
REMARK    6  A    between atoms: C_6  and  C_7
REMARK    7  A    between atoms: C_7  and  C_8
REMARK    8  A    between atoms: C_8  and  C_9
REMARK    9  A    between atoms: C_12  and  C_13
REMARK   10  A    between atoms: C_16  and  C_17
REMARK                            x       y       z     vdW  Elec       q    Type
REMARK                         _______ _______ _______ _____ _____    ______ ____
ROOT
ATOM      1  C   UNL     1       1.182   9.027  19.021  0.00  0.00    +0.000 A 
ATOM      2  N   UNL     1       0.987   9.593  20.218  0.00  0.00    +0.000 NA
ATOM      3  O   UNL     1       0.015  10.549  19.982  0.00  0.00    +0.000 OA
ATOM      4  C   UNL     1      -0.297  10.476  18.654  0.00  0.00    +0.000 A 
ATOM      5  N   UNL     1       0.384   9.554  18.018  0.00  0.00    +0.000 NA
ENDROOT
BRANCH   4   6
ATOM      6  C   UNL     1      -1.325  11.392  18.059  0.00  0.00    +0.000 C 
ATOM      7  C   UNL     1      -2.470  10.718  17.263  0.00  0.00    +0.000 C 
ATOM      8  N   UNL     1      -3.256  11.805  17.759  0.00  0.00    +0.000 N 
ATOM      9  C   UNL     1      -4.608  11.857  17.685  0.00  0.00    +0.000 C 
ATOM     10  N   UNL     1      -5.332  11.363  16.740  0.00  0.00    +0.000 NA
ATOM     11  N   UNL     1      -5.215  12.643  18.599  0.00  0.00    +0.000 N 
ATOM     12  C   UNL     1      -2.493  11.840  18.971  0.00  0.00    +0.000 C 
ATOM     13  H   UNL     1      -4.725  10.877  16.077  0.00  0.00    +0.000 HD
ATOM     14  H   UNL     1      -4.654  13.423  18.914  0.00  0.00    +0.000 HD
ATOM     15  H   UNL     1      -6.110  12.953  18.237  0.00  0.00    +0.000 HD
ENDBRANCH   4   6
BRANCH   1  19
ATOM     16  C   UNL     1       4.118   5.998  18.360  0.00  0.00    +0.000 A 
ATOM     17  C   UNL     1       3.309   5.966  19.500  0.00  0.00    +0.000 A 
ATOM     18  C   UNL     1       2.332   6.938  19.703  0.00  0.00    +0.000 A 
ATOM     19  C   UNL     1       2.163   7.981  18.781  0.00  0.00    +0.000 A 
ATOM     20  C   UNL     1       2.972   8.012  17.640  0.00  0.00    +0.000 A 
ATOM     21  C   UNL     1       3.942   7.029  17.431  0.00  0.00    +0.000 A 
BRANCH  16  22
ATOM     22  C   UNL     1       5.155   4.930  18.134  0.00  0.00    +0.000 C 
BRANCH  22  23
ATOM     23  C   UNL     1       4.641   3.560  18.576  0.00  0.00    +0.000 C 
BRANCH  23  24
ATOM     24  C   UNL     1       3.912   2.848  17.445  0.00  0.00    +0.000 C 
BRANCH  24  25
ATOM     25  C   UNL     1       2.406   3.033  17.595  0.00  0.00    +0.000 C 
BRANCH  25  26
ATOM     26  C   UNL     1       1.892   2.326  18.843  0.00  0.00    +0.000 C 
BRANCH  26  27
ATOM     27  C   UNL     1       0.928   3.224  19.612  0.00  0.00    +0.000 C 
BRANCH  27  29
ATOM     28  C   UNL     1       2.634   2.699  21.377  0.00  0.00    +0.000 C 
ATOM     29  C   UNL     1       1.218   3.178  21.109  0.00  0.00    +0.000 C 
ENDBRANCH  27  29
ENDBRANCH  26  27
ENDBRANCH  25  26
ENDBRANCH  24  25
ENDBRANCH  23  24
ENDBRANCH  22  23
ENDBRANCH  16  22
ENDBRANCH   1  19
TORSDOF 9
ENDMDL
MODEL 2
REMARK VINA RESULT:      -7.1      3.227      4.760
REMARK  Name = 
REMARK  10 active torsions:
REMARK  status: ('A' for Active; 'I' for Inactive)
REMARK    1  A    between atoms: C_1  and  C_2
REMARK    2  A    between atoms: C_2  and  C_3
REMARK    3  A    between atoms: C_3  and  C_4
REMARK    4  A    between atoms: C_4  and  C_5
REMARK    5  A    between atoms: C_5  and  C_6
REMARK    6  A    between atoms: C_6  and  C_7
REMARK    7  A    between atoms: C_7  and  C_8
REMARK    8  A    between atoms: C_8  and  C_9
REMARK    9  A    between atoms: C_12  and  C_13
REMARK   10  A    between atoms: C_16  and  C_17
REMARK                            x       y       z     vdW  Elec       q    Type
REMARK                         _______ _______ _______ _____ _____    ______ ____
ROOT
ATOM      1  C   UNL     1       2.440   7.239  19.489  0.00  0.00    +0.000 A 
ATOM      2  N   UNL     1       1.911   6.828  20.648  0.00  0.00    +0.000 NA
ATOM      3  O   UNL     1       1.021   7.832  20.985  0.00  0.00    +0.000 OA
ATOM      4  C   UNL     1       1.088   8.769  19.993  0.00  0.00    +0.000 A 
ATOM      5  N   UNL     1       1.938   8.452  19.047  0.00  0.00    +0.000 NA
ENDROOT
BRANCH   4   6
ATOM      6  C   UNL     1       0.245  10.008  20.053  0.00  0.00    +0.000 C 
ATOM      7  C   UNL     1       0.706  11.198  19.176  0.00  0.00    +0.000 C 
ATOM      8  N   UNL     1      -0.694  11.467  19.065  0.00  0.00    +0.000 N 
ATOM      9  C   UNL     1      -1.229  12.342  18.179  0.00  0.00    +0.000 C 
ATOM     10  N   UNL     1      -0.675  13.429  17.763  0.00  0.00    +0.000 NA
ATOM     11  N   UNL     1      -2.519  12.125  17.848  0.00  0.00    +0.000 N 
ATOM     12  C   UNL     1      -0.997  10.069  19.131  0.00  0.00    +0.000 C 
ATOM     13  H   UNL     1       0.260  13.501  18.169  0.00  0.00    +0.000 HD
ATOM     14  H   UNL     1      -3.064  11.679  18.572  0.00  0.00    +0.000 HD
ATOM     15  H   UNL     1      -2.942  12.997  17.550  0.00  0.00    +0.000 HD
ENDBRANCH   4   6
BRANCH   1  19
ATOM     16  C   UNL     1       5.527   5.122  17.434  0.00  0.00    +0.000 A 
ATOM     17  C   UNL     1       5.059   4.670  18.671  0.00  0.00    +0.000 A 
ATOM     18  C   UNL     1       4.032   5.343  19.330  0.00  0.00    +0.000 A 
ATOM     19  C   UNL     1       3.472   6.504  18.775  0.00  0.00    +0.000 A 
ATOM     20  C   UNL     1       3.941   6.956  17.538  0.00  0.00    +0.000 A 
ATOM     21  C   UNL     1       4.960   6.271  16.872  0.00  0.00    +0.000 A 
BRANCH  16  22
ATOM     22  C   UNL     1       6.619   4.375  16.715  0.00  0.00    +0.000 C 
BRANCH  22  23
ATOM     23  C   UNL     1       6.080   3.681  15.465  0.00  0.00    +0.000 C 
BRANCH  23  24
ATOM     24  C   UNL     1       6.404   4.473  14.205  0.00  0.00    +0.000 C 
BRANCH  24  25
ATOM     25  C   UNL     1       5.429   4.105  13.091  0.00  0.00    +0.000 C 
BRANCH  25  26
ATOM     26  C   UNL     1       6.013   3.020  12.194  0.00  0.00    +0.000 C 
BRANCH  26  27
ATOM     27  C   UNL     1       4.974   2.540  11.185  0.00  0.00    +0.000 C 
BRANCH  27  29
ATOM     28  C   UNL     1       3.257   3.930   9.993  0.00  0.00    +0.000 C 
ATOM     29  C   UNL     1       3.675   3.328  11.323  0.00  0.00    +0.000 C 
ENDBRANCH  27  29
ENDBRANCH  26  27
ENDBRANCH  25  26
ENDBRANCH  24  25
ENDBRANCH  23  24
ENDBRANCH  22  23
ENDBRANCH  16  22
ENDBRANCH   1  19
TORSDOF 9
ENDMDL
MODEL 3
REMARK VINA RESULT:      -7.1      0.464      1.063
REMARK  Name = 
REMARK  10 active torsions:
REMARK  status: ('A' for Active; 'I' for Inactive)
REMARK    1  A    between atoms: C_1  and  C_2
REMARK    2  A    between atoms: C_2  and  C_3
REMARK    3  A    between atoms: C_3  and  C_4
REMARK    4  A    between atoms: C_4  and  C_5
REMARK    5  A    between atoms: C_5  and  C_6
REMARK    6  A    between atoms: C_6  and  C_7
REMARK    7  A    between atoms: C_7  and  C_8
REMARK    8  A    between atoms: C_8  and  C_9
REMARK    9  A    between atoms: C_12  and  C_13
REMARK   10  A    between atoms: C_16  and  C_17
REMARK                            x       y       z     vdW  Elec       q    Type
REMARK                         _______ _______ _______ _____ _____    ______ ____
ROOT
ATOM      1  C   UNL     1       1.269   8.986  19.076  0.00  0.00    +0.000 A 
ATOM      2  N   UNL     1       1.023   9.536  20.272  0.00  0.00    +0.000 NA
ATOM      3  O   UNL     1       0.053  10.487  20.010  0.00  0.00    +0.000 OA
ATOM      4  C   UNL     1      -0.208  10.428  18.670  0.00  0.00    +0.000 A 
ATOM      5  N   UNL     1       0.505   9.520  18.050  0.00  0.00    +0.000 NA
ENDROOT
BRANCH   4   6
ATOM      6  C   UNL     1      -1.220  11.343  18.048  0.00  0.00    +0.000 C 
ATOM      7  C   UNL     1      -2.344  10.667  17.225  0.00  0.00    +0.000 C 
ATOM      8  N   UNL     1      -3.143  11.756  17.699  0.00  0.00    +0.000 N 
ATOM      9  C   UNL     1      -4.492  11.808  17.591  0.00  0.00    +0.000 C 
ATOM     10  N   UNL     1      -5.192  11.312  16.629  0.00  0.00    +0.000 NA
ATOM     11  N   UNL     1      -5.122  12.596  18.488  0.00  0.00    +0.000 N 
ATOM     12  C   UNL     1      -2.410  11.793  18.930  0.00  0.00    +0.000 C 
ATOM     13  H   UNL     1      -4.569  10.825  15.983  0.00  0.00    +0.000 HD
ATOM     14  H   UNL     1      -4.569  13.376  18.815  0.00  0.00    +0.000 HD
ATOM     15  H   UNL     1      -6.008  12.904  18.102  0.00  0.00    +0.000 HD
ENDBRANCH   4   6
BRANCH   1  19
ATOM     16  C   UNL     1       4.145   5.904  18.401  0.00  0.00    +0.000 A 
ATOM     17  C   UNL     1       3.963   6.922  17.461  0.00  0.00    +0.000 A 
ATOM     18  C   UNL     1       3.045   7.944  17.693  0.00  0.00    +0.000 A 
ATOM     19  C   UNL     1       2.267   7.951  18.861  0.00  0.00    +0.000 A 
ATOM     20  C   UNL     1       2.450   6.932  19.801  0.00  0.00    +0.000 A 
ATOM     21  C   UNL     1       3.382   5.917  19.574  0.00  0.00    +0.000 A 
BRANCH  16  22
ATOM     22  C   UNL     1       5.158   4.816  18.157  0.00  0.00    +0.000 C 
BRANCH  22  23
ATOM     23  C   UNL     1       4.612   3.763  17.193  0.00  0.00    +0.000 C 
BRANCH  23  24
ATOM     24  C   UNL     1       3.602   2.852  17.878  0.00  0.00    +0.000 C 
BRANCH  24  25
ATOM     25  C   UNL     1       2.205   3.109  17.324  0.00  0.00    +0.000 C 
BRANCH  25  26
ATOM     26  C   UNL     1       1.136   2.623  18.296  0.00  0.00    +0.000 C 
BRANCH  26  27
ATOM     27  C   UNL     1       1.755   2.275  19.647  0.00  0.00    +0.000 C 
BRANCH  27  29
ATOM     28  C   UNL     1       2.241   3.289  21.891  0.00  0.00    +0.000 C 
ATOM     29  C   UNL     1       1.259   3.223  20.734  0.00  0.00    +0.000 C 
ENDBRANCH  27  29
ENDBRANCH  26  27
ENDBRANCH  25  26
ENDBRANCH  24  25
ENDBRANCH  23  24
ENDBRANCH  22  23
ENDBRANCH  16  22
ENDBRANCH   1  19
TORSDOF 9
ENDMDL
MODEL 4
REMARK VINA RESULT:      -6.9      3.013      3.711
REMARK  Name = 
REMARK  10 active torsions:
REMARK  status: ('A' for Active; 'I' for Inactive)
REMARK    1  A    between atoms: C_1  and  C_2
REMARK    2  A    between atoms: C_2  and  C_3
REMARK    3  A    between atoms: C_3  and  C_4
REMARK    4  A    between atoms: C_4  and  C_5
REMARK    5  A    between atoms: C_5  and  C_6
REMARK    6  A    between atoms: C_6  and  C_7
REMARK    7  A    between atoms: C_7  and  C_8
REMARK    8  A    between atoms: C_8  and  C_9
REMARK    9  A    between atoms: C_12  and  C_13
REMARK   10  A    between atoms: C_16  and  C_17
REMARK                            x       y       z     vdW  Elec       q    Type
REMARK                         _______ _______ _______ _____ _____    ______ ____
ROOT
ATOM      1  C   UNL     1       0.058  10.561  20.064  0.00  0.00    +0.000 A 
ATOM      2  N   UNL     1      -0.775  11.305  19.326  0.00  0.00    +0.000 NA
ATOM      3  O   UNL     1      -1.422  12.102  20.253  0.00  0.00    +0.000 OA
ATOM      4  C   UNL     1      -0.920  11.770  21.480  0.00  0.00    +0.000 A 
ATOM      5  N   UNL     1      -0.004  10.834  21.421  0.00  0.00    +0.000 NA
ENDROOT
BRANCH   4   6
ATOM      6  C   UNL     1      -1.418  12.451  22.720  0.00  0.00    +0.000 C 
ATOM      7  C   UNL     1      -2.488  13.552  22.518  0.00  0.00    +0.000 C 
ATOM      8  N   UNL     1      -2.977  13.102  23.785  0.00  0.00    +0.000 N 
ATOM      9  C   UNL     1      -4.178  13.457  24.302  0.00  0.00    +0.000 C 
ATOM     10  N   UNL     1      -4.768  14.590  24.132  0.00  0.00    +0.000 NA
ATOM     11  N   UNL     1      -4.702  12.602  25.206  0.00  0.00    +0.000 N 
ATOM     12  C   UNL     1      -2.564  11.760  23.500  0.00  0.00    +0.000 C 
ATOM     13  H   UNL     1      -4.208  15.163  23.497  0.00  0.00    +0.000 HD
ATOM     14  H   UNL     1      -4.014  12.080  25.730  0.00  0.00    +0.000 HD
ATOM     15  H   UNL     1      -5.332  13.107  25.821  0.00  0.00    +0.000 HD
ENDBRANCH   4   6
BRANCH   1  19
ATOM     16  C   UNL     1       2.662   7.586  18.450  0.00  0.00    +0.000 A 
ATOM     17  C   UNL     1       2.208   7.492  19.769  0.00  0.00    +0.000 A 
ATOM     18  C   UNL     1       1.336   8.447  20.288  0.00  0.00    +0.000 A 
ATOM     19  C   UNL     1       0.922   9.534  19.504  0.00  0.00    +0.000 A 
ATOM     20  C   UNL     1       1.377   9.628  18.185  0.00  0.00    +0.000 A 
ATOM     21  C   UNL     1       2.240   8.662  17.662  0.00  0.00    +0.000 A 
BRANCH  16  22
ATOM     22  C   UNL     1       3.584   6.537  17.887  0.00  0.00    +0.000 C 
BRANCH  22  23
ATOM     23  C   UNL     1       2.853   5.209  17.693  0.00  0.00    +0.000 C 
BRANCH  23  24
ATOM     24  C   UNL     1       3.832   4.055  17.522  0.00  0.00    +0.000 C 
BRANCH  24  25
ATOM     25  C   UNL     1       3.120   2.726  17.750  0.00  0.00    +0.000 C 
BRANCH  25  26
ATOM     26  C   UNL     1       1.693   2.950  18.234  0.00  0.00    +0.000 C 
BRANCH  26  27
ATOM     27  C   UNL     1       1.484   2.319  19.608  0.00  0.00    +0.000 C 
BRANCH  27  29
ATOM     28  C   UNL     1       2.177   4.084  21.253  0.00  0.00    +0.000 C 
ATOM     29  C   UNL     1       1.005   3.358  20.617  0.00  0.00    +0.000 C 
ENDBRANCH  27  29
ENDBRANCH  26  27
ENDBRANCH  25  26
ENDBRANCH  24  25
ENDBRANCH  23  24
ENDBRANCH  22  23
ENDBRANCH  16  22
ENDBRANCH   1  19
TORSDOF 9
ENDMDL
MODEL 5
REMARK VINA RESULT:      -6.9      3.125      3.956
REMARK  Name = 
REMARK  10 active torsions:
REMARK  status: ('A' for Active; 'I' for Inactive)
REMARK    1  A    between atoms: C_1  and  C_2
REMARK    2  A    between atoms: C_2  and  C_3
REMARK    3  A    between atoms: C_3  and  C_4
REMARK    4  A    between atoms: C_4  and  C_5
REMARK    5  A    between atoms: C_5  and  C_6
REMARK    6  A    between atoms: C_6  and  C_7
REMARK    7  A    between atoms: C_7  and  C_8
REMARK    8  A    between atoms: C_8  and  C_9
REMARK    9  A    between atoms: C_12  and  C_13
REMARK   10  A    between atoms: C_16  and  C_17
REMARK                            x       y       z     vdW  Elec       q    Type
REMARK                         _______ _______ _______ _____ _____    ______ ____
ROOT
ATOM      1  C   UNL     1       0.224  10.215  21.303  0.00  0.00    +0.000 A 
ATOM      2  N   UNL     1       0.326  10.129  22.635  0.00  0.00    +0.000 NA
ATOM      3  O   UNL     1      -0.512  11.127  23.100  0.00  0.00    +0.000 OA
ATOM      4  C   UNL     1      -1.054  11.733  22.002  0.00  0.00    +0.000 A 
ATOM      5  N   UNL     1      -0.642  11.208  20.873  0.00  0.00    +0.000 NA
ENDROOT
BRANCH   4   6
ATOM      6  C   UNL     1      -2.014  12.875  22.154  0.00  0.00    +0.000 C 
ATOM      7  C   UNL     1      -3.430  12.519  22.672  0.00  0.00    +0.000 C 
ATOM      8  N   UNL     1      -3.368  13.810  23.286  0.00  0.00    +0.000 N 
ATOM      9  C   UNL     1      -4.245  14.245  24.223  0.00  0.00    +0.000 C 
ATOM     10  N   UNL     1      -5.493  13.934  24.291  0.00  0.00    +0.000 NA
ATOM     11  N   UNL     1      -3.791  15.217  25.043  0.00  0.00    +0.000 N 
ATOM     12  C   UNL     1      -1.953  13.684  23.472  0.00  0.00    +0.000 C 
ATOM     13  H   UNL     1      -5.708  13.261  23.552  0.00  0.00    +0.000 HD
ATOM     14  H   UNL     1      -3.092  15.817  24.628  0.00  0.00    +0.000 HD
ATOM     15  H   UNL     1      -4.576  15.752  25.397  0.00  0.00    +0.000 HD
ENDBRANCH   4   6
BRANCH   1  19
ATOM     16  C   UNL     1       2.362   7.708  18.588  0.00  0.00    +0.000 A 
ATOM     17  C   UNL     1       1.834   8.929  18.160  0.00  0.00    +0.000 A 
ATOM     18  C   UNL     1       1.161   9.762  19.051  0.00  0.00    +0.000 A 
ATOM     19  C   UNL     1       0.976   9.373  20.387  0.00  0.00    +0.000 A 
ATOM     20  C   UNL     1       1.505   8.151  20.814  0.00  0.00    +0.000 A 
ATOM     21  C   UNL     1       2.192   7.325  19.922  0.00  0.00    +0.000 A 
BRANCH  16  22
ATOM     22  C   UNL     1       3.111   6.825  17.625  0.00  0.00    +0.000 C 
BRANCH  22  23
ATOM     23  C   UNL     1       3.679   5.595  18.335  0.00  0.00    +0.000 C 
BRANCH  23  24
ATOM     24  C   UNL     1       3.750   4.396  17.398  0.00  0.00    +0.000 C 
BRANCH  24  25
ATOM     25  C   UNL     1       3.606   3.103  18.193  0.00  0.00    +0.000 C 
BRANCH  25  26
ATOM     26  C   UNL     1       2.426   2.282  17.687  0.00  0.00    +0.000 C 
BRANCH  26  27
ATOM     27  C   UNL     1       1.330   2.206  18.746  0.00  0.00    +0.000 C 
BRANCH  27  29
ATOM     28  C   UNL     1       1.033   3.894  20.579  0.00  0.00    +0.000 C 
ATOM     29  C   UNL     1       1.841   2.703  20.094  0.00  0.00    +0.000 C 
ENDBRANCH  27  29
ENDBRANCH  26  27
ENDBRANCH  25  26
ENDBRANCH  24  25
ENDBRANCH  23  24
ENDBRANCH  22  23
ENDBRANCH  16  22
ENDBRANCH   1  19
TORSDOF 9
ENDMDL
MODEL 6
REMARK VINA RESULT:      -6.9      1.302      1.893
REMARK  Name = 
REMARK  10 active torsions:
REMARK  status: ('A' for Active; 'I' for Inactive)
REMARK    1  A    between atoms: C_1  and  C_2
REMARK    2  A    between atoms: C_2  and  C_3
REMARK    3  A    between atoms: C_3  and  C_4
REMARK    4  A    between atoms: C_4  and  C_5
REMARK    5  A    between atoms: C_5  and  C_6
REMARK    6  A    between atoms: C_6  and  C_7
REMARK    7  A    between atoms: C_7  and  C_8
REMARK    8  A    between atoms: C_8  and  C_9
REMARK    9  A    between atoms: C_12  and  C_13
REMARK   10  A    between atoms: C_16  and  C_17
REMARK                            x       y       z     vdW  Elec       q    Type
REMARK                         _______ _______ _______ _____ _____    ______ ____
ROOT
ATOM      1  C   UNL     1       0.428  10.481  18.743  0.00  0.00    +0.000 A 
ATOM      2  N   UNL     1       0.845  11.744  18.894  0.00  0.00    +0.000 NA
ATOM      3  O   UNL     1      -0.311  12.494  18.776  0.00  0.00    +0.000 OA
ATOM      4  C   UNL     1      -1.334  11.615  18.564  0.00  0.00    +0.000 A 
ATOM      5  N   UNL     1      -0.938  10.366  18.542  0.00  0.00    +0.000 NA
ENDROOT
BRANCH   4   6
ATOM      6  C   UNL     1      -2.740  12.106  18.384  0.00  0.00    +0.000 C 
ATOM      7  C   UNL     1      -3.788  11.050  17.954  0.00  0.00    +0.000 C 
ATOM      8  N   UNL     1      -4.687  11.839  18.740  0.00  0.00    +0.000 N 
ATOM      9  C   UNL     1      -5.928  11.435  19.103  0.00  0.00    +0.000 C 
ATOM     10  N   UNL     1      -6.710  10.682  18.409  0.00  0.00    +0.000 NA
ATOM     11  N   UNL     1      -6.434  12.021  20.209  0.00  0.00    +0.000 N 
ATOM     12  C   UNL     1      -3.633  12.187  19.646  0.00  0.00    +0.000 C 
ATOM     13  H   UNL     1      -6.222  10.392  17.559  0.00  0.00    +0.000 HD
ATOM     14  H   UNL     1      -6.093  12.957  20.375  0.00  0.00    +0.000 HD
ATOM     15  H   UNL     1      -7.447  11.997  20.169  0.00  0.00    +0.000 HD
ENDBRANCH   4   6
BRANCH   1  19
ATOM     16  C   UNL     1       3.000   7.073  18.733  0.00  0.00    +0.000 A 
ATOM     17  C   UNL     1       2.945   7.923  17.626  0.00  0.00    +0.000 A 
ATOM     18  C   UNL     1       2.127   9.051  17.638  0.00  0.00    +0.000 A 
ATOM     19  C   UNL     1       1.324   9.336  18.752  0.00  0.00    +0.000 A 
ATOM     20  C   UNL     1       1.380   8.485  19.861  0.00  0.00    +0.000 A 
ATOM     21  C   UNL     1       2.211   7.362  19.852  0.00  0.00    +0.000 A 
BRANCH  16  22
ATOM     22  C   UNL     1       3.905   5.869  18.724  0.00  0.00    +0.000 C 
BRANCH  22  23
ATOM     23  C   UNL     1       3.770   5.089  17.417  0.00  0.00    +0.000 C 
BRANCH  23  24
ATOM     24  C   UNL     1       3.182   3.704  17.653  0.00  0.00    +0.000 C 
BRANCH  24  25
ATOM     25  C   UNL     1       1.668   3.798  17.811  0.00  0.00    +0.000 C 
BRANCH  25  26
ATOM     26  C   UNL     1       1.183   2.901  18.942  0.00  0.00    +0.000 C 
BRANCH  26  27
ATOM     27  C   UNL     1       0.701   3.737  20.124  0.00  0.00    +0.000 C 
BRANCH  27  29
ATOM     28  C   UNL     1       2.380   2.619  21.618  0.00  0.00    +0.000 C 
ATOM     29  C   UNL     1       1.823   3.947  21.136  0.00  0.00    +0.000 C 
ENDBRANCH  27  29
ENDBRANCH  26  27
ENDBRANCH  25  26
ENDBRANCH  24  25
ENDBRANCH  23  24
ENDBRANCH  22  23
ENDBRANCH  16  22
ENDBRANCH   1  19
TORSDOF 9
ENDMDL
MODEL 7
REMARK VINA RESULT:      -6.8      3.679      9.096
REMARK  Name = 
REMARK  10 active torsions:
REMARK  status: ('A' for Active; 'I' for Inactive)
REMARK    1  A    between atoms: C_1  and  C_2
REMARK    2  A    between atoms: C_2  and  C_3
REMARK    3  A    between atoms: C_3  and  C_4
REMARK    4  A    between atoms: C_4  and  C_5
REMARK    5  A    between atoms: C_5  and  C_6
REMARK    6  A    between atoms: C_6  and  C_7
REMARK    7  A    between atoms: C_7  and  C_8
REMARK    8  A    between atoms: C_8  and  C_9
REMARK    9  A    between atoms: C_12  and  C_13
REMARK   10  A    between atoms: C_16  and  C_17
REMARK                            x       y       z     vdW  Elec       q    Type
REMARK                         _______ _______ _______ _____ _____    ______ ____
ROOT
ATOM      1  C   UNL     1       1.896   8.210  19.306  0.00  0.00    +0.000 A 
ATOM      2  N   UNL     1       2.312   8.746  18.152  0.00  0.00    +0.000 NA
ATOM      3  O   UNL     1       3.095   7.757  17.586  0.00  0.00    +0.000 OA
ATOM      4  C   UNL     1       3.084   6.699  18.451  0.00  0.00    +0.000 A 
ATOM      5  N   UNL     1       2.358   6.921  19.520  0.00  0.00    +0.000 NA
ENDROOT
BRANCH   4   6
ATOM      6  C   UNL     1       3.849   5.448  18.139  0.00  0.00    +0.000 C 
ATOM      7  C   UNL     1       4.435   4.679  19.349  0.00  0.00    +0.000 C 
ATOM      8  N   UNL     1       4.186   3.522  18.546  0.00  0.00    +0.000 N 
ATOM      9  C   UNL     1       4.235   2.251  19.013  0.00  0.00    +0.000 C 
ATOM     10  N   UNL     1       5.019   1.817  19.939  0.00  0.00    +0.000 NA
ATOM     11  N   UNL     1       3.514   1.344  18.321  0.00  0.00    +0.000 N 
ATOM     12  C   UNL     1       3.037   4.143  17.957  0.00  0.00    +0.000 C 
ATOM     13  H   UNL     1       5.565   2.600  20.305  0.00  0.00    +0.000 HD
ATOM     14  H   UNL     1       3.406   1.562  17.340  0.00  0.00    +0.000 HD
ATOM     15  H   UNL     1       3.915   0.422  18.454  0.00  0.00    +0.000 HD
ENDBRANCH   4   6
BRANCH   1  19
ATOM     16  C   UNL     1      -0.471  10.302  22.178  0.00  0.00    +0.000 A 
ATOM     17  C   UNL     1       0.302  11.004  21.250  0.00  0.00    +0.000 A 
ATOM     18  C   UNL     1       1.054  10.323  20.294  0.00  0.00    +0.000 A 
ATOM     19  C   UNL     1       1.068   8.921  20.267  0.00  0.00    +0.000 A 
ATOM     20  C   UNL     1       0.294   8.218  21.196  0.00  0.00    +0.000 A 
ATOM     21  C   UNL     1      -0.470   8.903  22.145  0.00  0.00    +0.000 A 
BRANCH  16  22
ATOM     22  C   UNL     1      -1.301  11.043  23.193  0.00  0.00    +0.000 C 
BRANCH  22  23
ATOM     23  C   UNL     1      -1.605  12.465  22.722  0.00  0.00    +0.000 C 
BRANCH  23  24
ATOM     24  C   UNL     1      -3.075  12.627  22.355  0.00  0.00    +0.000 C 
BRANCH  24  25
ATOM     25  C   UNL     1      -3.224  12.773  20.844  0.00  0.00    +0.000 C 
BRANCH  25  26
ATOM     26  C   UNL     1      -1.963  13.367  20.228  0.00  0.00    +0.000 C 
BRANCH  26  27
ATOM     27  C   UNL     1      -1.617  12.657  18.922  0.00  0.00    +0.000 C 
BRANCH  27  29
ATOM     28  C   UNL     1      -1.724  10.329  17.991  0.00  0.00    +0.000 C 
ATOM     29  C   UNL     1      -2.483  11.416  18.731  0.00  0.00    +0.000 C 
ENDBRANCH  27  29
ENDBRANCH  26  27
ENDBRANCH  25  26
ENDBRANCH  24  25
ENDBRANCH  23  24
ENDBRANCH  22  23
ENDBRANCH  16  22
ENDBRANCH   1  19
TORSDOF 9
ENDMDL
MODEL 8
REMARK VINA RESULT:      -6.8      4.323      9.155
REMARK  Name = 
REMARK  10 active torsions:
REMARK  status: ('A' for Active; 'I' for Inactive)
REMARK    1  A    between atoms: C_1  and  C_2
REMARK    2  A    between atoms: C_2  and  C_3
REMARK    3  A    between atoms: C_3  and  C_4
REMARK    4  A    between atoms: C_4  and  C_5
REMARK    5  A    between atoms: C_5  and  C_6
REMARK    6  A    between atoms: C_6  and  C_7
REMARK    7  A    between atoms: C_7  and  C_8
REMARK    8  A    between atoms: C_8  and  C_9
REMARK    9  A    between atoms: C_12  and  C_13
REMARK   10  A    between atoms: C_16  and  C_17
REMARK                            x       y       z     vdW  Elec       q    Type
REMARK                         _______ _______ _______ _____ _____    ______ ____
ROOT
ATOM      1  C   UNL     1       2.822   6.710  19.153  0.00  0.00    +0.000 A 
ATOM      2  N   UNL     1       2.651   5.584  19.857  0.00  0.00    +0.000 NA
ATOM      3  O   UNL     1       3.588   4.714  19.329  0.00  0.00    +0.000 OA
ATOM      4  C   UNL     1       4.251   5.393  18.347  0.00  0.00    +0.000 A 
ATOM      5  N   UNL     1       3.826   6.625  18.202  0.00  0.00    +0.000 NA
ENDROOT
BRANCH   4   6
ATOM      6  C   UNL     1       5.341   4.729  17.560  0.00  0.00    +0.000 C 
ATOM      7  C   UNL     1       4.925   4.089  16.212  0.00  0.00    +0.000 C 
ATOM      8  N   UNL     1       6.239   4.470  15.795  0.00  0.00    +0.000 N 
ATOM      9  C   UNL     1       6.659   4.455  14.507  0.00  0.00    +0.000 C 
ATOM     10  N   UNL     1       6.279   3.623  13.600  0.00  0.00    +0.000 NA
ATOM     11  N   UNL     1       7.685   5.282  14.215  0.00  0.00    +0.000 N 
ATOM     12  C   UNL     1       6.202   5.627  16.639  0.00  0.00    +0.000 C 
ATOM     13  H   UNL     1       5.568   3.004  13.994  0.00  0.00    +0.000 HD
ATOM     14  H   UNL     1       8.308   5.459  14.991  0.00  0.00    +0.000 HD
ATOM     15  H   UNL     1       8.188   4.924  13.410  0.00  0.00    +0.000 HD
ENDBRANCH   4   6
BRANCH   1  19
ATOM     16  C   UNL     1       0.505  10.251  19.723  0.00  0.00    +0.000 A 
ATOM     17  C   UNL     1       1.144  10.009  18.504  0.00  0.00    +0.000 A 
ATOM     18  C   UNL     1       1.877   8.841  18.307  0.00  0.00    +0.000 A 
ATOM     19  C   UNL     1       2.010   7.902  19.340  0.00  0.00    +0.000 A 
ATOM     20  C   UNL     1       1.371   8.143  20.560  0.00  0.00    +0.000 A 
ATOM     21  C   UNL     1       0.625   9.308  20.751  0.00  0.00    +0.000 A 
BRANCH  16  22
ATOM     22  C   UNL     1      -0.307  11.503  19.922  0.00  0.00    +0.000 C 
BRANCH  22  23
ATOM     23  C   UNL     1      -1.090  11.858  18.658  0.00  0.00    +0.000 C 
BRANCH  23  24
ATOM     24  C   UNL     1      -2.135  10.799  18.336  0.00  0.00    +0.000 C 
BRANCH  24  25
ATOM     25  C   UNL     1      -3.495  11.454  18.120  0.00  0.00    +0.000 C 
BRANCH  25  26
ATOM     26  C   UNL     1      -4.005  11.197  16.707  0.00  0.00    +0.000 C 
BRANCH  26  27
ATOM     27  C   UNL     1      -2.839  11.019  15.738  0.00  0.00    +0.000 C 
BRANCH  27  29
ATOM     28  C   UNL     1      -3.852   9.985  13.688  0.00  0.00    +0.000 C 
ATOM     29  C   UNL     1      -3.000   9.741  14.921  0.00  0.00    +0.000 C 
ENDBRANCH  27  29
ENDBRANCH  26  27
ENDBRANCH  25  26
ENDBRANCH  24  25
ENDBRANCH  23  24
ENDBRANCH  22  23
ENDBRANCH  16  22
ENDBRANCH   1  19
TORSDOF 9
ENDMDL
MODEL 9
REMARK VINA RESULT:      -6.8      4.510      9.248
REMARK  Name = 
REMARK  10 active torsions:
REMARK  status: ('A' for Active; 'I' for Inactive)
REMARK    1  A    between atoms: C_1  and  C_2
REMARK    2  A    between atoms: C_2  and  C_3
REMARK    3  A    between atoms: C_3  and  C_4
REMARK    4  A    between atoms: C_4  and  C_5
REMARK    5  A    between atoms: C_5  and  C_6
REMARK    6  A    between atoms: C_6  and  C_7
REMARK    7  A    between atoms: C_7  and  C_8
REMARK    8  A    between atoms: C_8  and  C_9
REMARK    9  A    between atoms: C_12  and  C_13
REMARK   10  A    between atoms: C_16  and  C_17
REMARK                            x       y       z     vdW  Elec       q    Type
REMARK                         _______ _______ _______ _____ _____    ______ ____
ROOT
ATOM      1  C   UNL     1       3.219   6.397  19.091  0.00  0.00    +0.000 A 
ATOM      2  N   UNL     1       3.242   5.296  19.853  0.00  0.00    +0.000 NA
ATOM      3  O   UNL     1       4.197   4.495  19.255  0.00  0.00    +0.000 OA
ATOM      4  C   UNL     1       4.674   5.184  18.176  0.00  0.00    +0.000 A 
ATOM      5  N   UNL     1       4.113   6.361  18.033  0.00  0.00    +0.000 NA
ENDROOT
BRANCH   4   6
ATOM      6  C   UNL     1       5.730   4.589  17.293  0.00  0.00    +0.000 C 
ATOM      7  C   UNL     1       5.242   3.960  15.965  0.00  0.00    +0.000 C 
ATOM      8  N   UNL     1       6.504   4.410  15.461  0.00  0.00    +0.000 N 
ATOM      9  C   UNL     1       6.825   4.443  14.145  0.00  0.00    +0.000 C 
ATOM     10  N   UNL     1       6.416   3.614  13.248  0.00  0.00    +0.000 NA
ATOM     11  N   UNL     1       7.789   5.322  13.800  0.00  0.00    +0.000 N 
ATOM     12  C   UNL     1       6.479   5.546  16.334  0.00  0.00    +0.000 C 
ATOM     13  H   UNL     1       5.765   2.955  13.677  0.00  0.00    +0.000 HD
ATOM     14  H   UNL     1       8.460   5.511  14.531  0.00  0.00    +0.000 HD
ATOM     15  H   UNL     1       8.245   5.006  12.951  0.00  0.00    +0.000 HD
ENDBRANCH   4   6
BRANCH   1  19
ATOM     16  C   UNL     1       0.636   9.723  19.793  0.00  0.00    +0.000 A 
ATOM     17  C   UNL     1       1.201   9.517  18.532  0.00  0.00    +0.000 A 
ATOM     18  C   UNL     1       2.021   8.417  18.293  0.00  0.00    +0.000 A 
ATOM     19  C   UNL     1       2.317   7.513  19.325  0.00  0.00    +0.000 A 
ATOM     20  C   UNL     1       1.751   7.719  20.587  0.00  0.00    +0.000 A 
ATOM     21  C   UNL     1       0.918   8.815  20.820  0.00  0.00    +0.000 A 
BRANCH  16  22
ATOM     22  C   UNL     1      -0.271  10.900  20.038  0.00  0.00    +0.000 C 
BRANCH  22  23
ATOM     23  C   UNL     1      -0.629  11.601  18.727  0.00  0.00    +0.000 C 
BRANCH  23  24
ATOM     24  C   UNL     1      -2.085  11.365  18.350  0.00  0.00    +0.000 C 
BRANCH  24  25
ATOM     25  C   UNL     1      -2.178  10.300  17.263  0.00  0.00    +0.000 C 
BRANCH  25  26
ATOM     26  C   UNL     1      -3.521  10.370  16.546  0.00  0.00    +0.000 C 
BRANCH  26  27
ATOM     27  C   UNL     1      -4.294  11.615  16.971  0.00  0.00    +0.000 C 
BRANCH  27  29
ATOM     28  C   UNL     1      -5.820  11.723  18.961  0.00  0.00    +0.000 C 
ATOM     29  C   UNL     1      -5.663  11.242  17.529  0.00  0.00    +0.000 C 
ENDBRANCH  27  29
ENDBRANCH  26  27
ENDBRANCH  25  26
ENDBRANCH  24  25
ENDBRANCH  23  24
ENDBRANCH  22  23
ENDBRANCH  16  22
ENDBRANCH   1  19
TORSDOF 9
ENDMDL
