MODEL 1
REMARK VINA RESULT:      -7.8      0.000      0.000
REMARK  Name = 
REMARK  8 active torsions:
REMARK  status: ('A' for Active; 'I' for Inactive)
REMARK    1  A    between atoms: C_1  and  C_2
REMARK    2  A    between atoms: C_2  and  N_3
REMARK    3  A    between atoms: C_2  and  C_11
REMARK    4  A    between atoms: C_4  and  C_6
REMARK    5  A    between atoms: N_13  and  C_14
REMARK    6  A    between atoms: N_13  and  C_15
REMARK    7  A    between atoms: C_15  and  C_16
REMARK    8  A    between atoms: C_20  and  C_21
REMARK                            x       y       z     vdW  Elec       q    Type
REMARK                         _______ _______ _______ _____ _____    ______ ____
ROOT
ATOM      1  C   UNL     1       5.586   5.391  17.796  0.00  0.00    +0.000 C 
ATOM      2  O   UNL     1       5.527   4.775  18.868  0.00  0.00    +0.000 OA
ATOM      3  N   UNL     1       4.637   6.344  17.436  0.00  0.00    +0.000 N 
ATOM      4  C   UNL     1       4.557   6.996  16.132  0.00  0.00    +0.000 C 
ENDROOT
BRANCH   1   6
ATOM      5  C   UNL     1       7.873   4.394  17.601  0.00  0.00    +0.000 C 
ATOM      6  C   UNL     1       6.787   5.161  16.855  0.00  0.00    +0.000 C 
BRANCH   6   7
ATOM      7  N   UNL     1       6.357   4.420  15.677  0.00  0.00    +0.000 N 
ATOM      8  C   UNL     1       6.847   4.721  14.428  0.00  0.00    +0.000 C 
ATOM      9  O   UNL     1       7.689   5.592  14.244  0.00  0.00    +0.000 OA
ATOM     10  H   UNL     1       5.647   3.711  15.813  0.00  0.00    +0.000 HD
BRANCH   8  11
ATOM     11  C   UNL     1       6.286   3.947  13.335  0.00  0.00    +0.000 A 
ATOM     12  C   UNL     1       6.903   3.131  12.343  0.00  0.00    +0.000 A 
ATOM     13  C   UNL     1       5.888   2.626  11.564  0.00  0.00    +0.000 A 
ATOM     14  O   UNL     1       4.685   3.076  11.999  0.00  0.00    +0.000 OA
ATOM     15  C   UNL     1       4.932   3.873  13.069  0.00  0.00    +0.000 A 
ENDBRANCH   8  11
ENDBRANCH   6   7
ENDBRANCH   1   6
BRANCH   3  16
ATOM     16  C   UNL     1       3.537   6.613  18.358  0.00  0.00    +0.000 C 
BRANCH  16  17
ATOM     17  C   UNL     1       2.717   5.377  18.658  0.00  0.00    +0.000 A 
ATOM     18  C   UNL     1       1.999   4.724  17.647  0.00  0.00    +0.000 A 
ATOM     19  C   UNL     1       1.278   3.561  17.924  0.00  0.00    +0.000 A 
ATOM     20  C   UNL     1       1.282   3.027  19.212  0.00  0.00    +0.000 A 
ATOM     21  C   UNL     1       1.989   3.661  20.242  0.00  0.00    +0.000 A 
ATOM     22  C   UNL     1       2.683   4.850  19.959  0.00  0.00    +0.000 A 
BRANCH  21  23
ATOM     23  C   UNL     1       2.044   3.069  21.629  0.00  0.00    +0.000 C 
ATOM     24  F   UNL     1       2.980   2.086  21.764  0.00  0.00    +0.000 F 
ATOM     25  F   UNL     1       2.346   3.998  22.578  0.00  0.00    +0.000 F 
ATOM     26  F   UNL     1       0.863   2.510  22.012  0.00  0.00    +0.000 F 
ENDBRANCH  21  23
ENDBRANCH  16  17
ENDBRANCH   3  16
TORSDOF 6
ENDMDL
MODEL 2
REMARK VINA RESULT:      -7.5      5.485      7.634
REMARK  Name = 
REMARK  8 active torsions:
REMARK  status: ('A' for Active; 'I' for Inactive)
REMARK    1  A    between atoms: C_1  and  C_2
REMARK    2  A    between atoms: C_2  and  N_3
REMARK    3  A    between atoms: C_2  and  C_11
REMARK    4  A    between atoms: C_4  and  C_6
REMARK    5  A    between atoms: N_13  and  C_14
REMARK    6  A    between atoms: N_13  and  C_15
REMARK    7  A    between atoms: C_15  and  C_16
REMARK    8  A    between atoms: C_20  and  C_21
REMARK                            x       y       z     vdW  Elec       q    Type
REMARK                         _______ _______ _______ _____ _____    ______ ____
ROOT
ATOM      1  C   UNL     1       1.669   8.918  18.444  0.00  0.00    +0.000 C 
ATOM      2  O   UNL     1       2.125   8.814  17.298  0.00  0.00    +0.000 OA
ATOM      3  N   UNL     1       2.084   8.091  19.484  0.00  0.00    +0.000 N 
ATOM      4  C   UNL     1       1.485   8.054  20.815  0.00  0.00    +0.000 C 
ENDROOT
BRANCH   1   6
ATOM      5  C   UNL     1       1.417  11.365  18.900  0.00  0.00    +0.000 C 
ATOM      6  C   UNL     1       0.665  10.046  18.761  0.00  0.00    +0.000 C 
BRANCH   6   7
ATOM      7  N   UNL     1      -0.329  10.135  17.701  0.00  0.00    +0.000 N 
ATOM      8  C   UNL     1      -1.622  10.521  17.968  0.00  0.00    +0.000 C 
ATOM      9  O   UNL     1      -1.994  10.846  19.089  0.00  0.00    +0.000 OA
ATOM     10  H   UNL     1      -0.040   9.851  16.773  0.00  0.00    +0.000 HD
BRANCH   8  11
ATOM     11  C   UNL     1      -2.525  10.506  16.831  0.00  0.00    +0.000 A 
ATOM     12  C   UNL     1      -2.480   9.787  15.600  0.00  0.00    +0.000 A 
ATOM     13  C   UNL     1      -3.605  10.148  14.895  0.00  0.00    +0.000 A 
ATOM     14  O   UNL     1      -4.341  11.044  15.599  0.00  0.00    +0.000 OA
ATOM     15  C   UNL     1      -3.684  11.256  16.767  0.00  0.00    +0.000 A 
ENDBRANCH   8  11
ENDBRANCH   6   7
ENDBRANCH   1   6
BRANCH   3  16
ATOM     16  C   UNL     1       3.086   7.067  19.202  0.00  0.00    +0.000 C 
BRANCH  16  17
ATOM     17  C   UNL     1       2.556   5.665  19.416  0.00  0.00    +0.000 A 
ATOM     18  C   UNL     1       1.516   5.416  20.321  0.00  0.00    +0.000 A 
ATOM     19  C   UNL     1       1.006   4.127  20.482  0.00  0.00    +0.000 A 
ATOM     20  C   UNL     1       1.520   3.073  19.727  0.00  0.00    +0.000 A 
ATOM     21  C   UNL     1       2.563   3.293  18.817  0.00  0.00    +0.000 A 
ATOM     22  C   UNL     1       3.091   4.590  18.689  0.00  0.00    +0.000 A 
BRANCH  21  23
ATOM     23  C   UNL     1       3.096   2.174  17.957  0.00  0.00    +0.000 C 
ATOM     24  F   UNL     1       3.459   1.067  18.666  0.00  0.00    +0.000 F 
ATOM     25  F   UNL     1       2.182   1.742  17.043  0.00  0.00    +0.000 F 
ATOM     26  F   UNL     1       4.198   2.535  17.243  0.00  0.00    +0.000 F 
ENDBRANCH  21  23
ENDBRANCH  16  17
ENDBRANCH   3  16
TORSDOF 6
ENDMDL
MODEL 3
REMARK VINA RESULT:      -7.4      4.271      6.179
REMARK  Name = 
REMARK  8 active torsions:
REMARK  status: ('A' for Active; 'I' for Inactive)
REMARK    1  A    between atoms: C_1  and  C_2
REMARK    2  A    between atoms: C_2  and  N_3
REMARK    3  A    between atoms: C_2  and  C_11
REMARK    4  A    between atoms: C_4  and  C_6
REMARK    5  A    between atoms: N_13  and  C_14
REMARK    6  A    between atoms: N_13  and  C_15
REMARK    7  A    between atoms: C_15  and  C_16
REMARK    8  A    between atoms: C_20  and  C_21
REMARK                            x       y       z     vdW  Elec       q    Type
REMARK                         _______ _______ _______ _____ _____    ______ ____
ROOT
ATOM      1  C   UNL     1       5.290   6.050  16.818  0.00  0.00    +0.000 C 
ATOM      2  O   UNL     1       4.689   6.631  15.904  0.00  0.00    +0.000 OA
ATOM      3  N   UNL     1       4.621   5.345  17.814  0.00  0.00    +0.000 N 
ATOM      4  C   UNL     1       5.250   4.768  18.998  0.00  0.00    +0.000 C 
ENDROOT
BRANCH   1   6
ATOM      5  C   UNL     1       7.333   5.488  15.487  0.00  0.00    +0.000 C 
ATOM      6  C   UNL     1       6.833   6.035  16.819  0.00  0.00    +0.000 C 
BRANCH   6   7
ATOM      7  N   UNL     1       7.341   7.382  17.040  0.00  0.00    +0.000 N 
ATOM      8  C   UNL     1       8.053   7.697  18.173  0.00  0.00    +0.000 C 
ATOM      9  O   UNL     1       8.330   6.866  19.030  0.00  0.00    +0.000 OA
ATOM     10  H   UNL     1       7.102   8.083  16.350  0.00  0.00    +0.000 HD
BRANCH   8  11
ATOM     11  C   UNL     1       8.444   9.090  18.297  0.00  0.00    +0.000 A 
ATOM     12  C   UNL     1       9.301   9.752  19.224  0.00  0.00    +0.000 A 
ATOM     13  C   UNL     1       9.320  11.079  18.863  0.00  0.00    +0.000 A 
ATOM     14  O   UNL     1       8.530  11.288  17.780  0.00  0.00    +0.000 OA
ATOM     15  C   UNL     1       8.004  10.084  17.442  0.00  0.00    +0.000 A 
ENDBRANCH   8  11
ENDBRANCH   6   7
ENDBRANCH   1   6
BRANCH   3  16
ATOM     16  C   UNL     1       3.162   5.300  17.774  0.00  0.00    +0.000 C 
BRANCH  16  17
ATOM     17  C   UNL     1       2.527   6.339  18.675  0.00  0.00    +0.000 A 
ATOM     18  C   UNL     1       2.296   6.074  20.031  0.00  0.00    +0.000 A 
ATOM     19  C   UNL     1       1.747   7.052  20.863  0.00  0.00    +0.000 A 
ATOM     20  C   UNL     1       1.439   8.312  20.351  0.00  0.00    +0.000 A 
ATOM     21  C   UNL     1       1.657   8.602  18.997  0.00  0.00    +0.000 A 
ATOM     22  C   UNL     1       2.178   7.599  18.163  0.00  0.00    +0.000 A 
BRANCH  21  23
ATOM     23  C   UNL     1       1.376   9.976  18.440  0.00  0.00    +0.000 C 
ATOM     24  F   UNL     1       2.400  10.480  17.694  0.00  0.00    +0.000 F 
ATOM     25  F   UNL     1       0.284   9.992  17.625  0.00  0.00    +0.000 F 
ATOM     26  F   UNL     1       1.135  10.900  19.410  0.00  0.00    +0.000 F 
ENDBRANCH  21  23
ENDBRANCH  16  17
ENDBRANCH   3  16
TORSDOF 6
ENDMDL
MODEL 4
REMARK VINA RESULT:      -7.4      5.099      7.197
REMARK  Name = 
REMARK  8 active torsions:
REMARK  status: ('A' for Active; 'I' for Inactive)
REMARK    1  A    between atoms: C_1  and  C_2
REMARK    2  A    between atoms: C_2  and  N_3
REMARK    3  A    between atoms: C_2  and  C_11
REMARK    4  A    between atoms: C_4  and  C_6
REMARK    5  A    between atoms: N_13  and  C_14
REMARK    6  A    between atoms: N_13  and  C_15
REMARK    7  A    between atoms: C_15  and  C_16
REMARK    8  A    between atoms: C_20  and  C_21
REMARK                            x       y       z     vdW  Elec       q    Type
REMARK                         _______ _______ _______ _____ _____    ______ ____
ROOT
ATOM      1  C   UNL     1       1.836   8.976  18.438  0.00  0.00    +0.000 C 
ATOM      2  O   UNL     1       2.382   8.869  17.332  0.00  0.00    +0.000 OA
ATOM      3  N   UNL     1       2.128   8.117  19.494  0.00  0.00    +0.000 N 
ATOM      4  C   UNL     1       1.419   8.087  20.769  0.00  0.00    +0.000 C 
ENDROOT
BRANCH   1   6
ATOM      5  C   UNL     1       1.641  11.449  18.767  0.00  0.00    +0.000 C 
ATOM      6  C   UNL     1       0.858  10.142  18.691  0.00  0.00    +0.000 C 
BRANCH   6   7
ATOM      7  N   UNL     1      -0.129  10.201  17.622  0.00  0.00    +0.000 N 
ATOM      8  C   UNL     1      -1.451  10.470  17.887  0.00  0.00    +0.000 C 
ATOM      9  O   UNL     1      -1.860  10.711  19.017  0.00  0.00    +0.000 OA
ATOM     10  H   UNL     1       0.193   9.985  16.686  0.00  0.00    +0.000 HD
BRANCH   8  11
ATOM     11  C   UNL     1      -2.337  10.434  16.738  0.00  0.00    +0.000 A 
ATOM     12  C   UNL     1      -2.947  11.479  15.983  0.00  0.00    +0.000 A 
ATOM     13  C   UNL     1      -3.681  10.870  14.992  0.00  0.00    +0.000 A 
ATOM     14  O   UNL     1      -3.574   9.521  15.082  0.00  0.00    +0.000 OA
ATOM     15  C   UNL     1      -2.762   9.264  16.138  0.00  0.00    +0.000 A 
ENDBRANCH   8  11
ENDBRANCH   6   7
ENDBRANCH   1   6
BRANCH   3  16
ATOM     16  C   UNL     1       3.106   7.055  19.277  0.00  0.00    +0.000 C 
BRANCH  16  17
ATOM     17  C   UNL     1       2.456   5.701  19.085  0.00  0.00    +0.000 A 
ATOM     18  C   UNL     1       1.960   5.308  17.834  0.00  0.00    +0.000 A 
ATOM     19  C   UNL     1       1.399   4.043  17.657  0.00  0.00    +0.000 A 
ATOM     20  C   UNL     1       1.342   3.148  18.725  0.00  0.00    +0.000 A 
ATOM     21  C   UNL     1       1.828   3.515  19.987  0.00  0.00    +0.000 A 
ATOM     22  C   UNL     1       2.360   4.805  20.161  0.00  0.00    +0.000 A 
BRANCH  21  23
ATOM     23  C   UNL     1       1.821   2.541  21.139  0.00  0.00    +0.000 C 
ATOM     24  F   UNL     1       1.707   1.239  20.750  0.00  0.00    +0.000 F 
ATOM     25  F   UNL     1       2.962   2.606  21.881  0.00  0.00    +0.000 F 
ATOM     26  F   UNL     1       0.795   2.759  22.008  0.00  0.00    +0.000 F 
ENDBRANCH  21  23
ENDBRANCH  16  17
ENDBRANCH   3  16
TORSDOF 6
ENDMDL
MODEL 5
REMARK VINA RESULT:      -7.3      3.989      5.970
REMARK  Name = 
REMARK  8 active torsions:
REMARK  status: ('A' for Active; 'I' for Inactive)
REMARK    1  A    between atoms: C_1  and  C_2
REMARK    2  A    between atoms: C_2  and  N_3
REMARK    3  A    between atoms: C_2  and  C_11
REMARK    4  A    between atoms: C_4  and  C_6
REMARK    5  A    between atoms: N_13  and  C_14
REMARK    6  A    between atoms: N_13  and  C_15
REMARK    7  A    between atoms: C_15  and  C_16
REMARK    8  A    between atoms: C_20  and  C_21
REMARK                            x       y       z     vdW  Elec       q    Type
REMARK                         _______ _______ _______ _____ _____    ______ ____
ROOT
ATOM      1  C   UNL     1       5.217   6.324  16.940  0.00  0.00    +0.000 C 
ATOM      2  O   UNL     1       4.635   6.656  15.898  0.00  0.00    +0.000 OA
ATOM      3  N   UNL     1       4.526   5.931  18.082  0.00  0.00    +0.000 N 
ATOM      4  C   UNL     1       5.135   5.675  19.383  0.00  0.00    +0.000 C 
ENDROOT
BRANCH   1   6
ATOM      5  C   UNL     1       7.257   5.654  15.655  0.00  0.00    +0.000 C 
ATOM      6  C   UNL     1       6.759   6.266  16.960  0.00  0.00    +0.000 C 
BRANCH   6   7
ATOM      7  N   UNL     1       7.303   7.605  17.135  0.00  0.00    +0.000 N 
ATOM      8  C   UNL     1       8.108   7.912  18.207  0.00  0.00    +0.000 C 
ATOM      9  O   UNL     1       8.440   7.078  19.041  0.00  0.00    +0.000 OA
ATOM     10  H   UNL     1       7.020   8.308  16.464  0.00  0.00    +0.000 HD
BRANCH   8  11
ATOM     11  C   UNL     1       8.528   9.299  18.294  0.00  0.00    +0.000 A 
ATOM     12  C   UNL     1       8.233  10.428  17.475  0.00  0.00    +0.000 A 
ATOM     13  C   UNL     1       8.892  11.499  18.032  0.00  0.00    +0.000 A 
ATOM     14  O   UNL     1       9.580  11.113  19.135  0.00  0.00    +0.000 OA
ATOM     15  C   UNL     1       9.356   9.784  19.289  0.00  0.00    +0.000 A 
ENDBRANCH   8  11
ENDBRANCH   6   7
ENDBRANCH   1   6
BRANCH   3  16
ATOM     16  C   UNL     1       3.066   5.920  18.042  0.00  0.00    +0.000 C 
BRANCH  16  17
ATOM     17  C   UNL     1       2.466   7.254  18.433  0.00  0.00    +0.000 A 
ATOM     18  C   UNL     1       2.414   8.317  17.522  0.00  0.00    +0.000 A 
ATOM     19  C   UNL     1       1.823   9.530  17.877  0.00  0.00    +0.000 A 
ATOM     20  C   UNL     1       1.261   9.689  19.143  0.00  0.00    +0.000 A 
ATOM     21  C   UNL     1       1.302   8.643  20.076  0.00  0.00    +0.000 A 
ATOM     22  C   UNL     1       1.930   7.438  19.717  0.00  0.00    +0.000 A 
BRANCH  21  23
ATOM     23  C   UNL     1       0.654   8.781  21.431  0.00  0.00    +0.000 C 
ATOM     24  F   UNL     1      -0.400   7.937  21.619  0.00  0.00    +0.000 F 
ATOM     25  F   UNL     1       1.520   8.521  22.449  0.00  0.00    +0.000 F 
ATOM     26  F   UNL     1       0.171  10.034  21.660  0.00  0.00    +0.000 F 
ENDBRANCH  21  23
ENDBRANCH  16  17
ENDBRANCH   3  16
TORSDOF 6
ENDMDL
MODEL 6
REMARK VINA RESULT:      -7.3      5.421      7.717
REMARK  Name = 
REMARK  8 active torsions:
REMARK  status: ('A' for Active; 'I' for Inactive)
REMARK    1  A    between atoms: C_1  and  C_2
REMARK    2  A    between atoms: C_2  and  N_3
REMARK    3  A    between atoms: C_2  and  C_11
REMARK    4  A    between atoms: C_4  and  C_6
REMARK    5  A    between atoms: N_13  and  C_14
REMARK    6  A    between atoms: N_13  and  C_15
REMARK    7  A    between atoms: C_15  and  C_16
REMARK    8  A    between atoms: C_20  and  C_21
REMARK                            x       y       z     vdW  Elec       q    Type
REMARK                         _______ _______ _______ _____ _____    ______ ____
ROOT
ATOM      1  C   UNL     1       1.765   9.113  18.237  0.00  0.00    +0.000 C 
ATOM      2  O   UNL     1       2.130   9.303  17.070  0.00  0.00    +0.000 OA
ATOM      3  N   UNL     1       2.261   8.065  19.007  0.00  0.00    +0.000 N 
ATOM      4  C   UNL     1       1.768   7.689  20.329  0.00  0.00    +0.000 C 
ENDROOT
BRANCH   1   6
ATOM      5  C   UNL     1       1.508  11.425  19.158  0.00  0.00    +0.000 C 
ATOM      6  C   UNL     1       0.787  10.107  18.897  0.00  0.00    +0.000 C 
BRANCH   6   7
ATOM      7  N   UNL     1      -0.363  10.319  18.030  0.00  0.00    +0.000 N 
ATOM      8  C   UNL     1      -1.525  10.874  18.511  0.00  0.00    +0.000 C 
ATOM      9  O   UNL     1      -1.643  11.253  19.671  0.00  0.00    +0.000 OA
ATOM     10  H   UNL     1      -0.286   9.992  17.074  0.00  0.00    +0.000 HD
BRANCH   8  11
ATOM     11  C   UNL     1      -2.614  10.969  17.555  0.00  0.00    +0.000 A 
ATOM     12  C   UNL     1      -3.953  11.438  17.693  0.00  0.00    +0.000 A 
ATOM     13  C   UNL     1      -4.542  11.310  16.456  0.00  0.00    +0.000 A 
ATOM     14  O   UNL     1      -3.665  10.790  15.563  0.00  0.00    +0.000 OA
ATOM     15  C   UNL     1      -2.502  10.586  16.232  0.00  0.00    +0.000 A 
ENDBRANCH   8  11
ENDBRANCH   6   7
ENDBRANCH   1   6
BRANCH   3  16
ATOM     16  C   UNL     1       3.240   7.162  18.406  0.00  0.00    +0.000 C 
BRANCH  16  17
ATOM     17  C   UNL     1       2.799   5.715  18.456  0.00  0.00    +0.000 A 
ATOM     18  C   UNL     1       1.657   5.284  17.768  0.00  0.00    +0.000 A 
ATOM     19  C   UNL     1       1.281   3.940  17.787  0.00  0.00    +0.000 A 
ATOM     20  C   UNL     1       2.052   3.007  18.479  0.00  0.00    +0.000 A 
ATOM     21  C   UNL     1       3.198   3.412  19.178  0.00  0.00    +0.000 A 
ATOM     22  C   UNL     1       3.548   4.773  19.180  0.00  0.00    +0.000 A 
BRANCH  21  23
ATOM     23  C   UNL     1       4.072   2.409  19.890  0.00  0.00    +0.000 C 
ATOM     24  F   UNL     1       5.374   2.800  19.997  0.00  0.00    +0.000 F 
ATOM     25  F   UNL     1       3.653   2.167  21.163  0.00  0.00    +0.000 F 
ATOM     26  F   UNL     1       4.099   1.198  19.268  0.00  0.00    +0.000 F 
ENDBRANCH  21  23
ENDBRANCH  16  17
ENDBRANCH   3  16
TORSDOF 6
ENDMDL
MODEL 7
REMARK VINA RESULT:      -7.2      5.421      6.882
REMARK  Name = 
REMARK  8 active torsions:
REMARK  status: ('A' for Active; 'I' for Inactive)
REMARK    1  A    between atoms: C_1  and  C_2
REMARK    2  A    between atoms: C_2  and  N_3
REMARK    3  A    between atoms: C_2  and  C_11
REMARK    4  A    between atoms: C_4  and  C_6
REMARK    5  A    between atoms: N_13  and  C_14
REMARK    6  A    between atoms: N_13  and  C_15
REMARK    7  A    between atoms: C_15  and  C_16
REMARK    8  A    between atoms: C_20  and  C_21
REMARK                            x       y       z     vdW  Elec       q    Type
REMARK                         _______ _______ _______ _____ _____    ______ ____
ROOT
ATOM      1  C   UNL     1       2.413   7.941  18.172  0.00  0.00    +0.000 C 
ATOM      2  O   UNL     1       2.797   8.447  17.109  0.00  0.00    +0.000 OA
ATOM      3  N   UNL     1       1.800   8.692  19.171  0.00  0.00    +0.000 N 
ATOM      4  C   UNL     1       1.461   8.197  20.502  0.00  0.00    +0.000 C 
ENDROOT
BRANCH   1   6
ATOM      5  C   UNL     1       1.251   5.739  17.928  0.00  0.00    +0.000 C 
ATOM      6  C   UNL     1       2.541   6.417  18.375  0.00  0.00    +0.000 C 
BRANCH   6   7
ATOM      7  N   UNL     1       3.674   5.911  17.613  0.00  0.00    +0.000 N 
ATOM      8  C   UNL     1       4.804   5.445  18.243  0.00  0.00    +0.000 C 
ATOM      9  O   UNL     1       4.905   5.394  19.463  0.00  0.00    +0.000 OA
ATOM     10  H   UNL     1       3.611   5.965  16.604  0.00  0.00    +0.000 HD
BRANCH   8  11
ATOM     11  C   UNL     1       5.882   5.029  17.363  0.00  0.00    +0.000 A 
ATOM     12  C   UNL     1       5.926   4.833  15.951  0.00  0.00    +0.000 A 
ATOM     13  C   UNL     1       7.211   4.448  15.649  0.00  0.00    +0.000 A 
ATOM     14  O   UNL     1       7.966   4.385  16.774  0.00  0.00    +0.000 OA
ATOM     15  C   UNL     1       7.158   4.737  17.806  0.00  0.00    +0.000 A 
ENDBRANCH   8  11
ENDBRANCH   6   7
ENDBRANCH   1   6
BRANCH   3  16
ATOM     16  C   UNL     1       1.614  10.124  18.951  0.00  0.00    +0.000 C 
BRANCH  16  17
ATOM     17  C   UNL     1       0.153  10.513  18.879  0.00  0.00    +0.000 A 
ATOM     18  C   UNL     1      -0.452  11.241  19.911  0.00  0.00    +0.000 A 
ATOM     19  C   UNL     1      -1.790  11.631  19.817  0.00  0.00    +0.000 A 
ATOM     20  C   UNL     1      -2.532  11.312  18.682  0.00  0.00    +0.000 A 
ATOM     21  C   UNL     1      -1.952  10.582  17.635  0.00  0.00    +0.000 A 
ATOM     22  C   UNL     1      -0.615  10.166  17.756  0.00  0.00    +0.000 A 
BRANCH  21  23
ATOM     23  C   UNL     1      -2.727  10.273  16.377  0.00  0.00    +0.000 C 
ATOM     24  F   UNL     1      -2.533  11.184  15.381  0.00  0.00    +0.000 F 
ATOM     25  F   UNL     1      -2.389   9.066  15.843  0.00  0.00    +0.000 F 
ATOM     26  F   UNL     1      -4.072  10.229  16.583  0.00  0.00    +0.000 F 
ENDBRANCH  21  23
ENDBRANCH  16  17
ENDBRANCH   3  16
TORSDOF 6
ENDMDL
MODEL 8
REMARK VINA RESULT:      -7.2      1.583      2.198
REMARK  Name = 
REMARK  8 active torsions:
REMARK  status: ('A' for Active; 'I' for Inactive)
REMARK    1  A    between atoms: C_1  and  C_2
REMARK    2  A    between atoms: C_2  and  N_3
REMARK    3  A    between atoms: C_2  and  C_11
REMARK    4  A    between atoms: C_4  and  C_6
REMARK    5  A    between atoms: N_13  and  C_14
REMARK    6  A    between atoms: N_13  and  C_15
REMARK    7  A    between atoms: C_15  and  C_16
REMARK    8  A    between atoms: C_20  and  C_21
REMARK                            x       y       z     vdW  Elec       q    Type
REMARK                         _______ _______ _______ _____ _____    ______ ____
ROOT
ATOM      1  C   UNL     1       5.778   5.930  17.818  0.00  0.00    +0.000 C 
ATOM      2  O   UNL     1       5.768   5.739  19.041  0.00  0.00    +0.000 OA
ATOM      3  N   UNL     1       4.781   6.658  17.174  0.00  0.00    +0.000 N 
ATOM      4  C   UNL     1       4.646   6.794  15.727  0.00  0.00    +0.000 C 
ENDROOT
BRANCH   1   6
ATOM      5  C   UNL     1       7.838   4.512  17.845  0.00  0.00    +0.000 C 
ATOM      6  C   UNL     1       6.968   5.418  16.981  0.00  0.00    +0.000 C 
BRANCH   6   7
ATOM      7  N   UNL     1       6.478   4.694  15.816  0.00  0.00    +0.000 N 
ATOM      8  C   UNL     1       7.051   4.866  14.578  0.00  0.00    +0.000 C 
ATOM      9  O   UNL     1       8.017   5.597  14.396  0.00  0.00    +0.000 OA
ATOM     10  H   UNL     1       5.667   4.101  15.950  0.00  0.00    +0.000 HD
BRANCH   8  11
ATOM     11  C   UNL     1       6.424   4.132  13.493  0.00  0.00    +0.000 A 
ATOM     12  C   UNL     1       5.075   3.717  13.290  0.00  0.00    +0.000 A 
ATOM     13  C   UNL     1       5.045   3.064  12.080  0.00  0.00    +0.000 A 
ATOM     14  O   UNL     1       6.280   3.040  11.520  0.00  0.00    +0.000 OA
ATOM     15  C   UNL     1       7.109   3.687  12.378  0.00  0.00    +0.000 A 
ENDBRANCH   8  11
ENDBRANCH   6   7
ENDBRANCH   1   6
BRANCH   3  16
ATOM     16  C   UNL     1       3.689   7.204  17.975  0.00  0.00    +0.000 C 
BRANCH  16  17
ATOM     17  C   UNL     1       2.952   6.135  18.753  0.00  0.00    +0.000 A 
ATOM     18  C   UNL     1       2.352   6.423  19.986  0.00  0.00    +0.000 A 
ATOM     19  C   UNL     1       1.640   5.441  20.677  0.00  0.00    +0.000 A 
ATOM     20  C   UNL     1       1.505   4.164  20.136  0.00  0.00    +0.000 A 
ATOM     21  C   UNL     1       2.098   3.847  18.906  0.00  0.00    +0.000 A 
ATOM     22  C   UNL     1       2.841   4.835  18.235  0.00  0.00    +0.000 A 
BRANCH  21  23
ATOM     23  C   UNL     1       1.919   2.485  18.282  0.00  0.00    +0.000 C 
ATOM     24  F   UNL     1       0.631   2.039  18.310  0.00  0.00    +0.000 F 
ATOM     25  F   UNL     1       2.288   2.463  16.970  0.00  0.00    +0.000 F 
ATOM     26  F   UNL     1       2.659   1.522  18.896  0.00  0.00    +0.000 F 
ENDBRANCH  21  23
ENDBRANCH  16  17
ENDBRANCH   3  16
TORSDOF 6
ENDMDL
MODEL 9
REMARK VINA RESULT:      -7.2      1.514      2.036
REMARK  Name = 
REMARK  8 active torsions:
REMARK  status: ('A' for Active; 'I' for Inactive)
REMARK    1  A    between atoms: C_1  and  C_2
REMARK    2  A    between atoms: C_2  and  N_3
REMARK    3  A    between atoms: C_2  and  C_11
REMARK    4  A    between atoms: C_4  and  C_6
REMARK    5  A    between atoms: N_13  and  C_14
REMARK    6  A    between atoms: N_13  and  C_15
REMARK    7  A    between atoms: C_15  and  C_16
REMARK    8  A    between atoms: C_20  and  C_21
REMARK                            x       y       z     vdW  Elec       q    Type
REMARK                         _______ _______ _______ _____ _____    ______ ____
ROOT
ATOM      1  C   UNL     1       6.065   6.212  16.956  0.00  0.00    +0.000 C 
ATOM      2  O   UNL     1       6.341   7.356  17.340  0.00  0.00    +0.000 OA
ATOM      3  N   UNL     1       4.759   5.732  16.937  0.00  0.00    +0.000 N 
ATOM      4  C   UNL     1       4.376   4.354  16.645  0.00  0.00    +0.000 C 
ENDROOT
BRANCH   1   6
ATOM      5  C   UNL     1       7.724   4.430  17.533  0.00  0.00    +0.000 C 
ATOM      6  C   UNL     1       7.186   5.306  16.407  0.00  0.00    +0.000 C 
BRANCH   6   7
ATOM      7  N   UNL     1       6.670   4.483  15.322  0.00  0.00    +0.000 N 
ATOM      8  C   UNL     1       7.003   4.739  14.013  0.00  0.00    +0.000 C 
ATOM      9  O   UNL     1       7.773   5.637  13.693  0.00  0.00    +0.000 OA
ATOM     10  H   UNL     1       6.017   3.749  15.572  0.00  0.00    +0.000 HD
BRANCH   8  11
ATOM     11  C   UNL     1       6.368   3.881  13.029  0.00  0.00    +0.000 A 
ATOM     12  C   UNL     1       4.997   3.695  12.683  0.00  0.00    +0.000 A 
ATOM     13  C   UNL     1       4.972   2.765  11.669  0.00  0.00    +0.000 A 
ATOM     14  O   UNL     1       6.229   2.358  11.366  0.00  0.00    +0.000 OA
ATOM     15  C   UNL     1       7.068   3.035  12.190  0.00  0.00    +0.000 A 
ENDBRANCH   8  11
ENDBRANCH   6   7
ENDBRANCH   1   6
BRANCH   3  16
ATOM     16  C   UNL     1       3.687   6.614  17.392  0.00  0.00    +0.000 C 
BRANCH  16  17
ATOM     17  C   UNL     1       2.884   6.011  18.526  0.00  0.00    +0.000 A 
ATOM     18  C   UNL     1       2.455   6.796  19.604  0.00  0.00    +0.000 A 
ATOM     19  C   UNL     1       1.681   6.241  20.624  0.00  0.00    +0.000 A 
ATOM     20  C   UNL     1       1.313   4.898  20.570  0.00  0.00    +0.000 A 
ATOM     21  C   UNL     1       1.731   4.088  19.504  0.00  0.00    +0.000 A 
ATOM     22  C   UNL     1       2.538   4.651  18.500  0.00  0.00    +0.000 A 
BRANCH  21  23
ATOM     23  C   UNL     1       1.299   2.646  19.404  0.00  0.00    +0.000 C 
ATOM     24  F   UNL     1       1.782   2.008  18.300  0.00  0.00    +0.000 F 
ATOM     25  F   UNL     1       1.715   1.905  20.469  0.00  0.00    +0.000 F 
ATOM     26  F   UNL     1      -0.054   2.503  19.353  0.00  0.00    +0.000 F 
ENDBRANCH  21  23
ENDBRANCH  16  17
ENDBRANCH   3  16
TORSDOF 6
ENDMDL
