MODEL 1
REMARK VINA RESULT:      -8.6      0.000      0.000
REMARK  Name = 
REMARK  5 active torsions:
REMARK  status: ('A' for Active; 'I' for Inactive)
REMARK    1  A    between atoms: C_1  and  C_2
REMARK    2  A    between atoms: N_4  and  C_5
REMARK    3  A    between atoms: C_5  and  C_6
REMARK    4  A    between atoms: C_10  and  C_11
REMARK    5  A    between atoms: C_28  and  C_29
REMARK                            x       y       z     vdW  Elec       q    Type
REMARK                         _______ _______ _______ _____ _____    ______ ____
ROOT
ATOM      1  C   UNL     1       2.530   6.709  20.236  0.00  0.00    +0.000 C 
ENDROOT
BRANCH   1   5
ATOM      2  C   UNL     1      -0.170   9.348  17.710  0.00  0.00    +0.000 C 
ATOM      3  C   UNL     1       1.076   9.799  18.471  0.00  0.00    +0.000 C 
ATOM      4  C   UNL     1       1.998   8.607  18.853  0.00  0.00    +0.000 C 
ATOM      5  N   UNL     1       1.511   7.750  19.964  0.00  0.00    +0.000 NA
ATOM      6  C   UNL     1       1.299   8.628  21.144  0.00  0.00    +0.000 C 
ATOM      7  C   UNL     1       0.337   9.806  20.872  0.00  0.00    +0.000 C 
ATOM      8  N   UNL     1       0.679  10.564  19.663  0.00  0.00    +0.000 N 
ATOM      9  C   UNL     1       1.049  11.894  19.766  0.00  0.00    +0.000 A 
ATOM     10  C   UNL     1       0.768  12.772  18.718  0.00  0.00    +0.000 A 
ATOM     11  C   UNL     1       1.068  14.129  18.831  0.00  0.00    +0.000 A 
ATOM     12  C   UNL     1       1.673  14.599  19.992  0.00  0.00    +0.000 A 
ATOM     13  C   UNL     1       1.952  13.664  20.978  0.00  0.00    +0.000 A 
ATOM     14  N   UNL     1       1.640  12.343  20.894  0.00  0.00    +0.000 NA
BRANCH  12  15
ATOM     15  C   UNL     1       1.997  16.043  20.203  0.00  0.00    +0.000 C 
ATOM     16  F   UNL     1       0.894  16.842  20.272  0.00  0.00    +0.000 F 
ATOM     17  F   UNL     1       2.682  16.262  21.360  0.00  0.00    +0.000 F 
ATOM     18  F   UNL     1       2.769  16.562  19.209  0.00  0.00    +0.000 F 
ENDBRANCH  12  15
ENDBRANCH   1   5
BRANCH   1  19
ATOM     19  C   UNL     1       2.056   5.306  20.003  0.00  0.00    +0.000 A 
ATOM     20  N   UNL     1       0.873   4.897  20.497  0.00  0.00    +0.000 NA
ATOM     21  N   UNL     1       0.826   3.627  20.079  0.00  0.00    +0.000 N 
ATOM     22  N   UNL     1       1.855   3.153  19.366  0.00  0.00    +0.000 NA
ATOM     23  C   UNL     1       2.675   4.218  19.316  0.00  0.00    +0.000 A 
ATOM     24  H   UNL     1       0.024   3.039  20.292  0.00  0.00    +0.000 HD
BRANCH  23  25
ATOM     25  C   UNL     1       3.921   4.201  18.560  0.00  0.00    +0.000 A 
ATOM     26  C   UNL     1       5.146   4.526  19.158  0.00  0.00    +0.000 A 
ATOM     27  C   UNL     1       6.288   4.703  18.378  0.00  0.00    +0.000 A 
ATOM     28  C   UNL     1       6.190   4.562  16.996  0.00  0.00    +0.000 A 
ATOM     29  C   UNL     1       5.000   4.188  16.386  0.00  0.00    +0.000 A 
ATOM     30  C   UNL     1       3.872   3.967  17.177  0.00  0.00    +0.000 A 
ATOM     31  C   UNL     1       4.969   4.042  14.908  0.00  0.00    +0.000 C 
ATOM     32  N   UNL     1       5.993   4.830  14.287  0.00  0.00    +0.000 N 
ATOM     33  C   UNL     1       7.211   5.067  14.862  0.00  0.00    +0.000 C 
ATOM     34  O   UNL     1       8.153   5.476  14.190  0.00  0.00    +0.000 OA
ATOM     35  O   UNL     1       7.331   4.841  16.233  0.00  0.00    +0.000 OA
ATOM     36  H   UNL     1       5.993   4.938  13.282  0.00  0.00    +0.000 HD
ENDBRANCH  23  25
ENDBRANCH   1  19
TORSDOF 4
ENDMDL
MODEL 2
REMARK VINA RESULT:      -8.5      6.595     11.212
REMARK  Name = 
REMARK  5 active torsions:
REMARK  status: ('A' for Active; 'I' for Inactive)
REMARK    1  A    between atoms: C_1  and  C_2
REMARK    2  A    between atoms: N_4  and  C_5
REMARK    3  A    between atoms: C_5  and  C_6
REMARK    4  A    between atoms: C_10  and  C_11
REMARK    5  A    between atoms: C_28  and  C_29
REMARK                            x       y       z     vdW  Elec       q    Type
REMARK                         _______ _______ _______ _____ _____    ______ ____
ROOT
ATOM      1  C   UNL     1       0.238  13.949  20.035  0.00  0.00    +0.000 C 
ENDROOT
BRANCH   1   5
ATOM      2  C   UNL     1      -0.230   9.931  22.102  0.00  0.00    +0.000 C 
ATOM      3  C   UNL     1       0.846  10.300  21.082  0.00  0.00    +0.000 C 
ATOM      4  C   UNL     1       0.996  11.839  20.914  0.00  0.00    +0.000 C 
ATOM      5  N   UNL     1      -0.090  12.509  20.154  0.00  0.00    +0.000 NA
ATOM      6  C   UNL     1      -0.172  11.856  18.822  0.00  0.00    +0.000 C 
ATOM      7  C   UNL     1      -0.389  10.328  18.896  0.00  0.00    +0.000 C 
ATOM      8  N   UNL     1       0.553   9.653  19.795  0.00  0.00    +0.000 N 
ATOM      9  C   UNL     1       1.447   8.726  19.286  0.00  0.00    +0.000 A 
ATOM     10  C   UNL     1       1.871   7.663  20.086  0.00  0.00    +0.000 A 
ATOM     11  C   UNL     1       2.715   6.681  19.570  0.00  0.00    +0.000 A 
ATOM     12  C   UNL     1       3.151   6.780  18.252  0.00  0.00    +0.000 A 
ATOM     13  C   UNL     1       2.715   7.880  17.528  0.00  0.00    +0.000 A 
ATOM     14  N   UNL     1       1.870   8.830  18.007  0.00  0.00    +0.000 NA
BRANCH  12  15
ATOM     15  C   UNL     1       4.030   5.752  17.616  0.00  0.00    +0.000 C 
ATOM     16  F   UNL     1       4.722   6.223  16.538  0.00  0.00    +0.000 F 
ATOM     17  F   UNL     1       4.971   5.266  18.472  0.00  0.00    +0.000 F 
ATOM     18  F   UNL     1       3.338   4.670  17.168  0.00  0.00    +0.000 F 
ENDBRANCH  12  15
ENDBRANCH   1   5
BRANCH   1  19
ATOM     19  C   UNL     1       0.097  14.721  21.313  0.00  0.00    +0.000 A 
ATOM     20  N   UNL     1       1.062  15.574  21.702  0.00  0.00    +0.000 NA
ATOM     21  N   UNL     1       0.564  16.044  22.851  0.00  0.00    +0.000 N 
ATOM     22  N   UNL     1      -0.625  15.589  23.263  0.00  0.00    +0.000 NA
ATOM     23  C   UNL     1      -0.944  14.717  22.291  0.00  0.00    +0.000 A 
ATOM     24  H   UNL     1       1.074  16.737  23.394  0.00  0.00    +0.000 HD
BRANCH  23  25
ATOM     25  C   UNL     1      -2.221  14.014  22.268  0.00  0.00    +0.000 A 
ATOM     26  C   UNL     1      -3.088  14.102  21.171  0.00  0.00    +0.000 A 
ATOM     27  C   UNL     1      -4.383  13.594  21.252  0.00  0.00    +0.000 A 
ATOM     28  C   UNL     1      -4.805  13.006  22.443  0.00  0.00    +0.000 A 
ATOM     29  C   UNL     1      -3.947  12.858  23.524  0.00  0.00    +0.000 A 
ATOM     30  C   UNL     1      -2.637  13.329  23.420  0.00  0.00    +0.000 A 
ATOM     31  C   UNL     1      -4.457  12.210  24.760  0.00  0.00    +0.000 C 
ATOM     32  N   UNL     1      -5.883  12.330  24.858  0.00  0.00    +0.000 N 
ATOM     33  C   UNL     1      -6.713  12.336  23.771  0.00  0.00    +0.000 C 
ATOM     34  O   UNL     1      -7.916  12.135  23.899  0.00  0.00    +0.000 OA
ATOM     35  O   UNL     1      -6.141  12.592  22.525  0.00  0.00    +0.000 OA
ATOM     36  H   UNL     1      -6.343  12.062  25.716  0.00  0.00    +0.000 HD
ENDBRANCH  23  25
ENDBRANCH   1  19
TORSDOF 4
ENDMDL
MODEL 3
REMARK VINA RESULT:      -8.4      1.119      1.330
REMARK  Name = 
REMARK  5 active torsions:
REMARK  status: ('A' for Active; 'I' for Inactive)
REMARK    1  A    between atoms: C_1  and  C_2
REMARK    2  A    between atoms: N_4  and  C_5
REMARK    3  A    between atoms: C_5  and  C_6
REMARK    4  A    between atoms: C_10  and  C_11
REMARK    5  A    between atoms: C_28  and  C_29
REMARK                            x       y       z     vdW  Elec       q    Type
REMARK                         _______ _______ _______ _____ _____    ______ ____
ROOT
ATOM      1  C   UNL     1       2.514   7.579  19.120  0.00  0.00    +0.000 C 
ENDROOT
BRANCH   1   5
ATOM      2  C   UNL     1      -1.148   9.981  17.918  0.00  0.00    +0.000 C 
ATOM      3  C   UNL     1       0.161  10.547  18.466  0.00  0.00    +0.000 C 
ATOM      4  C   UNL     1       1.334   9.533  18.354  0.00  0.00    +0.000 C 
ATOM      5  N   UNL     1       1.302   8.407  19.323  0.00  0.00    +0.000 NA
ATOM      6  C   UNL     1       1.264   8.994  20.687  0.00  0.00    +0.000 C 
ATOM      7  C   UNL     1       0.084   9.966  20.908  0.00  0.00    +0.000 C 
ATOM      8  N   UNL     1      -0.031  10.983  19.857  0.00  0.00    +0.000 N 
ATOM      9  C   UNL     1       0.128  12.322  20.173  0.00  0.00    +0.000 A 
ATOM     10  C   UNL     1      -0.558  13.291  19.439  0.00  0.00    +0.000 A 
ATOM     11  C   UNL     1      -0.466  14.638  19.787  0.00  0.00    +0.000 A 
ATOM     12  C   UNL     1       0.335  15.013  20.861  0.00  0.00    +0.000 A 
ATOM     13  C   UNL     1       1.012  14.000  21.523  0.00  0.00    +0.000 A 
ATOM     14  N   UNL     1       0.911  12.679  21.214  0.00  0.00    +0.000 NA
BRANCH  12  15
ATOM     15  C   UNL     1       0.460  16.432  21.315  0.00  0.00    +0.000 C 
ATOM     16  F   UNL     1       0.677  17.310  20.295  0.00  0.00    +0.000 F 
ATOM     17  F   UNL     1      -0.658  16.877  21.953  0.00  0.00    +0.000 F 
ATOM     18  F   UNL     1       1.487  16.617  22.189  0.00  0.00    +0.000 F 
ENDBRANCH  12  15
ENDBRANCH   1   5
BRANCH   1  19
ATOM     19  C   UNL     1       2.449   6.223  19.759  0.00  0.00    +0.000 A 
ATOM     20  N   UNL     1       1.462   5.926  20.624  0.00  0.00    +0.000 NA
ATOM     21  N   UNL     1       1.758   4.663  20.952  0.00  0.00    +0.000 N 
ATOM     22  N   UNL     1       2.837   4.097  20.399  0.00  0.00    +0.000 NA
ATOM     23  C   UNL     1       3.314   5.094  19.632  0.00  0.00    +0.000 A 
ATOM     24  H   UNL     1       1.171   4.144  21.600  0.00  0.00    +0.000 HD
BRANCH  23  25
ATOM     25  C   UNL     1       4.468   4.917  18.760  0.00  0.00    +0.000 A 
ATOM     26  C   UNL     1       5.760   5.275  19.170  0.00  0.00    +0.000 A 
ATOM     27  C   UNL     1       6.811   5.290  18.256  0.00  0.00    +0.000 A 
ATOM     28  C   UNL     1       6.558   4.953  16.928  0.00  0.00    +0.000 A 
ATOM     29  C   UNL     1       5.299   4.543  16.510  0.00  0.00    +0.000 A 
ATOM     30  C   UNL     1       4.260   4.486  17.440  0.00  0.00    +0.000 A 
ATOM     31  C   UNL     1       5.101   4.184  15.082  0.00  0.00    +0.000 C 
ATOM     32  N   UNL     1       6.069   4.831  14.245  0.00  0.00    +0.000 N 
ATOM     33  C   UNL     1       7.349   5.099  14.646  0.00  0.00    +0.000 C 
ATOM     34  O   UNL     1       8.220   5.367  13.825  0.00  0.00    +0.000 OA
ATOM     35  O   UNL     1       7.614   5.071  16.016  0.00  0.00    +0.000 OA
ATOM     36  H   UNL     1       5.960   4.790  13.242  0.00  0.00    +0.000 HD
ENDBRANCH  23  25
ENDBRANCH   1  19
TORSDOF 4
ENDMDL
MODEL 4
REMARK VINA RESULT:      -8.4      3.277      4.198
REMARK  Name = 
REMARK  5 active torsions:
REMARK  status: ('A' for Active; 'I' for Inactive)
REMARK    1  A    between atoms: C_1  and  C_2
REMARK    2  A    between atoms: N_4  and  C_5
REMARK    3  A    between atoms: C_5  and  C_6
REMARK    4  A    between atoms: C_10  and  C_11
REMARK    5  A    between atoms: C_28  and  C_29
REMARK                            x       y       z     vdW  Elec       q    Type
REMARK                         _______ _______ _______ _____ _____    ______ ____
ROOT
ATOM      1  C   UNL     1       2.907   6.111  19.939  0.00  0.00    +0.000 C 
ENDROOT
BRANCH   1   5
ATOM      2  C   UNL     1       1.826  10.402  20.959  0.00  0.00    +0.000 C 
ATOM      3  C   UNL     1       0.896   9.363  20.336  0.00  0.00    +0.000 C 
ATOM      4  C   UNL     1       1.421   7.912  20.528  0.00  0.00    +0.000 C 
ATOM      5  N   UNL     1       2.576   7.531  19.675  0.00  0.00    +0.000 NA
ATOM      6  C   UNL     1       2.177   7.746  18.261  0.00  0.00    +0.000 C 
ATOM      7  C   UNL     1       1.703   9.186  17.965  0.00  0.00    +0.000 C 
ATOM      8  N   UNL     1       0.693   9.668  18.913  0.00  0.00    +0.000 N 
ATOM      9  C   UNL     1      -0.580   9.980  18.463  0.00  0.00    +0.000 A 
ATOM     10  C   UNL     1      -1.316  10.974  19.109  0.00  0.00    +0.000 A 
ATOM     11  C   UNL     1      -2.570  11.351  18.629  0.00  0.00    +0.000 A 
ATOM     12  C   UNL     1      -3.092  10.711  17.510  0.00  0.00    +0.000 A 
ATOM     13  C   UNL     1      -2.319   9.711  16.940  0.00  0.00    +0.000 A 
ATOM     14  N   UNL     1      -1.083   9.351  17.379  0.00  0.00    +0.000 NA
BRANCH  12  15
ATOM     15  C   UNL     1      -4.414  11.079  16.916  0.00  0.00    +0.000 C 
ATOM     16  F   UNL     1      -5.471  10.472  17.527  0.00  0.00    +0.000 F 
ATOM     17  F   UNL     1      -4.666  12.416  16.988  0.00  0.00    +0.000 F 
ATOM     18  F   UNL     1      -4.510  10.753  15.599  0.00  0.00    +0.000 F 
ENDBRANCH  12  15
ENDBRANCH   1   5
BRANCH   1  19
ATOM     19  C   UNL     1       2.336   5.149  18.940  0.00  0.00    +0.000 A 
ATOM     20  N   UNL     1       1.066   4.721  19.057  0.00  0.00    +0.000 NA
ATOM     21  N   UNL     1       0.954   3.906  18.002  0.00  0.00    +0.000 N 
ATOM     22  N   UNL     1       2.017   3.746  17.204  0.00  0.00    +0.000 NA
ATOM     23  C   UNL     1       2.934   4.531  17.799  0.00  0.00    +0.000 A 
ATOM     24  H   UNL     1       0.080   3.424  17.808  0.00  0.00    +0.000 HD
BRANCH  23  25
ATOM     25  C   UNL     1       4.259   4.740  17.232  0.00  0.00    +0.000 A 
ATOM     26  C   UNL     1       5.128   5.717  17.737  0.00  0.00    +0.000 A 
ATOM     27  C   UNL     1       6.300   6.040  17.056  0.00  0.00    +0.000 A 
ATOM     28  C   UNL     1       6.591   5.385  15.862  0.00  0.00    +0.000 A 
ATOM     29  C   UNL     1       5.774   4.376  15.370  0.00  0.00    +0.000 A 
ATOM     30  C   UNL     1       4.624   4.025  16.081  0.00  0.00    +0.000 A 
ATOM     31  C   UNL     1       6.149   3.707  14.097  0.00  0.00    +0.000 C 
ATOM     32  N   UNL     1       6.976   4.557  13.290  0.00  0.00    +0.000 N 
ATOM     33  C   UNL     1       7.872   5.448  13.812  0.00  0.00    +0.000 C 
ATOM     34  O   UNL     1       8.760   5.927  13.113  0.00  0.00    +0.000 OA
ATOM     35  O   UNL     1       7.725   5.799  15.154  0.00  0.00    +0.000 OA
ATOM     36  H   UNL     1       7.183   4.286  12.339  0.00  0.00    +0.000 HD
ENDBRANCH  23  25
ENDBRANCH   1  19
TORSDOF 4
ENDMDL
MODEL 5
REMARK VINA RESULT:      -8.4      0.916      1.146
REMARK  Name = 
REMARK  5 active torsions:
REMARK  status: ('A' for Active; 'I' for Inactive)
REMARK    1  A    between atoms: C_1  and  C_2
REMARK    2  A    between atoms: N_4  and  C_5
REMARK    3  A    between atoms: C_5  and  C_6
REMARK    4  A    between atoms: C_10  and  C_11
REMARK    5  A    between atoms: C_28  and  C_29
REMARK                            x       y       z     vdW  Elec       q    Type
REMARK                         _______ _______ _______ _____ _____    ______ ____
ROOT
ATOM      1  C   UNL     1       2.247   6.938  20.536  0.00  0.00    +0.000 C 
ENDROOT
BRANCH   1   5
ATOM      2  C   UNL     1      -0.308   9.633  17.920  0.00  0.00    +0.000 C 
ATOM      3  C   UNL     1       0.972  10.036  18.650  0.00  0.00    +0.000 C 
ATOM      4  C   UNL     1       1.821   8.805  19.076  0.00  0.00    +0.000 C 
ATOM      5  N   UNL     1       1.293   8.029  20.227  0.00  0.00    +0.000 NA
ATOM      6  C   UNL     1       1.149   8.968  21.369  0.00  0.00    +0.000 C 
ATOM      7  C   UNL     1       0.261  10.193  21.054  0.00  0.00    +0.000 C 
ATOM      8  N   UNL     1       0.638  10.875  19.811  0.00  0.00    +0.000 N 
ATOM      9  C   UNL     1       1.092  12.182  19.853  0.00  0.00    +0.000 A 
ATOM     10  C   UNL     1       0.855  13.030  18.770  0.00  0.00    +0.000 A 
ATOM     11  C   UNL     1       1.242  14.369  18.822  0.00  0.00    +0.000 A 
ATOM     12  C   UNL     1       1.888  14.849  19.956  0.00  0.00    +0.000 A 
ATOM     13  C   UNL     1       2.118  13.941  20.979  0.00  0.00    +0.000 A 
ATOM     14  N   UNL     1       1.722  12.641  20.956  0.00  0.00    +0.000 NA
BRANCH  12  15
ATOM     15  C   UNL     1       2.305  16.278  20.102  0.00  0.00    +0.000 C 
ATOM     16  F   UNL     1       2.893  16.551  21.301  0.00  0.00    +0.000 F 
ATOM     17  F   UNL     1       3.207  16.658  19.155  0.00  0.00    +0.000 F 
ATOM     18  F   UNL     1       1.263  17.146  19.993  0.00  0.00    +0.000 F 
ENDBRANCH  12  15
ENDBRANCH   1   5
BRANCH   1  19
ATOM     19  C   UNL     1       1.864   5.605  19.967  0.00  0.00    +0.000 A 
ATOM     20  N   UNL     1       0.780   4.955  20.427  0.00  0.00    +0.000 NA
ATOM     21  N   UNL     1       0.790   3.844  19.681  0.00  0.00    +0.000 N 
ATOM     22  N   UNL     1       1.768   3.690  18.781  0.00  0.00    +0.000 NA
ATOM     23  C   UNL     1       2.489   4.812  18.956  0.00  0.00    +0.000 A 
ATOM     24  H   UNL     1       0.067   3.137  19.791  0.00  0.00    +0.000 HD
BRANCH  23  25
ATOM     25  C   UNL     1       3.641   5.132  18.122  0.00  0.00    +0.000 A 
ATOM     26  C   UNL     1       4.000   6.458  17.844  0.00  0.00    +0.000 A 
ATOM     27  C   UNL     1       4.971   6.739  16.885  0.00  0.00    +0.000 A 
ATOM     28  C   UNL     1       5.573   5.685  16.202  0.00  0.00    +0.000 A 
ATOM     29  C   UNL     1       5.272   4.362  16.498  0.00  0.00    +0.000 A 
ATOM     30  C   UNL     1       4.331   4.085  17.491  0.00  0.00    +0.000 A 
ATOM     31  C   UNL     1       5.960   3.285  15.741  0.00  0.00    +0.000 C 
ATOM     32  N   UNL     1       6.408   3.754  14.461  0.00  0.00    +0.000 N 
ATOM     33  C   UNL     1       6.827   5.037  14.237  0.00  0.00    +0.000 C 
ATOM     34  O   UNL     1       7.477   5.318  13.235  0.00  0.00    +0.000 OA
ATOM     35  O   UNL     1       6.474   6.004  15.178  0.00  0.00    +0.000 OA
ATOM     36  H   UNL     1       6.761   3.090  13.787  0.00  0.00    +0.000 HD
ENDBRANCH  23  25
ENDBRANCH   1  19
TORSDOF 4
ENDMDL
MODEL 6
REMARK VINA RESULT:      -8.4      6.231     11.254
REMARK  Name = 
REMARK  5 active torsions:
REMARK  status: ('A' for Active; 'I' for Inactive)
REMARK    1  A    between atoms: C_1  and  C_2
REMARK    2  A    between atoms: N_4  and  C_5
REMARK    3  A    between atoms: C_5  and  C_6
REMARK    4  A    between atoms: C_10  and  C_11
REMARK    5  A    between atoms: C_28  and  C_29
REMARK                            x       y       z     vdW  Elec       q    Type
REMARK                         _______ _______ _______ _____ _____    ______ ____
ROOT
ATOM      1  C   UNL     1       0.539  15.345  19.183  0.00  0.00    +0.000 C 
ENDROOT
BRANCH   1   5
ATOM      2  C   UNL     1      -0.697  11.944  21.927  0.00  0.00    +0.000 C 
ATOM      3  C   UNL     1       0.465  11.925  20.936  0.00  0.00    +0.000 C 
ATOM      4  C   UNL     1       0.886  13.355  20.493  0.00  0.00    +0.000 C 
ATOM      5  N   UNL     1      -0.039  14.030  19.546  0.00  0.00    +0.000 NA
ATOM      6  C   UNL     1      -0.181  13.150  18.358  0.00  0.00    +0.000 C 
ATOM      7  C   UNL     1      -0.662  11.723  18.701  0.00  0.00    +0.000 C 
ATOM      8  N   UNL     1       0.114  11.093  19.775  0.00  0.00    +0.000 N 
ATOM      9  C   UNL     1       0.852   9.952  19.514  0.00  0.00    +0.000 A 
ATOM     10  C   UNL     1       1.055   9.013  20.527  0.00  0.00    +0.000 A 
ATOM     11  C   UNL     1       1.735   7.824  20.265  0.00  0.00    +0.000 A 
ATOM     12  C   UNL     1       2.232   7.590  18.986  0.00  0.00    +0.000 A 
ATOM     13  C   UNL     1       2.021   8.581  18.040  0.00  0.00    +0.000 A 
ATOM     14  N   UNL     1       1.336   9.733  18.271  0.00  0.00    +0.000 NA
BRANCH  12  15
ATOM     15  C   UNL     1       2.943   6.328  18.618  0.00  0.00    +0.000 C 
ATOM     16  F   UNL     1       3.206   5.523  19.687  0.00  0.00    +0.000 F 
ATOM     17  F   UNL     1       2.231   5.562  17.746  0.00  0.00    +0.000 F 
ATOM     18  F   UNL     1       4.145   6.554  18.020  0.00  0.00    +0.000 F 
ENDBRANCH  12  15
ENDBRANCH   1   5
BRANCH   1  19
ATOM     19  C   UNL     1      -0.476  16.431  18.983  0.00  0.00    +0.000 A 
ATOM     20  N   UNL     1      -0.396  17.248  17.917  0.00  0.00    +0.000 NA
ATOM     21  N   UNL     1      -1.453  18.046  18.105  0.00  0.00    +0.000 N 
ATOM     22  N   UNL     1      -2.218  17.846  19.184  0.00  0.00    +0.000 NA
ATOM     23  C   UNL     1      -1.597  16.813  19.781  0.00  0.00    +0.000 A 
ATOM     24  H   UNL     1      -1.673  18.783  17.439  0.00  0.00    +0.000 HD
BRANCH  23  25
ATOM     25  C   UNL     1      -2.125  16.181  20.984  0.00  0.00    +0.000 A 
ATOM     26  C   UNL     1      -1.429  16.222  22.199  0.00  0.00    +0.000 A 
ATOM     27  C   UNL     1      -1.846  15.443  23.277  0.00  0.00    +0.000 A 
ATOM     28  C   UNL     1      -2.957  14.618  23.125  0.00  0.00    +0.000 A 
ATOM     29  C   UNL     1      -3.695  14.601  21.949  0.00  0.00    +0.000 A 
ATOM     30  C   UNL     1      -3.299  15.418  20.888  0.00  0.00    +0.000 A 
ATOM     31  C   UNL     1      -4.878  13.708  21.858  0.00  0.00    +0.000 C 
ATOM     32  N   UNL     1      -4.766  12.605  22.768  0.00  0.00    +0.000 N 
ATOM     33  C   UNL     1      -4.148  12.695  23.984  0.00  0.00    +0.000 C 
ATOM     34  O   UNL     1      -4.333  11.842  24.847  0.00  0.00    +0.000 OA
ATOM     35  O   UNL     1      -3.293  13.777  24.194  0.00  0.00    +0.000 OA
ATOM     36  H   UNL     1      -5.429  11.845  22.707  0.00  0.00    +0.000 HD
ENDBRANCH  23  25
ENDBRANCH   1  19
TORSDOF 4
ENDMDL
MODEL 7
REMARK VINA RESULT:      -8.4      6.675     11.325
REMARK  Name = 
REMARK  5 active torsions:
REMARK  status: ('A' for Active; 'I' for Inactive)
REMARK    1  A    between atoms: C_1  and  C_2
REMARK    2  A    between atoms: N_4  and  C_5
REMARK    3  A    between atoms: C_5  and  C_6
REMARK    4  A    between atoms: C_10  and  C_11
REMARK    5  A    between atoms: C_28  and  C_29
REMARK                            x       y       z     vdW  Elec       q    Type
REMARK                         _______ _______ _______ _____ _____    ______ ____
ROOT
ATOM      1  C   UNL     1      -0.796  13.848  20.188  0.00  0.00    +0.000 C 
ENDROOT
BRANCH   1   5
ATOM      2  C   UNL     1      -0.484   9.850  22.321  0.00  0.00    +0.000 C 
ATOM      3  C   UNL     1       0.451  10.363  21.227  0.00  0.00    +0.000 C 
ATOM      4  C   UNL     1       0.344  11.903  21.033  0.00  0.00    +0.000 C 
ATOM      5  N   UNL     1      -0.883  12.377  20.343  0.00  0.00    +0.000 NA
ATOM      6  C   UNL     1      -0.947  11.693  19.026  0.00  0.00    +0.000 C 
ATOM      7  C   UNL     1      -0.914  10.151  19.130  0.00  0.00    +0.000 C 
ATOM      8  N   UNL     1       0.180   9.652  19.969  0.00  0.00    +0.000 N 
ATOM      9  C   UNL     1       1.174   8.867  19.409  0.00  0.00    +0.000 A 
ATOM     10  C   UNL     1       1.813   7.902  20.189  0.00  0.00    +0.000 A 
ATOM     11  C   UNL     1       2.767   7.054  19.625  0.00  0.00    +0.000 A 
ATOM     12  C   UNL     1       3.094   7.194  18.280  0.00  0.00    +0.000 A 
ATOM     13  C   UNL     1       2.443   8.196  17.577  0.00  0.00    +0.000 A 
ATOM     14  N   UNL     1       1.490   9.011  18.104  0.00  0.00    +0.000 NA
BRANCH  12  15
ATOM     15  C   UNL     1       4.081   6.305  17.595  0.00  0.00    +0.000 C 
ATOM     16  F   UNL     1       4.751   6.920  16.579  0.00  0.00    +0.000 F 
ATOM     17  F   UNL     1       5.043   5.842  18.441  0.00  0.00    +0.000 F 
ATOM     18  F   UNL     1       3.506   5.201  17.046  0.00  0.00    +0.000 F 
ENDBRANCH  12  15
ENDBRANCH   1   5
BRANCH   1  19
ATOM     19  C   UNL     1      -0.257  14.564  21.390  0.00  0.00    +0.000 A 
ATOM     20  N   UNL     1       0.860  15.307  21.295  0.00  0.00    +0.000 NA
ATOM     21  N   UNL     1       0.995  15.761  22.546  0.00  0.00    +0.000 N 
ATOM     22  N   UNL     1       0.088  15.392  23.458  0.00  0.00    +0.000 NA
ATOM     23  C   UNL     1      -0.729  14.602  22.738  0.00  0.00    +0.000 A 
ATOM     24  H   UNL     1       1.765  16.377  22.796  0.00  0.00    +0.000 HD
BRANCH  23  25
ATOM     25  C   UNL     1      -1.937  14.016  23.304  0.00  0.00    +0.000 A 
ATOM     26  C   UNL     1      -2.060  12.634  23.499  0.00  0.00    +0.000 A 
ATOM     27  C   UNL     1      -3.289  12.076  23.845  0.00  0.00    +0.000 A 
ATOM     28  C   UNL     1      -4.395  12.912  23.985  0.00  0.00    +0.000 A 
ATOM     29  C   UNL     1      -4.287  14.289  23.849  0.00  0.00    +0.000 A 
ATOM     30  C   UNL     1      -3.042  14.846  23.547  0.00  0.00    +0.000 A 
ATOM     31  C   UNL     1      -5.503  15.124  24.025  0.00  0.00    +0.000 C 
ATOM     32  N   UNL     1      -6.693  14.369  23.761  0.00  0.00    +0.000 N 
ATOM     33  C   UNL     1      -6.811  13.034  24.035  0.00  0.00    +0.000 C 
ATOM     34  O   UNL     1      -7.914  12.498  24.083  0.00  0.00    +0.000 OA
ATOM     35  O   UNL     1      -5.635  12.311  24.238  0.00  0.00    +0.000 OA
ATOM     36  H   UNL     1      -7.580  14.848  23.702  0.00  0.00    +0.000 HD
ENDBRANCH  23  25
ENDBRANCH   1  19
TORSDOF 4
ENDMDL
MODEL 8
REMARK VINA RESULT:      -8.3      6.189     10.816
REMARK  Name = 
REMARK  5 active torsions:
REMARK  status: ('A' for Active; 'I' for Inactive)
REMARK    1  A    between atoms: C_1  and  C_2
REMARK    2  A    between atoms: N_4  and  C_5
REMARK    3  A    between atoms: C_5  and  C_6
REMARK    4  A    between atoms: C_10  and  C_11
REMARK    5  A    between atoms: C_28  and  C_29
REMARK                            x       y       z     vdW  Elec       q    Type
REMARK                         _______ _______ _______ _____ _____    ______ ____
ROOT
ATOM      1  C   UNL     1       0.334  14.058  19.830  0.00  0.00    +0.000 C 
ENDROOT
BRANCH   1   5
ATOM      2  C   UNL     1      -0.268  10.076  21.930  0.00  0.00    +0.000 C 
ATOM      3  C   UNL     1       0.844  10.413  20.939  0.00  0.00    +0.000 C 
ATOM      4  C   UNL     1       1.027  11.946  20.756  0.00  0.00    +0.000 C 
ATOM      5  N   UNL     1      -0.024  12.626  19.956  0.00  0.00    +0.000 NA
ATOM      6  C   UNL     1      -0.078  11.958  18.631  0.00  0.00    +0.000 C 
ATOM      7  C   UNL     1      -0.326  10.435  18.716  0.00  0.00    +0.000 C 
ATOM      8  N   UNL     1       0.577   9.754  19.651  0.00  0.00    +0.000 N 
ATOM      9  C   UNL     1       1.468   8.805  19.180  0.00  0.00    +0.000 A 
ATOM     10  C   UNL     1       1.849   7.746  20.005  0.00  0.00    +0.000 A 
ATOM     11  C   UNL     1       2.690   6.742  19.525  0.00  0.00    +0.000 A 
ATOM     12  C   UNL     1       3.166   6.817  18.220  0.00  0.00    +0.000 A 
ATOM     13  C   UNL     1       2.772   7.914  17.470  0.00  0.00    +0.000 A 
ATOM     14  N   UNL     1       1.931   8.886  17.913  0.00  0.00    +0.000 NA
BRANCH  12  15
ATOM     15  C   UNL     1       4.045   5.765  17.623  0.00  0.00    +0.000 C 
ATOM     16  F   UNL     1       4.492   6.078  16.373  0.00  0.00    +0.000 F 
ATOM     17  F   UNL     1       5.162   5.533  18.366  0.00  0.00    +0.000 F 
ATOM     18  F   UNL     1       3.421   4.562  17.502  0.00  0.00    +0.000 F 
ENDBRANCH  12  15
ENDBRANCH   1   5
BRANCH   1  19
ATOM     19  C   UNL     1       0.524  14.765  21.139  0.00  0.00    +0.000 A 
ATOM     20  N   UNL     1       1.632  15.494  21.363  0.00  0.00    +0.000 NA
ATOM     21  N   UNL     1       1.417  15.943  22.605  0.00  0.00    +0.000 N 
ATOM     22  N   UNL     1       0.287  15.583  23.226  0.00  0.00    +0.000 NA
ATOM     23  C   UNL     1      -0.304  14.805  22.302  0.00  0.00    +0.000 A 
ATOM     24  H   UNL     1       2.093  16.548  23.063  0.00  0.00    +0.000 HD
BRANCH  23  25
ATOM     25  C   UNL     1      -1.629  14.232  22.504  0.00  0.00    +0.000 A 
ATOM     26  C   UNL     1      -1.837  13.155  23.376  0.00  0.00    +0.000 A 
ATOM     27  C   UNL     1      -3.064  12.494  23.400  0.00  0.00    +0.000 A 
ATOM     28  C   UNL     1      -4.075  12.913  22.539  0.00  0.00    +0.000 A 
ATOM     29  C   UNL     1      -3.911  14.011  21.705  0.00  0.00    +0.000 A 
ATOM     30  C   UNL     1      -2.695  14.697  21.719  0.00  0.00    +0.000 A 
ATOM     31  C   UNL     1      -5.034  14.413  20.821  0.00  0.00    +0.000 C 
ATOM     32  N   UNL     1      -5.905  13.305  20.551  0.00  0.00    +0.000 N 
ATOM     33  C   UNL     1      -6.150  12.307  21.453  0.00  0.00    +0.000 C 
ATOM     34  O   UNL     1      -7.111  11.557  21.313  0.00  0.00    +0.000 OA
ATOM     35  O   UNL     1      -5.261  12.168  22.519  0.00  0.00    +0.000 OA
ATOM     36  H   UNL     1      -6.625  13.402  19.850  0.00  0.00    +0.000 HD
ENDBRANCH  23  25
ENDBRANCH   1  19
TORSDOF 4
ENDMDL
MODEL 9
REMARK VINA RESULT:      -8.1      6.385      9.935
REMARK  Name = 
REMARK  5 active torsions:
REMARK  status: ('A' for Active; 'I' for Inactive)
REMARK    1  A    between atoms: C_1  and  C_2
REMARK    2  A    between atoms: N_4  and  C_5
REMARK    3  A    between atoms: C_5  and  C_6
REMARK    4  A    between atoms: C_10  and  C_11
REMARK    5  A    between atoms: C_28  and  C_29
REMARK                            x       y       z     vdW  Elec       q    Type
REMARK                         _______ _______ _______ _____ _____    ______ ____
ROOT
ATOM      1  C   UNL     1      -5.142  14.418  22.806  0.00  0.00    +0.000 C 
ENDROOT
BRANCH   1   5
ATOM      2  C   UNL     1      -0.661  15.160  22.843  0.00  0.00    +0.000 C 
ATOM      3  C   UNL     1      -1.419  14.268  21.861  0.00  0.00    +0.000 C 
ATOM      4  C   UNL     1      -2.942  14.577  21.839  0.00  0.00    +0.000 C 
ATOM      5  N   UNL     1      -3.710  14.098  23.017  0.00  0.00    +0.000 NA
ATOM      6  C   UNL     1      -3.489  12.633  23.128  0.00  0.00    +0.000 C 
ATOM      7  C   UNL     1      -1.998  12.240  23.224  0.00  0.00    +0.000 C 
ATOM      8  N   UNL     1      -1.170  12.854  22.181  0.00  0.00    +0.000 N 
ATOM      9  C   UNL     1      -0.527  12.054  21.252  0.00  0.00    +0.000 A 
ATOM     10  C   UNL     1       0.686  12.473  20.701  0.00  0.00    +0.000 A 
ATOM     11  C   UNL     1       1.383  11.651  19.817  0.00  0.00    +0.000 A 
ATOM     12  C   UNL     1       0.849  10.414  19.470  0.00  0.00    +0.000 A 
ATOM     13  C   UNL     1      -0.375  10.079  20.031  0.00  0.00    +0.000 A 
ATOM     14  N   UNL     1      -1.053  10.857  20.915  0.00  0.00    +0.000 NA
BRANCH  12  15
ATOM     15  C   UNL     1       1.550   9.462  18.555  0.00  0.00    +0.000 C 
ATOM     16  F   UNL     1       2.611  10.019  17.903  0.00  0.00    +0.000 F 
ATOM     17  F   UNL     1       2.050   8.378  19.211  0.00  0.00    +0.000 F 
ATOM     18  F   UNL     1       0.736   8.967  17.583  0.00  0.00    +0.000 F 
ENDBRANCH  12  15
ENDBRANCH   1   5
BRANCH   1  19
ATOM     19  C   UNL     1      -6.053  13.228  22.846  0.00  0.00    +0.000 A 
ATOM     20  N   UNL     1      -6.657  12.873  23.995  0.00  0.00    +0.000 NA
ATOM     21  N   UNL     1      -7.359  11.800  23.614  0.00  0.00    +0.000 N 
ATOM     22  N   UNL     1      -7.278  11.406  22.338  0.00  0.00    +0.000 NA
ATOM     23  C   UNL     1      -6.424  12.306  21.820  0.00  0.00    +0.000 A 
ATOM     24  H   UNL     1      -7.946  11.300  24.278  0.00  0.00    +0.000 HD
BRANCH  23  25
ATOM     25  C   UNL     1      -6.082  12.325  20.403  0.00  0.00    +0.000 A 
ATOM     26  C   UNL     1      -7.071  12.356  19.411  0.00  0.00    +0.000 A 
ATOM     27  C   UNL     1      -6.733  12.167  18.072  0.00  0.00    +0.000 A 
ATOM     28  C   UNL     1      -5.400  11.939  17.737  0.00  0.00    +0.000 A 
ATOM     29  C   UNL     1      -4.396  11.957  18.696  0.00  0.00    +0.000 A 
ATOM     30  C   UNL     1      -4.736  12.193  20.030  0.00  0.00    +0.000 A 
ATOM     31  C   UNL     1      -2.993  11.720  18.269  0.00  0.00    +0.000 C 
ATOM     32  N   UNL     1      -2.943  10.969  17.049  0.00  0.00    +0.000 N 
ATOM     33  C   UNL     1      -3.883  11.077  16.061  0.00  0.00    +0.000 C 
ATOM     34  O   UNL     1      -3.654  10.663  14.929  0.00  0.00    +0.000 OA
ATOM     35  O   UNL     1      -5.106  11.657  16.397  0.00  0.00    +0.000 OA
ATOM     36  H   UNL     1      -2.055  10.613  16.723  0.00  0.00    +0.000 HD
ENDBRANCH  23  25
ENDBRANCH   1  19
TORSDOF 4
ENDMDL
