MODEL 1
REMARK VINA RESULT:      -8.2      0.000      0.000
REMARK  Name = 
REMARK  14 active torsions:
REMARK  status: ('A' for Active; 'I' for Inactive)
REMARK    1  A    between atoms: C_1  and  C_2
REMARK    2  A    between atoms: C_2  and  O_4
REMARK    3  A    between atoms: O_4  and  C_5
REMARK    4  A    between atoms: C_8  and  C_9
REMARK    5  A    between atoms: C_9  and  C_11
REMARK    6  A    between atoms: C_14  and  O_15
REMARK    7  A    between atoms: O_15  and  C_16
REMARK    8  A    between atoms: C_16  and  C_17
REMARK    9  A    between atoms: C_19  and  O_20
REMARK   10  A    between atoms: O_20  and  C_21
REMARK   11  A    between atoms: C_21  and  C_22
REMARK   12  A    between atoms: C_26  and  O_27
REMARK   13  A    between atoms: O_27  and  C_28
REMARK   14  A    between atoms: C_28  and  C_29
REMARK                            x       y       z     vdW  Elec       q    Type
REMARK                         _______ _______ _______ _____ _____    ______ ____
ROOT
ATOM      1  C   UNL     1       2.944   5.500  19.271  0.00  0.00    +0.000 C 
ATOM      2  O   UNL     1       2.616   4.768  20.201  0.00  0.00    +0.000 OA
ENDROOT
BRANCH   1   6
ATOM      3  C   UNL     1       1.240   9.427  18.824  0.00  0.00    +0.000 A 
ATOM      4  C   UNL     1       1.919   8.796  17.770  0.00  0.00    +0.000 A 
ATOM      5  C   UNL     1       2.456   7.518  17.926  0.00  0.00    +0.000 A 
ATOM      6  C   UNL     1       2.297   6.832  19.133  0.00  0.00    +0.000 A 
ATOM      7  C   UNL     1       1.587   7.438  20.175  0.00  0.00    +0.000 A 
ATOM      8  C   UNL     1       1.043   8.724  20.012  0.00  0.00    +0.000 A 
BRANCH   3   9
ATOM      9  O   UNL     1       0.687  10.693  18.589  0.00  0.00    +0.000 OA
BRANCH   9  11
ATOM     10  C   UNL     1      -1.279   9.978  17.478  0.00  0.00    +0.000 C 
ATOM     11  C   UNL     1      -0.708  10.793  18.601  0.00  0.00    +0.000 C 
ATOM     12  O   UNL     1      -1.384  11.509  19.329  0.00  0.00    +0.000 OA
ENDBRANCH   9  11
ENDBRANCH   3   9
BRANCH   8  13
ATOM     13  O   UNL     1       0.283   9.123  21.157  0.00  0.00    +0.000 OA
BRANCH  13  14
ATOM     14  C   UNL     1       0.316  10.214  22.032  0.00  0.00    +0.000 C 
ATOM     15  C   UNL     1      -0.623   9.934  23.175  0.00  0.00    +0.000 C 
ATOM     16  O   UNL     1       0.943  11.245  21.884  0.00  0.00    +0.000 OA
ENDBRANCH  13  14
ENDBRANCH   8  13
ENDBRANCH   1   6
BRANCH   1  17
ATOM     17  C   UNL     1       3.970   5.013  18.317  0.00  0.00    +0.000 A 
ATOM     18  C   UNL     1       3.631   4.617  17.020  0.00  0.00    +0.000 A 
ATOM     19  C   UNL     1       4.631   4.209  16.132  0.00  0.00    +0.000 A 
ATOM     20  C   UNL     1       5.971   4.178  16.536  0.00  0.00    +0.000 A 
ATOM     21  C   UNL     1       6.307   4.581  17.832  0.00  0.00    +0.000 A 
ATOM     22  C   UNL     1       5.313   5.024  18.713  0.00  0.00    +0.000 A 
BRANCH  20  23
ATOM     23  O   UNL     1       7.007   3.874  15.629  0.00  0.00    +0.000 OA
BRANCH  23  24
ATOM     24  C   UNL     1       7.136   4.541  14.408  0.00  0.00    +0.000 C 
ATOM     25  C   UNL     1       6.350   3.806  13.366  0.00  0.00    +0.000 C 
ATOM     26  O   UNL     1       7.773   5.565  14.191  0.00  0.00    +0.000 OA
ENDBRANCH  23  24
ENDBRANCH  20  23
BRANCH  21  27
ATOM     27  O   UNL     1       7.627   4.683  18.331  0.00  0.00    +0.000 OA
BRANCH  27  28
ATOM     28  C   UNL     1       7.996   5.637  19.280  0.00  0.00    +0.000 C 
ATOM     29  C   UNL     1       8.153   6.969  18.599  0.00  0.00    +0.000 C 
ATOM     30  O   UNL     1       8.176   5.456  20.477  0.00  0.00    +0.000 OA
ENDBRANCH  27  28
ENDBRANCH  21  27
ENDBRANCH   1  17
TORSDOF 10
ENDMDL
MODEL 2
REMARK VINA RESULT:      -8.2      1.141      8.345
REMARK  Name = 
REMARK  14 active torsions:
REMARK  status: ('A' for Active; 'I' for Inactive)
REMARK    1  A    between atoms: C_1  and  C_2
REMARK    2  A    between atoms: C_2  and  O_4
REMARK    3  A    between atoms: O_4  and  C_5
REMARK    4  A    between atoms: C_8  and  C_9
REMARK    5  A    between atoms: C_9  and  C_11
REMARK    6  A    between atoms: C_14  and  O_15
REMARK    7  A    between atoms: O_15  and  C_16
REMARK    8  A    between atoms: C_16  and  C_17
REMARK    9  A    between atoms: C_19  and  O_20
REMARK   10  A    between atoms: O_20  and  C_21
REMARK   11  A    between atoms: C_21  and  C_22
REMARK   12  A    between atoms: C_26  and  O_27
REMARK   13  A    between atoms: O_27  and  C_28
REMARK   14  A    between atoms: C_28  and  C_29
REMARK                            x       y       z     vdW  Elec       q    Type
REMARK                         _______ _______ _______ _____ _____    ______ ____
ROOT
ATOM      1  C   UNL     1       2.419   6.186  19.830  0.00  0.00    +0.000 C 
ATOM      2  O   UNL     1       2.044   5.600  20.843  0.00  0.00    +0.000 OA
ENDROOT
BRANCH   1   6
ATOM      3  C   UNL     1       4.999   4.041  17.136  0.00  0.00    +0.000 A 
ATOM      4  C   UNL     1       3.639   4.235  16.852  0.00  0.00    +0.000 A 
ATOM      5  C   UNL     1       2.818   4.943  17.729  0.00  0.00    +0.000 A 
ATOM      6  C   UNL     1       3.349   5.498  18.896  0.00  0.00    +0.000 A 
ATOM      7  C   UNL     1       4.712   5.342  19.167  0.00  0.00    +0.000 A 
ATOM      8  C   UNL     1       5.539   4.633  18.278  0.00  0.00    +0.000 A 
BRANCH   3   9
ATOM      9  O   UNL     1       5.780   3.358  16.194  0.00  0.00    +0.000 OA
BRANCH   9  11
ATOM     10  C   UNL     1       7.219   4.947  15.187  0.00  0.00    +0.000 C 
ATOM     11  C   UNL     1       6.057   4.019  14.993  0.00  0.00    +0.000 C 
ATOM     12  O   UNL     1       5.406   3.957  13.957  0.00  0.00    +0.000 OA
ENDBRANCH   9  11
ENDBRANCH   3   9
BRANCH   8  13
ATOM     13  O   UNL     1       6.908   4.666  18.691  0.00  0.00    +0.000 OA
BRANCH  13  14
ATOM     14  C   UNL     1       7.693   5.552  19.437  0.00  0.00    +0.000 C 
ATOM     15  C   UNL     1       7.998   6.752  18.580  0.00  0.00    +0.000 C 
ATOM     16  O   UNL     1       8.115   5.377  20.564  0.00  0.00    +0.000 OA
ENDBRANCH  13  14
ENDBRANCH   8  13
ENDBRANCH   1   6
BRANCH   1  17
ATOM     17  C   UNL     1       1.930   7.566  19.592  0.00  0.00    +0.000 A 
ATOM     18  C   UNL     1       2.307   8.288  18.456  0.00  0.00    +0.000 A 
ATOM     19  C   UNL     1       1.788   9.568  18.239  0.00  0.00    +0.000 A 
ATOM     20  C   UNL     1       0.903  10.141  19.159  0.00  0.00    +0.000 A 
ATOM     21  C   UNL     1       0.521   9.413  20.291  0.00  0.00    +0.000 A 
ATOM     22  C   UNL     1       1.012   8.117  20.494  0.00  0.00    +0.000 A 
BRANCH  20  23
ATOM     23  O   UNL     1       0.283  11.383  18.911  0.00  0.00    +0.000 OA
BRANCH  23  24
ATOM     24  C   UNL     1      -1.049  11.472  18.499  0.00  0.00    +0.000 C 
ATOM     25  C   UNL     1      -1.762  12.468  19.363  0.00  0.00    +0.000 C 
ATOM     26  O   UNL     1      -1.579  10.857  17.581  0.00  0.00    +0.000 OA
ENDBRANCH  23  24
ENDBRANCH  20  23
BRANCH  21  27
ATOM     27  O   UNL     1      -0.432   9.841  21.245  0.00  0.00    +0.000 OA
BRANCH  27  28
ATOM     28  C   UNL     1      -0.093  10.115  22.570  0.00  0.00    +0.000 C 
ATOM     29  C   UNL     1      -1.226  10.862  23.220  0.00  0.00    +0.000 C 
ATOM     30  O   UNL     1       0.948   9.819  23.142  0.00  0.00    +0.000 OA
ENDBRANCH  27  28
ENDBRANCH  21  27
ENDBRANCH   1  17
TORSDOF 10
ENDMDL
MODEL 3
REMARK VINA RESULT:      -8.1      1.074      1.210
REMARK  Name = 
REMARK  14 active torsions:
REMARK  status: ('A' for Active; 'I' for Inactive)
REMARK    1  A    between atoms: C_1  and  C_2
REMARK    2  A    between atoms: C_2  and  O_4
REMARK    3  A    between atoms: O_4  and  C_5
REMARK    4  A    between atoms: C_8  and  C_9
REMARK    5  A    between atoms: C_9  and  C_11
REMARK    6  A    between atoms: C_14  and  O_15
REMARK    7  A    between atoms: O_15  and  C_16
REMARK    8  A    between atoms: C_16  and  C_17
REMARK    9  A    between atoms: C_19  and  O_20
REMARK   10  A    between atoms: O_20  and  C_21
REMARK   11  A    between atoms: C_21  and  C_22
REMARK   12  A    between atoms: C_26  and  O_27
REMARK   13  A    between atoms: O_27  and  C_28
REMARK   14  A    between atoms: C_28  and  C_29
REMARK                            x       y       z     vdW  Elec       q    Type
REMARK                         _______ _______ _______ _____ _____    ______ ____
ROOT
ATOM      1  C   UNL     1       2.855   5.838  19.339  0.00  0.00    +0.000 C 
ATOM      2  O   UNL     1       2.497   5.134  20.281  0.00  0.00    +0.000 OA
ENDROOT
BRANCH   1   6
ATOM      3  C   UNL     1       1.276   9.801  18.766  0.00  0.00    +0.000 A 
ATOM      4  C   UNL     1       1.613   8.979  17.679  0.00  0.00    +0.000 A 
ATOM      5  C   UNL     1       2.112   7.692  17.880  0.00  0.00    +0.000 A 
ATOM      6  C   UNL     1       2.256   7.189  19.175  0.00  0.00    +0.000 A 
ATOM      7  C   UNL     1       1.886   7.987  20.263  0.00  0.00    +0.000 A 
ATOM      8  C   UNL     1       1.378   9.282  20.057  0.00  0.00    +0.000 A 
BRANCH   3   9
ATOM      9  O   UNL     1       0.739  11.066  18.496  0.00  0.00    +0.000 OA
BRANCH   9  11
ATOM     10  C   UNL     1      -1.024  12.245  19.550  0.00  0.00    +0.000 C 
ATOM     11  C   UNL     1      -0.653  11.194  18.545  0.00  0.00    +0.000 C 
ATOM     12  O   UNL     1      -1.473  10.500  17.957  0.00  0.00    +0.000 OA
ENDBRANCH   9  11
ENDBRANCH   3   9
BRANCH   8  13
ATOM     13  O   UNL     1       0.978   9.893  21.286  0.00  0.00    +0.000 OA
BRANCH  13  14
ATOM     14  C   UNL     1       0.501   9.421  22.514  0.00  0.00    +0.000 C 
ATOM     15  C   UNL     1      -0.783   8.673  22.268  0.00  0.00    +0.000 C 
ATOM     16  O   UNL     1       0.991   9.619  23.609  0.00  0.00    +0.000 OA
ENDBRANCH  13  14
ENDBRANCH   8  13
ENDBRANCH   1   6
BRANCH   1  17
ATOM     17  C   UNL     1       3.865   5.297  18.398  0.00  0.00    +0.000 A 
ATOM     18  C   UNL     1       3.656   4.097  17.712  0.00  0.00    +0.000 A 
ATOM     19  C   UNL     1       4.609   3.642  16.795  0.00  0.00    +0.000 A 
ATOM     20  C   UNL     1       5.781   4.373  16.569  0.00  0.00    +0.000 A 
ATOM     21  C   UNL     1       5.985   5.576  17.251  0.00  0.00    +0.000 A 
ATOM     22  C   UNL     1       5.017   6.052  18.144  0.00  0.00    +0.000 A 
BRANCH  20  23
ATOM     23  O   UNL     1       6.706   3.992  15.574  0.00  0.00    +0.000 OA
BRANCH  23  24
ATOM     24  C   UNL     1       6.697   4.570  14.301  0.00  0.00    +0.000 C 
ATOM     25  C   UNL     1       5.752   3.803  13.425  0.00  0.00    +0.000 C 
ATOM     26  O   UNL     1       7.336   5.547  13.931  0.00  0.00    +0.000 OA
ENDBRANCH  23  24
ENDBRANCH  20  23
BRANCH  21  27
ATOM     27  O   UNL     1       7.079   6.449  17.044  0.00  0.00    +0.000 OA
BRANCH  27  28
ATOM     28  C   UNL     1       7.814   6.989  18.100  0.00  0.00    +0.000 C 
ATOM     29  C   UNL     1       8.036   8.454  17.841  0.00  0.00    +0.000 C 
ATOM     30  O   UNL     1       8.231   6.398  19.088  0.00  0.00    +0.000 OA
ENDBRANCH  27  28
ENDBRANCH  21  27
ENDBRANCH   1  17
TORSDOF 10
ENDMDL
MODEL 4
REMARK VINA RESULT:      -8.1      1.292      8.250
REMARK  Name = 
REMARK  14 active torsions:
REMARK  status: ('A' for Active; 'I' for Inactive)
REMARK    1  A    between atoms: C_1  and  C_2
REMARK    2  A    between atoms: C_2  and  O_4
REMARK    3  A    between atoms: O_4  and  C_5
REMARK    4  A    between atoms: C_8  and  C_9
REMARK    5  A    between atoms: C_9  and  C_11
REMARK    6  A    between atoms: C_14  and  O_15
REMARK    7  A    between atoms: O_15  and  C_16
REMARK    8  A    between atoms: C_16  and  C_17
REMARK    9  A    between atoms: C_19  and  O_20
REMARK   10  A    between atoms: O_20  and  C_21
REMARK   11  A    between atoms: C_21  and  C_22
REMARK   12  A    between atoms: C_26  and  O_27
REMARK   13  A    between atoms: O_27  and  C_28
REMARK   14  A    between atoms: C_28  and  C_29
REMARK                            x       y       z     vdW  Elec       q    Type
REMARK                         _______ _______ _______ _____ _____    ______ ____
ROOT
ATOM      1  C   UNL     1       2.710   5.992  19.290  0.00  0.00    +0.000 C 
ATOM      2  O   UNL     1       2.298   5.253  20.181  0.00  0.00    +0.000 OA
ENDROOT
BRANCH   1   6
ATOM      3  C   UNL     1       5.620   4.328  16.590  0.00  0.00    +0.000 A 
ATOM      4  C   UNL     1       4.293   3.872  16.613  0.00  0.00    +0.000 A 
ATOM      5  C   UNL     1       3.358   4.429  17.486  0.00  0.00    +0.000 A 
ATOM      6  C   UNL     1       3.725   5.477  18.333  0.00  0.00    +0.000 A 
ATOM      7  C   UNL     1       5.036   5.964  18.288  0.00  0.00    +0.000 A 
ATOM      8  C   UNL     1       5.974   5.404  17.404  0.00  0.00    +0.000 A 
BRANCH   3   9
ATOM      9  O   UNL     1       6.499   3.756  15.661  0.00  0.00    +0.000 OA
BRANCH   9  11
ATOM     10  C   UNL     1       5.985   3.789  13.349  0.00  0.00    +0.000 C 
ATOM     11  C   UNL     1       6.719   4.460  14.472  0.00  0.00    +0.000 C 
ATOM     12  O   UNL     1       7.472   5.413  14.315  0.00  0.00    +0.000 OA
ENDBRANCH   9  11
ENDBRANCH   3   9
BRANCH   8  13
ATOM     13  O   UNL     1       7.223   6.100  17.450  0.00  0.00    +0.000 OA
BRANCH  13  14
ATOM     14  C   UNL     1       7.967   6.727  18.455  0.00  0.00    +0.000 C 
ATOM     15  C   UNL     1       8.160   5.748  19.583  0.00  0.00    +0.000 C 
ATOM     16  O   UNL     1       8.351   7.881  18.463  0.00  0.00    +0.000 OA
ENDBRANCH  13  14
ENDBRANCH   8  13
ENDBRANCH   1   6
BRANCH   1  17
ATOM     17  C   UNL     1       2.180   7.375  19.218  0.00  0.00    +0.000 A 
ATOM     18  C   UNL     1       1.978   8.017  17.993  0.00  0.00    +0.000 A 
ATOM     19  C   UNL     1       1.431   9.303  17.961  0.00  0.00    +0.000 A 
ATOM     20  C   UNL     1       1.096   9.962  19.150  0.00  0.00    +0.000 A 
ATOM     21  C   UNL     1       1.292   9.315  20.374  0.00  0.00    +0.000 A 
ATOM     22  C   UNL     1       1.808   8.013  20.407  0.00  0.00    +0.000 A 
BRANCH  20  23
ATOM     23  O   UNL     1       0.445  11.213  19.140  0.00  0.00    +0.000 OA
BRANCH  23  24
ATOM     24  C   UNL     1       1.159  12.414  19.189  0.00  0.00    +0.000 C 
ATOM     25  C   UNL     1       0.267  13.490  19.728  0.00  0.00    +0.000 C 
ATOM     26  O   UNL     1       2.325  12.591  18.859  0.00  0.00    +0.000 OA
ENDBRANCH  23  24
ENDBRANCH  20  23
BRANCH  21  27
ATOM     27  O   UNL     1       0.912   9.834  21.634  0.00  0.00    +0.000 OA
BRANCH  27  28
ATOM     28  C   UNL     1      -0.337   9.578  22.201  0.00  0.00    +0.000 C 
ATOM     29  C   UNL     1      -0.983  10.886  22.569  0.00  0.00    +0.000 C 
ATOM     30  O   UNL     1      -0.852   8.484  22.388  0.00  0.00    +0.000 OA
ENDBRANCH  27  28
ENDBRANCH  21  27
ENDBRANCH   1  17
TORSDOF 10
ENDMDL
MODEL 5
REMARK VINA RESULT:      -8.0      1.429      8.181
REMARK  Name = 
REMARK  14 active torsions:
REMARK  status: ('A' for Active; 'I' for Inactive)
REMARK    1  A    between atoms: C_1  and  C_2
REMARK    2  A    between atoms: C_2  and  O_4
REMARK    3  A    between atoms: O_4  and  C_5
REMARK    4  A    between atoms: C_8  and  C_9
REMARK    5  A    between atoms: C_9  and  C_11
REMARK    6  A    between atoms: C_14  and  O_15
REMARK    7  A    between atoms: O_15  and  C_16
REMARK    8  A    between atoms: C_16  and  C_17
REMARK    9  A    between atoms: C_19  and  O_20
REMARK   10  A    between atoms: O_20  and  C_21
REMARK   11  A    between atoms: C_21  and  C_22
REMARK   12  A    between atoms: C_26  and  O_27
REMARK   13  A    between atoms: O_27  and  C_28
REMARK   14  A    between atoms: C_28  and  C_29
REMARK                            x       y       z     vdW  Elec       q    Type
REMARK                         _______ _______ _______ _____ _____    ______ ____
ROOT
ATOM      1  C   UNL     1       2.304   6.409  19.783  0.00  0.00    +0.000 C 
ATOM      2  O   UNL     1       1.825   5.842  20.762  0.00  0.00    +0.000 OA
ENDROOT
BRANCH   1   6
ATOM      3  C   UNL     1       4.878   4.099  17.222  0.00  0.00    +0.000 A 
ATOM      4  C   UNL     1       3.546   4.370  16.874  0.00  0.00    +0.000 A 
ATOM      5  C   UNL     1       2.727   5.130  17.708  0.00  0.00    +0.000 A 
ATOM      6  C   UNL     1       3.235   5.661  18.896  0.00  0.00    +0.000 A 
ATOM      7  C   UNL     1       4.573   5.429  19.232  0.00  0.00    +0.000 A 
ATOM      8  C   UNL     1       5.397   4.667  18.385  0.00  0.00    +0.000 A 
BRANCH   3   9
ATOM      9  O   UNL     1       5.661   3.366  16.320  0.00  0.00    +0.000 OA
BRANCH   9  11
ATOM     10  C   UNL     1       5.819   4.045  14.056  0.00  0.00    +0.000 C 
ATOM     11  C   UNL     1       6.447   4.092  15.419  0.00  0.00    +0.000 C 
ATOM     12  O   UNL     1       7.535   4.605  15.645  0.00  0.00    +0.000 OA
ENDBRANCH   9  11
ENDBRANCH   3   9
BRANCH   8  13
ATOM     13  O   UNL     1       6.745   4.624  18.862  0.00  0.00    +0.000 OA
BRANCH  13  14
ATOM     14  C   UNL     1       7.599   5.536  19.492  0.00  0.00    +0.000 C 
ATOM     15  C   UNL     1       7.917   6.638  18.517  0.00  0.00    +0.000 C 
ATOM     16  O   UNL     1       8.063   5.443  20.612  0.00  0.00    +0.000 OA
ENDBRANCH  13  14
ENDBRANCH   8  13
ENDBRANCH   1   6
BRANCH   1  17
ATOM     17  C   UNL     1       1.936   7.824  19.536  0.00  0.00    +0.000 A 
ATOM     18  C   UNL     1       1.944   8.367  18.248  0.00  0.00    +0.000 A 
ATOM     19  C   UNL     1       1.545   9.691  18.046  0.00  0.00    +0.000 A 
ATOM     20  C   UNL     1       1.148  10.486  19.128  0.00  0.00    +0.000 A 
ATOM     21  C   UNL     1       1.134   9.938  20.415  0.00  0.00    +0.000 A 
ATOM     22  C   UNL     1       1.501   8.601  20.616  0.00  0.00    +0.000 A 
BRANCH  20  23
ATOM     23  O   UNL     1       0.640  11.788  18.939  0.00  0.00    +0.000 OA
BRANCH  23  24
ATOM     24  C   UNL     1       1.483  12.891  18.782  0.00  0.00    +0.000 C 
ATOM     25  C   UNL     1       1.313  13.806  19.958  0.00  0.00    +0.000 C 
ATOM     26  O   UNL     1       2.254  13.104  17.854  0.00  0.00    +0.000 OA
ENDBRANCH  23  24
ENDBRANCH  20  23
BRANCH  21  27
ATOM     27  O   UNL     1       0.669  10.605  21.573  0.00  0.00    +0.000 OA
BRANCH  27  28
ATOM     28  C   UNL     1       0.467   9.944  22.785  0.00  0.00    +0.000 C 
ATOM     29  C   UNL     1      -1.009   9.897  23.075  0.00  0.00    +0.000 C 
ATOM     30  O   UNL     1       1.323   9.472  23.521  0.00  0.00    +0.000 OA
ENDBRANCH  27  28
ENDBRANCH  21  27
ENDBRANCH   1  17
TORSDOF 10
ENDMDL
MODEL 6
REMARK VINA RESULT:      -8.0      1.285      1.638
REMARK  Name = 
REMARK  14 active torsions:
REMARK  status: ('A' for Active; 'I' for Inactive)
REMARK    1  A    between atoms: C_1  and  C_2
REMARK    2  A    between atoms: C_2  and  O_4
REMARK    3  A    between atoms: O_4  and  C_5
REMARK    4  A    between atoms: C_8  and  C_9
REMARK    5  A    between atoms: C_9  and  C_11
REMARK    6  A    between atoms: C_14  and  O_15
REMARK    7  A    between atoms: O_15  and  C_16
REMARK    8  A    between atoms: C_16  and  C_17
REMARK    9  A    between atoms: C_19  and  O_20
REMARK   10  A    between atoms: O_20  and  C_21
REMARK   11  A    between atoms: C_21  and  C_22
REMARK   12  A    between atoms: C_26  and  O_27
REMARK   13  A    between atoms: O_27  and  C_28
REMARK   14  A    between atoms: C_28  and  C_29
REMARK                            x       y       z     vdW  Elec       q    Type
REMARK                         _______ _______ _______ _____ _____    ______ ____
ROOT
ATOM      1  C   UNL     1       2.496   6.010  19.679  0.00  0.00    +0.000 C 
ATOM      2  O   UNL     1       2.149   5.406  20.691  0.00  0.00    +0.000 OA
ENDROOT
BRANCH   1   6
ATOM      3  C   UNL     1       1.270  10.074  18.969  0.00  0.00    +0.000 A 
ATOM      4  C   UNL     1       1.636   9.222  17.916  0.00  0.00    +0.000 A 
ATOM      5  C   UNL     1       2.020   7.904  18.161  0.00  0.00    +0.000 A 
ATOM      6  C   UNL     1       2.016   7.401  19.464  0.00  0.00    +0.000 A 
ATOM      7  C   UNL     1       1.614   8.232  20.515  0.00  0.00    +0.000 A 
ATOM      8  C   UNL     1       1.222   9.558  20.265  0.00  0.00    +0.000 A 
BRANCH   3   9
ATOM      9  O   UNL     1       0.853  11.374  18.654  0.00  0.00    +0.000 OA
BRANCH   9  11
ATOM     10  C   UNL     1      -0.782  13.024  19.119  0.00  0.00    +0.000 C 
ATOM     11  C   UNL     1      -0.524  11.621  18.653  0.00  0.00    +0.000 C 
ATOM     12  O   UNL     1      -1.413  10.812  18.420  0.00  0.00    +0.000 OA
ENDBRANCH   9  11
ENDBRANCH   3   9
BRANCH   8  13
ATOM     13  O   UNL     1       0.765  10.207  21.455  0.00  0.00    +0.000 OA
BRANCH  13  14
ATOM     14  C   UNL     1      -0.340  10.056  22.299  0.00  0.00    +0.000 C 
ATOM     15  C   UNL     1      -0.941  11.415  22.542  0.00  0.00    +0.000 C 
ATOM     16  O   UNL     1      -0.732   9.022  22.807  0.00  0.00    +0.000 OA
ENDBRANCH  13  14
ENDBRANCH   8  13
ENDBRANCH   1   6
BRANCH   1  17
ATOM     17  C   UNL     1       3.376   5.315  18.708  0.00  0.00    +0.000 A 
ATOM     18  C   UNL     1       2.862   4.404  17.780  0.00  0.00    +0.000 A 
ATOM     19  C   UNL     1       3.714   3.803  16.848  0.00  0.00    +0.000 A 
ATOM     20  C   UNL     1       5.083   4.095  16.845  0.00  0.00    +0.000 A 
ATOM     21  C   UNL     1       5.592   5.012  17.770  0.00  0.00    +0.000 A 
ATOM     22  C   UNL     1       4.737   5.641  18.683  0.00  0.00    +0.000 A 
BRANCH  20  23
ATOM     23  O   UNL     1       5.943   3.586  15.850  0.00  0.00    +0.000 OA
BRANCH  23  24
ATOM     24  C   UNL     1       5.973   4.122  14.559  0.00  0.00    +0.000 C 
ATOM     25  C   UNL     1       7.264   4.859  14.368  0.00  0.00    +0.000 C 
ATOM     26  O   UNL     1       5.108   4.019  13.698  0.00  0.00    +0.000 OA
ENDBRANCH  23  24
ENDBRANCH  20  23
BRANCH  21  27
ATOM     27  O   UNL     1       6.934   5.459  17.811  0.00  0.00    +0.000 OA
BRANCH  27  28
ATOM     28  C   UNL     1       7.286   6.788  17.573  0.00  0.00    +0.000 C 
ATOM     29  C   UNL     1       8.247   7.237  18.640  0.00  0.00    +0.000 C 
ATOM     30  O   UNL     1       6.894   7.503  16.660  0.00  0.00    +0.000 OA
ENDBRANCH  27  28
ENDBRANCH  21  27
ENDBRANCH   1  17
TORSDOF 10
ENDMDL
MODEL 7
REMARK VINA RESULT:      -7.9      1.279      1.417
REMARK  Name = 
REMARK  14 active torsions:
REMARK  status: ('A' for Active; 'I' for Inactive)
REMARK    1  A    between atoms: C_1  and  C_2
REMARK    2  A    between atoms: C_2  and  O_4
REMARK    3  A    between atoms: O_4  and  C_5
REMARK    4  A    between atoms: C_8  and  C_9
REMARK    5  A    between atoms: C_9  and  C_11
REMARK    6  A    between atoms: C_14  and  O_15
REMARK    7  A    between atoms: O_15  and  C_16
REMARK    8  A    between atoms: C_16  and  C_17
REMARK    9  A    between atoms: C_19  and  O_20
REMARK   10  A    between atoms: O_20  and  C_21
REMARK   11  A    between atoms: C_21  and  C_22
REMARK   12  A    between atoms: C_26  and  O_27
REMARK   13  A    between atoms: O_27  and  C_28
REMARK   14  A    between atoms: C_28  and  C_29
REMARK                            x       y       z     vdW  Elec       q    Type
REMARK                         _______ _______ _______ _____ _____    ______ ____
ROOT
ATOM      1  C   UNL     1       2.796   5.528  18.675  0.00  0.00    +0.000 C 
ATOM      2  O   UNL     1       2.217   4.583  19.207  0.00  0.00    +0.000 OA
ENDROOT
BRANCH   1   6
ATOM      3  C   UNL     1       1.343   9.563  19.036  0.00  0.00    +0.000 A 
ATOM      4  C   UNL     1       1.614   8.988  17.785  0.00  0.00    +0.000 A 
ATOM      5  C   UNL     1       2.073   7.675  17.683  0.00  0.00    +0.000 A 
ATOM      6  C   UNL     1       2.242   6.899  18.832  0.00  0.00    +0.000 A 
ATOM      7  C   UNL     1       1.937   7.451  20.080  0.00  0.00    +0.000 A 
ATOM      8  C   UNL     1       1.468   8.773  20.179  0.00  0.00    +0.000 A 
BRANCH   3   9
ATOM      9  O   UNL     1       0.843  10.872  19.068  0.00  0.00    +0.000 OA
BRANCH   9  11
ATOM     10  C   UNL     1      -0.720  12.462  18.269  0.00  0.00    +0.000 C 
ATOM     11  C   UNL     1      -0.502  11.051  18.731  0.00  0.00    +0.000 C 
ATOM     12  O   UNL     1      -1.408  10.240  18.879  0.00  0.00    +0.000 OA
ENDBRANCH   9  11
ENDBRANCH   3   9
BRANCH   8  13
ATOM     13  O   UNL     1       1.132   9.114  21.527  0.00  0.00    +0.000 OA
BRANCH  13  14
ATOM     14  C   UNL     1       0.471  10.185  22.139  0.00  0.00    +0.000 C 
ATOM     15  C   UNL     1      -0.612   9.629  23.025  0.00  0.00    +0.000 C 
ATOM     16  O   UNL     1       0.681  11.368  21.957  0.00  0.00    +0.000 OA
ENDBRANCH  13  14
ENDBRANCH   8  13
ENDBRANCH   1   6
BRANCH   1  17
ATOM     17  C   UNL     1       4.022   5.252  17.888  0.00  0.00    +0.000 A 
ATOM     18  C   UNL     1       4.264   3.993  17.331  0.00  0.00    +0.000 A 
ATOM     19  C   UNL     1       5.407   3.782  16.554  0.00  0.00    +0.000 A 
ATOM     20  C   UNL     1       6.322   4.820  16.340  0.00  0.00    +0.000 A 
ATOM     21  C   UNL     1       6.074   6.081  16.893  0.00  0.00    +0.000 A 
ATOM     22  C   UNL     1       4.912   6.305  17.643  0.00  0.00    +0.000 A 
BRANCH  20  23
ATOM     23  O   UNL     1       7.424   4.664  15.474  0.00  0.00    +0.000 OA
BRANCH  23  24
ATOM     24  C   UNL     1       7.320   4.900  14.101  0.00  0.00    +0.000 C 
ATOM     25  C   UNL     1       6.260   4.006  13.532  0.00  0.00    +0.000 C 
ATOM     26  O   UNL     1       7.967   5.702  13.439  0.00  0.00    +0.000 OA
ENDBRANCH  23  24
ENDBRANCH  20  23
BRANCH  21  27
ATOM     27  O   UNL     1       6.869   7.230  16.676  0.00  0.00    +0.000 OA
BRANCH  27  28
ATOM     28  C   UNL     1       7.659   7.792  17.679  0.00  0.00    +0.000 C 
ATOM     29  C   UNL     1       8.039   6.717  18.661  0.00  0.00    +0.000 C 
ATOM     30  O   UNL     1       8.002   8.962  17.780  0.00  0.00    +0.000 OA
ENDBRANCH  27  28
ENDBRANCH  21  27
ENDBRANCH   1  17
TORSDOF 10
ENDMDL
MODEL 8
REMARK VINA RESULT:      -7.8      1.552      1.957
REMARK  Name = 
REMARK  14 active torsions:
REMARK  status: ('A' for Active; 'I' for Inactive)
REMARK    1  A    between atoms: C_1  and  C_2
REMARK    2  A    between atoms: C_2  and  O_4
REMARK    3  A    between atoms: O_4  and  C_5
REMARK    4  A    between atoms: C_8  and  C_9
REMARK    5  A    between atoms: C_9  and  C_11
REMARK    6  A    between atoms: C_14  and  O_15
REMARK    7  A    between atoms: O_15  and  C_16
REMARK    8  A    between atoms: C_16  and  C_17
REMARK    9  A    between atoms: C_19  and  O_20
REMARK   10  A    between atoms: O_20  and  C_21
REMARK   11  A    between atoms: C_21  and  C_22
REMARK   12  A    between atoms: C_26  and  O_27
REMARK   13  A    between atoms: O_27  and  C_28
REMARK   14  A    between atoms: C_28  and  C_29
REMARK                            x       y       z     vdW  Elec       q    Type
REMARK                         _______ _______ _______ _____ _____    ______ ____
ROOT
ATOM      1  C   UNL     1       2.432   6.036  19.612  0.00  0.00    +0.000 C 
ATOM      2  O   UNL     1       2.030   5.424  20.598  0.00  0.00    +0.000 OA
ENDROOT
BRANCH   1   6
ATOM      3  C   UNL     1       1.358  10.154  18.968  0.00  0.00    +0.000 A 
ATOM      4  C   UNL     1       1.918   9.372  17.946  0.00  0.00    +0.000 A 
ATOM      5  C   UNL     1       2.250   8.035  18.166  0.00  0.00    +0.000 A 
ATOM      6  C   UNL     1       2.000   7.444  19.407  0.00  0.00    +0.000 A 
ATOM      7  C   UNL     1       1.405   8.206  20.419  0.00  0.00    +0.000 A 
ATOM      8  C   UNL     1       1.066   9.551  20.192  0.00  0.00    +0.000 A 
BRANCH   3   9
ATOM      9  O   UNL     1       1.006  11.477  18.670  0.00  0.00    +0.000 OA
BRANCH   9  11
ATOM     10  C   UNL     1       2.687  13.013  18.018  0.00  0.00    +0.000 C 
ATOM     11  C   UNL     1       1.850  12.485  19.146  0.00  0.00    +0.000 C 
ATOM     12  O   UNL     1       1.989  12.834  20.312  0.00  0.00    +0.000 OA
ENDBRANCH   9  11
ENDBRANCH   3   9
BRANCH   8  13
ATOM     13  O   UNL     1       0.391  10.122  21.316  0.00  0.00    +0.000 OA
BRANCH  13  14
ATOM     14  C   UNL     1      -0.735  10.934  21.483  0.00  0.00    +0.000 C 
ATOM     15  C   UNL     1      -0.959  11.138  22.959  0.00  0.00    +0.000 C 
ATOM     16  O   UNL     1      -1.458  11.366  20.605  0.00  0.00    +0.000 OA
ENDBRANCH  13  14
ENDBRANCH   8  13
ENDBRANCH   1   6
BRANCH   1  17
ATOM     17  C   UNL     1       3.328   5.334  18.662  0.00  0.00    +0.000 A 
ATOM     18  C   UNL     1       2.831   4.414  17.734  0.00  0.00    +0.000 A 
ATOM     19  C   UNL     1       3.698   3.807  16.821  0.00  0.00    +0.000 A 
ATOM     20  C   UNL     1       5.066   4.103  16.836  0.00  0.00    +0.000 A 
ATOM     21  C   UNL     1       5.559   5.029  17.760  0.00  0.00    +0.000 A 
ATOM     22  C   UNL     1       4.689   5.665  18.654  0.00  0.00    +0.000 A 
BRANCH  20  23
ATOM     23  O   UNL     1       5.942   3.587  15.858  0.00  0.00    +0.000 OA
BRANCH  23  24
ATOM     24  C   UNL     1       5.976   4.097  14.558  0.00  0.00    +0.000 C 
ATOM     25  C   UNL     1       7.269   4.828  14.354  0.00  0.00    +0.000 C 
ATOM     26  O   UNL     1       5.113   3.979  13.697  0.00  0.00    +0.000 OA
ENDBRANCH  23  24
ENDBRANCH  20  23
BRANCH  21  27
ATOM     27  O   UNL     1       6.899   5.480  17.817  0.00  0.00    +0.000 OA
BRANCH  27  28
ATOM     28  C   UNL     1       7.251   6.809  17.575  0.00  0.00    +0.000 C 
ATOM     29  C   UNL     1       8.215   7.260  18.638  0.00  0.00    +0.000 C 
ATOM     30  O   UNL     1       6.856   7.523  16.663  0.00  0.00    +0.000 OA
ENDBRANCH  27  28
ENDBRANCH  21  27
ENDBRANCH   1  17
TORSDOF 10
ENDMDL
MODEL 9
REMARK VINA RESULT:      -7.8      2.058      4.192
REMARK  Name = 
REMARK  14 active torsions:
REMARK  status: ('A' for Active; 'I' for Inactive)
REMARK    1  A    between atoms: C_1  and  C_2
REMARK    2  A    between atoms: C_2  and  O_4
REMARK    3  A    between atoms: O_4  and  C_5
REMARK    4  A    between atoms: C_8  and  C_9
REMARK    5  A    between atoms: C_9  and  C_11
REMARK    6  A    between atoms: C_14  and  O_15
REMARK    7  A    between atoms: O_15  and  C_16
REMARK    8  A    between atoms: C_16  and  C_17
REMARK    9  A    between atoms: C_19  and  O_20
REMARK   10  A    between atoms: O_20  and  C_21
REMARK   11  A    between atoms: C_21  and  C_22
REMARK   12  A    between atoms: C_26  and  O_27
REMARK   13  A    between atoms: O_27  and  C_28
REMARK   14  A    between atoms: C_28  and  C_29
REMARK                            x       y       z     vdW  Elec       q    Type
REMARK                         _______ _______ _______ _____ _____    ______ ____
ROOT
ATOM      1  C   UNL     1       2.580   7.916  17.838  0.00  0.00    +0.000 C 
ATOM      2  O   UNL     1       3.119   8.422  16.856  0.00  0.00    +0.000 OA
ENDROOT
BRANCH   1   6
ATOM      3  C   UNL     1      -0.303  10.074  20.194  0.00  0.00    +0.000 A 
ATOM      4  C   UNL     1       0.723   9.327  20.792  0.00  0.00    +0.000 A 
ATOM      5  C   UNL     1       1.658   8.642  20.015  0.00  0.00    +0.000 A 
ATOM      6  C   UNL     1       1.602   8.717  18.621  0.00  0.00    +0.000 A 
ATOM      7  C   UNL     1       0.606   9.492  18.018  0.00  0.00    +0.000 A 
ATOM      8  C   UNL     1      -0.331  10.185  18.804  0.00  0.00    +0.000 A 
BRANCH   3   9
ATOM      9  O   UNL     1      -1.183  10.774  21.029  0.00  0.00    +0.000 OA
BRANCH   9  11
ATOM     10  C   UNL     1      -1.365  12.077  22.999  0.00  0.00    +0.000 C 
ATOM     11  C   UNL     1      -0.687  11.914  21.671  0.00  0.00    +0.000 C 
ATOM     12  O   UNL     1       0.097  12.732  21.206  0.00  0.00    +0.000 OA
ENDBRANCH   9  11
ENDBRANCH   3   9
BRANCH   8  13
ATOM     13  O   UNL     1      -1.203  10.985  18.001  0.00  0.00    +0.000 OA
BRANCH  13  14
ATOM     14  C   UNL     1      -2.239  10.715  17.100  0.00  0.00    +0.000 C 
ATOM     15  C   UNL     1      -3.196   9.753  17.753  0.00  0.00    +0.000 C 
ATOM     16  O   UNL     1      -2.340  11.130  15.962  0.00  0.00    +0.000 OA
ENDBRANCH  13  14
ENDBRANCH   8  13
ENDBRANCH   1   6
BRANCH   1  17
ATOM     17  C   UNL     1       2.942   6.525  18.204  0.00  0.00    +0.000 A 
ATOM     18  C   UNL     1       2.028   5.475  18.075  0.00  0.00    +0.000 A 
ATOM     19  C   UNL     1       2.419   4.168  18.383  0.00  0.00    +0.000 A 
ATOM     20  C   UNL     1       3.717   3.903  18.835  0.00  0.00    +0.000 A 
ATOM     21  C   UNL     1       4.631   4.955  18.956  0.00  0.00    +0.000 A 
ATOM     22  C   UNL     1       4.254   6.259  18.616  0.00  0.00    +0.000 A 
BRANCH  20  23
ATOM     23  O   UNL     1       4.168   2.584  19.049  0.00  0.00    +0.000 OA
BRANCH  23  24
ATOM     24  C   UNL     1       4.371   2.076  20.335  0.00  0.00    +0.000 C 
ATOM     25  C   UNL     1       3.189   2.423  21.189  0.00  0.00    +0.000 C 
ATOM     26  O   UNL     1       5.340   1.441  20.732  0.00  0.00    +0.000 OA
ENDBRANCH  23  24
ENDBRANCH  20  23
BRANCH  21  27
ATOM     27  O   UNL     1       5.992   4.806  19.312  0.00  0.00    +0.000 OA
BRANCH  27  28
ATOM     28  C   UNL     1       7.030   5.015  18.403  0.00  0.00    +0.000 C 
ATOM     29  C   UNL     1       7.845   6.195  18.854  0.00  0.00    +0.000 C 
ATOM     30  O   UNL     1       7.265   4.368  17.391  0.00  0.00    +0.000 OA
ENDBRANCH  27  28
ENDBRANCH  21  27
ENDBRANCH   1  17
TORSDOF 10
ENDMDL
