MODEL 1
REMARK VINA RESULT:      -8.8      0.000      0.000
REMARK  Name = 
REMARK  10 active torsions:
REMARK  status: ('A' for Active; 'I' for Inactive)
REMARK    1  A    between atoms: C_2  and  O_3
REMARK    2  A    between atoms: C_2  and  C_4
REMARK    3  A    between atoms: C_10  and  C_11
REMARK    4  A    between atoms: C_17  and  N_18
REMARK    5  A    between atoms: N_18  and  C_19
REMARK    6  A    between atoms: C_22  and  O_23
REMARK    7  A    between atoms: O_23  and  C_24
REMARK    8  A    between atoms: C_24  and  C_25
REMARK    9  A    between atoms: C_25  and  C_26
REMARK   10  A    between atoms: C_26  and  N_27
REMARK                            x       y       z     vdW  Elec       q    Type
REMARK                         _______ _______ _______ _____ _____    ______ ____
ROOT
ATOM      1  C   UNL     1       2.410   3.685  18.805  0.00  0.00    +0.000 A 
ATOM      2  C   UNL     1       2.771   2.742  17.858  0.00  0.00    +0.000 A 
ATOM      3  N   UNL     1       3.878   2.832  17.087  0.00  0.00    +0.000 NA
ATOM      4  C   UNL     1       4.697   3.877  17.266  0.00  0.00    +0.000 A 
ATOM      5  C   UNL     1       5.803   3.981  16.433  0.00  0.00    +0.000 A 
ATOM      6  C   UNL     1       6.701   5.048  16.518  0.00  0.00    +0.000 A 
ATOM      7  C   UNL     1       6.526   6.026  17.494  0.00  0.00    +0.000 A 
ATOM      8  C   UNL     1       5.442   5.899  18.377  0.00  0.00    +0.000 A 
ATOM      9  C   UNL     1       4.466   4.874  18.244  0.00  0.00    +0.000 A 
ATOM     10  C   UNL     1       3.250   4.797  18.998  0.00  0.00    +0.000 A 
ENDROOT
BRANCH   7  11
ATOM     11  C   UNL     1       7.433   7.229  17.590  0.00  0.00    +0.000 C 
ATOM     12  F   UNL     1       8.183   7.436  16.473  0.00  0.00    +0.000 F 
ATOM     13  F   UNL     1       6.733   8.383  17.784  0.00  0.00    +0.000 F 
ATOM     14  F   UNL     1       8.309   7.143  18.625  0.00  0.00    +0.000 F 
ENDBRANCH   7  11
BRANCH   1  16
ATOM     15  O   UNL     1       0.824   4.038  20.522  0.00  0.00    +0.000 OA
ATOM     16  C   UNL     1       1.118   3.467  19.486  0.00  0.00    +0.000 C 
BRANCH  16  17
ATOM     17  O   UNL     1       0.326   2.542  18.905  0.00  0.00    +0.000 OA
ATOM     18  H   UNL     1      -0.634   2.697  19.047  0.00  0.00    +0.000 HD
ENDBRANCH  16  17
ENDBRANCH   1  16
BRANCH  10  19
ATOM     19  N   UNL     1       2.850   5.810  19.926  0.00  0.00    +0.000 N 
ATOM     20  H   UNL     1       3.266   5.698  20.850  0.00  0.00    +0.000 HD
BRANCH  19  21
ATOM     21  C   UNL     1       2.322   7.091  19.661  0.00  0.00    +0.000 A 
ATOM     22  C   UNL     1       2.433   7.664  18.396  0.00  0.00    +0.000 A 
ATOM     23  C   UNL     1       1.937   8.936  18.135  0.00  0.00    +0.000 A 
ATOM     24  C   UNL     1       1.230   9.658  19.103  0.00  0.00    +0.000 A 
ATOM     25  C   UNL     1       1.064   9.077  20.359  0.00  0.00    +0.000 A 
ATOM     26  C   UNL     1       1.607   7.804  20.635  0.00  0.00    +0.000 A 
BRANCH  24  27
ATOM     27  O   UNL     1       0.663  10.908  18.890  0.00  0.00    +0.000 OA
BRANCH  27  28
ATOM     28  C   UNL     1      -0.176  11.287  19.981  0.00  0.00    +0.000 C 
BRANCH  28  29
ATOM     29  C   UNL     1      -1.647  11.620  19.704  0.00  0.00    +0.000 C 
BRANCH  29  30
ATOM     30  C   UNL     1      -1.833  11.199  18.230  0.00  0.00    +0.000 C 
BRANCH  30  31
ATOM     31  N   UNL     1      -2.762  10.134  17.854  0.00  0.00    +0.000 NA
ATOM     32  C   UNL     1      -2.436   9.691  16.467  0.00  0.00    +0.000 C 
ATOM     33  C   UNL     1      -2.840  10.712  15.382  0.00  0.00    +0.000 C 
ATOM     34  O   UNL     1      -4.244  10.978  15.441  0.00  0.00    +0.000 OA
ATOM     35  C   UNL     1      -4.620  11.468  16.735  0.00  0.00    +0.000 C 
ATOM     36  C   UNL     1      -4.187  10.521  17.871  0.00  0.00    +0.000 C 
ENDBRANCH  30  31
ENDBRANCH  29  30
ENDBRANCH  28  29
ENDBRANCH  27  28
ENDBRANCH  24  27
ENDBRANCH  19  21
ENDBRANCH  10  19
TORSDOF 10
ENDMDL
MODEL 2
REMARK VINA RESULT:      -8.5      0.376      1.111
REMARK  Name = 
REMARK  10 active torsions:
REMARK  status: ('A' for Active; 'I' for Inactive)
REMARK    1  A    between atoms: C_2  and  O_3
REMARK    2  A    between atoms: C_2  and  C_4
REMARK    3  A    between atoms: C_10  and  C_11
REMARK    4  A    between atoms: C_17  and  N_18
REMARK    5  A    between atoms: N_18  and  C_19
REMARK    6  A    between atoms: C_22  and  O_23
REMARK    7  A    between atoms: O_23  and  C_24
REMARK    8  A    between atoms: C_24  and  C_25
REMARK    9  A    between atoms: C_25  and  C_26
REMARK   10  A    between atoms: C_26  and  N_27
REMARK                            x       y       z     vdW  Elec       q    Type
REMARK                         _______ _______ _______ _____ _____    ______ ____
ROOT
ATOM      1  C   UNL     1       2.696   3.551  18.489  0.00  0.00    +0.000 A 
ATOM      2  C   UNL     1       3.173   2.655  17.548  0.00  0.00    +0.000 A 
ATOM      3  N   UNL     1       4.317   2.832  16.850  0.00  0.00    +0.000 NA
ATOM      4  C   UNL     1       5.057   3.920  17.102  0.00  0.00    +0.000 A 
ATOM      5  C   UNL     1       6.204   4.112  16.343  0.00  0.00    +0.000 A 
ATOM      6  C   UNL     1       7.026   5.229  16.506  0.00  0.00    +0.000 A 
ATOM      7  C   UNL     1       6.730   6.171  17.489  0.00  0.00    +0.000 A 
ATOM      8  C   UNL     1       5.604   5.956  18.299  0.00  0.00    +0.000 A 
ATOM      9  C   UNL     1       4.704   4.877  18.084  0.00  0.00    +0.000 A 
ATOM     10  C   UNL     1       3.451   4.708  18.758  0.00  0.00    +0.000 A 
ENDROOT
BRANCH   7  11
ATOM     11  C   UNL     1       7.553   7.425  17.666  0.00  0.00    +0.000 C 
ATOM     12  F   UNL     1       8.384   7.383  18.743  0.00  0.00    +0.000 F 
ATOM     13  F   UNL     1       8.355   7.666  16.590  0.00  0.00    +0.000 F 
ATOM     14  F   UNL     1       6.787   8.537  17.821  0.00  0.00    +0.000 F 
ENDBRANCH   7  11
BRANCH   1  16
ATOM     15  O   UNL     1       0.766   4.041  19.763  0.00  0.00    +0.000 OA
ATOM     16  C   UNL     1       1.381   3.238  19.083  0.00  0.00    +0.000 C 
BRANCH  16  17
ATOM     17  O   UNL     1       0.951   1.978  18.865  0.00  0.00    +0.000 OA
ATOM     18  H   UNL     1       1.174   1.353  19.589  0.00  0.00    +0.000 HD
ENDBRANCH  16  17
ENDBRANCH   1  16
BRANCH  10  19
ATOM     19  N   UNL     1       2.932   5.671  19.679  0.00  0.00    +0.000 N 
ATOM     20  H   UNL     1       3.297   5.563  20.625  0.00  0.00    +0.000 HD
BRANCH  19  21
ATOM     21  C   UNL     1       2.341   6.924  19.407  0.00  0.00    +0.000 A 
ATOM     22  C   UNL     1       1.797   7.695  20.431  0.00  0.00    +0.000 A 
ATOM     23  C   UNL     1       1.191   8.919  20.168  0.00  0.00    +0.000 A 
ATOM     24  C   UNL     1       1.180   9.467  18.880  0.00  0.00    +0.000 A 
ATOM     25  C   UNL     1       1.766   8.730  17.852  0.00  0.00    +0.000 A 
ATOM     26  C   UNL     1       2.341   7.469  18.115  0.00  0.00    +0.000 A 
BRANCH  24  27
ATOM     27  O   UNL     1       0.640  10.705  18.560  0.00  0.00    +0.000 OA
BRANCH  27  28
ATOM     28  C   UNL     1       0.146  11.370  19.722  0.00  0.00    +0.000 C 
BRANCH  28  29
ATOM     29  C   UNL     1      -1.365  11.586  19.866  0.00  0.00    +0.000 C 
BRANCH  29  30
ATOM     30  C   UNL     1      -1.886  11.415  18.423  0.00  0.00    +0.000 C 
BRANCH  30  31
ATOM     31  N   UNL     1      -2.767  10.306  18.057  0.00  0.00    +0.000 NA
ATOM     32  C   UNL     1      -2.345   9.788  16.723  0.00  0.00    +0.000 C 
ATOM     33  C   UNL     1      -2.703  10.731  15.555  0.00  0.00    +0.000 C 
ATOM     34  O   UNL     1      -4.113  10.965  15.511  0.00  0.00    +0.000 OA
ATOM     35  C   UNL     1      -4.579  11.523  16.747  0.00  0.00    +0.000 C 
ATOM     36  C   UNL     1      -4.198  10.657  17.964  0.00  0.00    +0.000 C 
ENDBRANCH  30  31
ENDBRANCH  29  30
ENDBRANCH  28  29
ENDBRANCH  27  28
ENDBRANCH  24  27
ENDBRANCH  19  21
ENDBRANCH  10  19
TORSDOF 10
ENDMDL
MODEL 3
REMARK VINA RESULT:      -8.3      3.954      9.663
REMARK  Name = 
REMARK  10 active torsions:
REMARK  status: ('A' for Active; 'I' for Inactive)
REMARK    1  A    between atoms: C_2  and  O_3
REMARK    2  A    between atoms: C_2  and  C_4
REMARK    3  A    between atoms: C_10  and  C_11
REMARK    4  A    between atoms: C_17  and  N_18
REMARK    5  A    between atoms: N_18  and  C_19
REMARK    6  A    between atoms: C_22  and  O_23
REMARK    7  A    between atoms: O_23  and  C_24
REMARK    8  A    between atoms: C_24  and  C_25
REMARK    9  A    between atoms: C_25  and  C_26
REMARK   10  A    between atoms: C_26  and  N_27
REMARK                            x       y       z     vdW  Elec       q    Type
REMARK                         _______ _______ _______ _____ _____    ______ ____
ROOT
ATOM      1  C   UNL     1      -1.149  12.300  20.658  0.00  0.00    +0.000 A 
ATOM      2  C   UNL     1      -2.413  12.705  21.050  0.00  0.00    +0.000 A 
ATOM      3  N   UNL     1      -3.525  12.543  20.299  0.00  0.00    +0.000 NA
ATOM      4  C   UNL     1      -3.411  11.924  19.117  0.00  0.00    +0.000 A 
ATOM      5  C   UNL     1      -4.553  11.809  18.335  0.00  0.00    +0.000 A 
ATOM      6  C   UNL     1      -4.535  11.209  17.074  0.00  0.00    +0.000 A 
ATOM      7  C   UNL     1      -3.352  10.660  16.584  0.00  0.00    +0.000 A 
ATOM      8  C   UNL     1      -2.205  10.722  17.391  0.00  0.00    +0.000 A 
ATOM      9  C   UNL     1      -2.184  11.412  18.633  0.00  0.00    +0.000 A 
ATOM     10  C   UNL     1      -1.006  11.661  19.412  0.00  0.00    +0.000 A 
ENDROOT
BRANCH   7  11
ATOM     11  C   UNL     1      -3.265  10.053  15.204  0.00  0.00    +0.000 C 
ATOM     12  F   UNL     1      -2.431  10.725  14.365  0.00  0.00    +0.000 F 
ATOM     13  F   UNL     1      -2.802   8.771  15.238  0.00  0.00    +0.000 F 
ATOM     14  F   UNL     1      -4.471  10.000  14.579  0.00  0.00    +0.000 F 
ENDBRANCH   7  11
BRANCH   1  16
ATOM     15  O   UNL     1       1.002  13.137  21.167  0.00  0.00    +0.000 OA
ATOM     16  C   UNL     1      -0.039  12.645  21.568  0.00  0.00    +0.000 C 
BRANCH  16  17
ATOM     17  O   UNL     1      -0.246  12.314  22.859  0.00  0.00    +0.000 OA
ATOM     18  H   UNL     1       0.413  12.696  23.477  0.00  0.00    +0.000 HD
ENDBRANCH  16  17
ENDBRANCH   1  16
BRANCH  10  19
ATOM     19  N   UNL     1       0.305  11.301  18.969  0.00  0.00    +0.000 N 
ATOM     20  H   UNL     1       0.927  12.101  18.855  0.00  0.00    +0.000 HD
BRANCH  19  21
ATOM     21  C   UNL     1       0.952  10.049  19.050  0.00  0.00    +0.000 A 
ATOM     22  C   UNL     1       0.928   9.306  20.228  0.00  0.00    +0.000 A 
ATOM     23  C   UNL     1       1.584   8.084  20.323  0.00  0.00    +0.000 A 
ATOM     24  C   UNL     1       2.221   7.509  19.218  0.00  0.00    +0.000 A 
ATOM     25  C   UNL     1       2.211   8.216  18.017  0.00  0.00    +0.000 A 
ATOM     26  C   UNL     1       1.581   9.477  17.935  0.00  0.00    +0.000 A 
BRANCH  24  27
ATOM     27  O   UNL     1       2.847   6.270  19.231  0.00  0.00    +0.000 OA
BRANCH  27  28
ATOM     28  C   UNL     1       2.343   5.424  18.198  0.00  0.00    +0.000 C 
BRANCH  28  29
ATOM     29  C   UNL     1       3.271   4.369  17.584  0.00  0.00    +0.000 C 
BRANCH  29  30
ATOM     30  C   UNL     1       4.681   4.942  17.849  0.00  0.00    +0.000 C 
BRANCH  30  31
ATOM     31  N   UNL     1       5.885   4.225  17.429  0.00  0.00    +0.000 NA
ATOM     32  C   UNL     1       7.074   5.055  17.780  0.00  0.00    +0.000 C 
ATOM     33  C   UNL     1       7.247   6.297  16.880  0.00  0.00    +0.000 C 
ATOM     34  O   UNL     1       7.369   5.910  15.508  0.00  0.00    +0.000 OA
ATOM     35  C   UNL     1       6.225   5.157  15.084  0.00  0.00    +0.000 C 
ATOM     36  C   UNL     1       5.960   3.934  15.984  0.00  0.00    +0.000 C 
ENDBRANCH  30  31
ENDBRANCH  29  30
ENDBRANCH  28  29
ENDBRANCH  27  28
ENDBRANCH  24  27
ENDBRANCH  19  21
ENDBRANCH  10  19
TORSDOF 10
ENDMDL
MODEL 4
REMARK VINA RESULT:      -8.3      4.677      7.901
REMARK  Name = 
REMARK  10 active torsions:
REMARK  status: ('A' for Active; 'I' for Inactive)
REMARK    1  A    between atoms: C_2  and  O_3
REMARK    2  A    between atoms: C_2  and  C_4
REMARK    3  A    between atoms: C_10  and  C_11
REMARK    4  A    between atoms: C_17  and  N_18
REMARK    5  A    between atoms: N_18  and  C_19
REMARK    6  A    between atoms: C_22  and  O_23
REMARK    7  A    between atoms: O_23  and  C_24
REMARK    8  A    between atoms: C_24  and  C_25
REMARK    9  A    between atoms: C_25  and  C_26
REMARK   10  A    between atoms: C_26  and  N_27
REMARK                            x       y       z     vdW  Elec       q    Type
REMARK                         _______ _______ _______ _____ _____    ______ ____
ROOT
ATOM      1  C   UNL     1       4.034   2.493  20.511  0.00  0.00    +0.000 A 
ATOM      2  C   UNL     1       3.008   2.495  21.440  0.00  0.00    +0.000 A 
ATOM      3  N   UNL     1       2.126   3.509  21.587  0.00  0.00    +0.000 NA
ATOM      4  C   UNL     1       2.223   4.564  20.768  0.00  0.00    +0.000 A 
ATOM      5  C   UNL     1       1.341   5.618  20.964  0.00  0.00    +0.000 A 
ATOM      6  C   UNL     1       1.380   6.777  20.185  0.00  0.00    +0.000 A 
ATOM      7  C   UNL     1       2.296   6.879  19.140  0.00  0.00    +0.000 A 
ATOM      8  C   UNL     1       3.154   5.795  18.898  0.00  0.00    +0.000 A 
ATOM      9  C   UNL     1       3.192   4.651  19.740  0.00  0.00    +0.000 A 
ATOM     10  C   UNL     1       4.163   3.599  19.650  0.00  0.00    +0.000 A 
ENDROOT
BRANCH   7  11
ATOM     11  C   UNL     1       2.418   8.132  18.306  0.00  0.00    +0.000 C 
ATOM     12  F   UNL     1       3.573   8.200  17.590  0.00  0.00    +0.000 F 
ATOM     13  F   UNL     1       1.411   8.237  17.392  0.00  0.00    +0.000 F 
ATOM     14  F   UNL     1       2.366   9.266  19.053  0.00  0.00    +0.000 F 
ENDBRANCH   7  11
BRANCH   1  16
ATOM     15  O   UNL     1       5.725   1.160  21.486  0.00  0.00    +0.000 OA
ATOM     16  C   UNL     1       4.958   1.342  20.557  0.00  0.00    +0.000 C 
BRANCH  16  17
ATOM     17  O   UNL     1       4.925   0.551  19.465  0.00  0.00    +0.000 OA
ATOM     18  H   UNL     1       5.349  -0.325  19.596  0.00  0.00    +0.000 HD
ENDBRANCH  16  17
ENDBRANCH   1  16
BRANCH  10  19
ATOM     19  N   UNL     1       5.261   3.636  18.734  0.00  0.00    +0.000 N 
ATOM     20  H   UNL     1       5.303   2.822  18.122  0.00  0.00    +0.000 HD
BRANCH  19  21
ATOM     21  C   UNL     1       6.010   4.749  18.299  0.00  0.00    +0.000 A 
ATOM     22  C   UNL     1       5.757   5.344  17.065  0.00  0.00    +0.000 A 
ATOM     23  C   UNL     1       6.508   6.425  16.618  0.00  0.00    +0.000 A 
ATOM     24  C   UNL     1       7.489   7.017  17.423  0.00  0.00    +0.000 A 
ATOM     25  C   UNL     1       7.720   6.465  18.682  0.00  0.00    +0.000 A 
ATOM     26  C   UNL     1       6.986   5.340  19.115  0.00  0.00    +0.000 A 
BRANCH  24  27
ATOM     27  O   UNL     1       8.236   8.129  17.059  0.00  0.00    +0.000 OA
BRANCH  27  28
ATOM     28  C   UNL     1       8.037   9.207  17.974  0.00  0.00    +0.000 C 
BRANCH  28  29
ATOM     29  C   UNL     1       9.183   9.604  18.912  0.00  0.00    +0.000 C 
BRANCH  29  30
ATOM     30  C   UNL     1       9.091  11.146  18.949  0.00  0.00    +0.000 C 
BRANCH  30  31
ATOM     31  N   UNL     1       9.276  11.949  17.741  0.00  0.00    +0.000 NA
ATOM     32  C   UNL     1      10.704  12.377  17.673  0.00  0.00    +0.000 C 
ATOM     33  C   UNL     1      11.070  13.465  18.704  0.00  0.00    +0.000 C 
ATOM     34  O   UNL     1      10.254  14.625  18.524  0.00  0.00    +0.000 OA
ATOM     35  C   UNL     1       8.863  14.296  18.638  0.00  0.00    +0.000 C 
ATOM     36  C   UNL     1       8.445  13.167  17.675  0.00  0.00    +0.000 C 
ENDBRANCH  30  31
ENDBRANCH  29  30
ENDBRANCH  28  29
ENDBRANCH  27  28
ENDBRANCH  24  27
ENDBRANCH  19  21
ENDBRANCH  10  19
TORSDOF 10
ENDMDL
MODEL 5
REMARK VINA RESULT:      -8.3      2.845      4.115
REMARK  Name = 
REMARK  10 active torsions:
REMARK  status: ('A' for Active; 'I' for Inactive)
REMARK    1  A    between atoms: C_2  and  O_3
REMARK    2  A    between atoms: C_2  and  C_4
REMARK    3  A    between atoms: C_10  and  C_11
REMARK    4  A    between atoms: C_17  and  N_18
REMARK    5  A    between atoms: N_18  and  C_19
REMARK    6  A    between atoms: C_22  and  O_23
REMARK    7  A    between atoms: O_23  and  C_24
REMARK    8  A    between atoms: C_24  and  C_25
REMARK    9  A    between atoms: C_25  and  C_26
REMARK   10  A    between atoms: C_26  and  N_27
REMARK                            x       y       z     vdW  Elec       q    Type
REMARK                         _______ _______ _______ _____ _____    ______ ____
ROOT
ATOM      1  C   UNL     1       2.429   3.634  18.760  0.00  0.00    +0.000 A 
ATOM      2  C   UNL     1       2.799   2.705  17.802  0.00  0.00    +0.000 A 
ATOM      3  N   UNL     1       3.906   2.815  17.034  0.00  0.00    +0.000 NA
ATOM      4  C   UNL     1       4.716   3.864  17.227  0.00  0.00    +0.000 A 
ATOM      5  C   UNL     1       5.822   3.987  16.397  0.00  0.00    +0.000 A 
ATOM      6  C   UNL     1       6.711   5.061  16.496  0.00  0.00    +0.000 A 
ATOM      7  C   UNL     1       6.526   6.026  17.483  0.00  0.00    +0.000 A 
ATOM      8  C   UNL     1       5.442   5.879  18.363  0.00  0.00    +0.000 A 
ATOM      9  C   UNL     1       4.475   4.847  18.217  0.00  0.00    +0.000 A 
ATOM     10  C   UNL     1       3.258   4.751  18.968  0.00  0.00    +0.000 A 
ENDROOT
BRANCH   7  11
ATOM     11  C   UNL     1       7.423   7.236  17.595  0.00  0.00    +0.000 C 
ATOM     12  F   UNL     1       8.305   7.165  18.628  0.00  0.00    +0.000 F 
ATOM     13  F   UNL     1       8.179   7.416  16.474  0.00  0.00    +0.000 F 
ATOM     14  F   UNL     1       6.726   8.390  17.767  0.00  0.00    +0.000 F 
ENDBRANCH   7  11
BRANCH   1  16
ATOM     15  O   UNL     1       0.855   3.920  20.501  0.00  0.00    +0.000 OA
ATOM     16  C   UNL     1       1.138   3.397  19.437  0.00  0.00    +0.000 C 
BRANCH  16  17
ATOM     17  O   UNL     1       0.333   2.510  18.816  0.00  0.00    +0.000 OA
ATOM     18  H   UNL     1       0.780   1.996  18.109  0.00  0.00    +0.000 HD
ENDBRANCH  16  17
ENDBRANCH   1  16
BRANCH  10  19
ATOM     19  N   UNL     1       2.849   5.749  19.907  0.00  0.00    +0.000 N 
ATOM     20  H   UNL     1       3.291   5.650  20.820  0.00  0.00    +0.000 HD
BRANCH  19  21
ATOM     21  C   UNL     1       2.272   7.012  19.657  0.00  0.00    +0.000 A 
ATOM     22  C   UNL     1       1.663   7.735  20.680  0.00  0.00    +0.000 A 
ATOM     23  C   UNL     1       1.071   8.969  20.437  0.00  0.00    +0.000 A 
ATOM     24  C   UNL     1       1.137   9.576  19.177  0.00  0.00    +0.000 A 
ATOM     25  C   UNL     1       1.788   8.889  18.155  0.00  0.00    +0.000 A 
ATOM     26  C   UNL     1       2.350   7.617  18.394  0.00  0.00    +0.000 A 
BRANCH  24  27
ATOM     27  O   UNL     1       0.614  10.828  18.882  0.00  0.00    +0.000 OA
BRANCH  27  28
ATOM     28  C   UNL     1       1.496  11.869  19.303  0.00  0.00    +0.000 C 
BRANCH  28  29
ATOM     29  C   UNL     1       2.404  12.537  18.264  0.00  0.00    +0.000 C 
BRANCH  29  30
ATOM     30  C   UNL     1       1.950  14.013  18.294  0.00  0.00    +0.000 C 
BRANCH  30  31
ATOM     31  N   UNL     1       2.265  14.884  19.426  0.00  0.00    +0.000 NA
ATOM     32  C   UNL     1       1.612  16.206  19.200  0.00  0.00    +0.000 C 
ATOM     33  C   UNL     1       2.287  17.047  18.096  0.00  0.00    +0.000 C 
ATOM     34  O   UNL     1       3.662  17.284  18.414  0.00  0.00    +0.000 OA
ATOM     35  C   UNL     1       4.368  16.047  18.585  0.00  0.00    +0.000 C 
ATOM     36  C   UNL     1       3.706  15.132  19.633  0.00  0.00    +0.000 C 
ENDBRANCH  30  31
ENDBRANCH  29  30
ENDBRANCH  28  29
ENDBRANCH  27  28
ENDBRANCH  24  27
ENDBRANCH  19  21
ENDBRANCH  10  19
TORSDOF 10
ENDMDL
MODEL 6
REMARK VINA RESULT:      -8.3      1.941      3.123
REMARK  Name = 
REMARK  10 active torsions:
REMARK  status: ('A' for Active; 'I' for Inactive)
REMARK    1  A    between atoms: C_2  and  O_3
REMARK    2  A    between atoms: C_2  and  C_4
REMARK    3  A    between atoms: C_10  and  C_11
REMARK    4  A    between atoms: C_17  and  N_18
REMARK    5  A    between atoms: N_18  and  C_19
REMARK    6  A    between atoms: C_22  and  O_23
REMARK    7  A    between atoms: O_23  and  C_24
REMARK    8  A    between atoms: C_24  and  C_25
REMARK    9  A    between atoms: C_25  and  C_26
REMARK   10  A    between atoms: C_26  and  N_27
REMARK                            x       y       z     vdW  Elec       q    Type
REMARK                         _______ _______ _______ _____ _____    ______ ____
ROOT
ATOM      1  C   UNL     1       2.475   3.771  19.005  0.00  0.00    +0.000 A 
ATOM      2  C   UNL     1       2.843   2.783  18.108  0.00  0.00    +0.000 A 
ATOM      3  N   UNL     1       3.949   2.841  17.334  0.00  0.00    +0.000 NA
ATOM      4  C   UNL     1       4.761   3.899  17.459  0.00  0.00    +0.000 A 
ATOM      5  C   UNL     1       5.867   3.968  16.621  0.00  0.00    +0.000 A 
ATOM      6  C   UNL     1       6.757   5.044  16.650  0.00  0.00    +0.000 A 
ATOM      7  C   UNL     1       6.574   6.071  17.574  0.00  0.00    +0.000 A 
ATOM      8  C   UNL     1       5.491   5.982  18.463  0.00  0.00    +0.000 A 
ATOM      9  C   UNL     1       4.523   4.944  18.383  0.00  0.00    +0.000 A 
ATOM     10  C   UNL     1       3.307   4.898  19.141  0.00  0.00    +0.000 A 
ENDROOT
BRANCH   7  11
ATOM     11  C   UNL     1       7.473   7.284  17.608  0.00  0.00    +0.000 C 
ATOM     12  F   UNL     1       6.801   8.455  17.774  0.00  0.00    +0.000 F 
ATOM     13  F   UNL     1       8.372   7.225  18.631  0.00  0.00    +0.000 F 
ATOM     14  F   UNL     1       8.206   7.424  16.472  0.00  0.00    +0.000 F 
ENDBRANCH   7  11
BRANCH   1  16
ATOM     15  O   UNL     1       0.945   4.086  20.780  0.00  0.00    +0.000 OA
ATOM     16  C   UNL     1       1.185   3.579  19.697  0.00  0.00    +0.000 C 
BRANCH  16  17
ATOM     17  O   UNL     1       0.326   2.752  19.066  0.00  0.00    +0.000 OA
ATOM     18  H   UNL     1       0.102   3.035  18.153  0.00  0.00    +0.000 HD
ENDBRANCH  16  17
ENDBRANCH   1  16
BRANCH  10  19
ATOM     19  N   UNL     1       2.899   5.954  20.014  0.00  0.00    +0.000 N 
ATOM     20  H   UNL     1       3.367   5.933  20.920  0.00  0.00    +0.000 HD
BRANCH  19  21
ATOM     21  C   UNL     1       2.289   7.184  19.688  0.00  0.00    +0.000 A 
ATOM     22  C   UNL     1       2.329   7.680  18.388  0.00  0.00    +0.000 A 
ATOM     23  C   UNL     1       1.751   8.903  18.065  0.00  0.00    +0.000 A 
ATOM     24  C   UNL     1       1.031   9.644  19.009  0.00  0.00    +0.000 A 
ATOM     25  C   UNL     1       0.938   9.136  20.304  0.00  0.00    +0.000 A 
ATOM     26  C   UNL     1       1.563   7.916  20.640  0.00  0.00    +0.000 A 
BRANCH  24  27
ATOM     27  O   UNL     1       0.386  10.843  18.739  0.00  0.00    +0.000 OA
BRANCH  27  28
ATOM     28  C   UNL     1      -0.927  10.861  19.297  0.00  0.00    +0.000 C 
BRANCH  28  29
ATOM     29  C   UNL     1      -1.788  12.119  19.128  0.00  0.00    +0.000 C 
BRANCH  29  30
ATOM     30  C   UNL     1      -1.666  12.818  20.500  0.00  0.00    +0.000 C 
BRANCH  30  31
ATOM     31  N   UNL     1      -2.077  12.151  21.735  0.00  0.00    +0.000 NA
ATOM     32  C   UNL     1      -3.448  12.619  22.090  0.00  0.00    +0.000 C 
ATOM     33  C   UNL     1      -3.487  14.070  22.615  0.00  0.00    +0.000 C 
ATOM     34  O   UNL     1      -2.660  14.208  23.774  0.00  0.00    +0.000 OA
ATOM     35  C   UNL     1      -1.307  13.830  23.486  0.00  0.00    +0.000 C 
ATOM     36  C   UNL     1      -1.206  12.410  22.897  0.00  0.00    +0.000 C 
ENDBRANCH  30  31
ENDBRANCH  29  30
ENDBRANCH  28  29
ENDBRANCH  27  28
ENDBRANCH  24  27
ENDBRANCH  19  21
ENDBRANCH  10  19
TORSDOF 10
ENDMDL
MODEL 7
REMARK VINA RESULT:      -8.2      2.942      4.250
REMARK  Name = 
REMARK  10 active torsions:
REMARK  status: ('A' for Active; 'I' for Inactive)
REMARK    1  A    between atoms: C_2  and  O_3
REMARK    2  A    between atoms: C_2  and  C_4
REMARK    3  A    between atoms: C_10  and  C_11
REMARK    4  A    between atoms: C_17  and  N_18
REMARK    5  A    between atoms: N_18  and  C_19
REMARK    6  A    between atoms: C_22  and  O_23
REMARK    7  A    between atoms: O_23  and  C_24
REMARK    8  A    between atoms: C_24  and  C_25
REMARK    9  A    between atoms: C_25  and  C_26
REMARK   10  A    between atoms: C_26  and  N_27
REMARK                            x       y       z     vdW  Elec       q    Type
REMARK                         _______ _______ _______ _____ _____    ______ ____
ROOT
ATOM      1  C   UNL     1       2.328   3.755  18.997  0.00  0.00    +0.000 A 
ATOM      2  C   UNL     1       2.651   2.769  18.080  0.00  0.00    +0.000 A 
ATOM      3  N   UNL     1       3.743   2.807  17.285  0.00  0.00    +0.000 NA
ATOM      4  C   UNL     1       4.587   3.840  17.408  0.00  0.00    +0.000 A 
ATOM      5  C   UNL     1       5.678   3.889  16.550  0.00  0.00    +0.000 A 
ATOM      6  C   UNL     1       6.599   4.939  16.576  0.00  0.00    +0.000 A 
ATOM      7  C   UNL     1       6.464   5.957  17.518  0.00  0.00    +0.000 A 
ATOM      8  C   UNL     1       5.396   5.886  18.426  0.00  0.00    +0.000 A 
ATOM      9  C   UNL     1       4.397   4.878  18.351  0.00  0.00    +0.000 A 
ATOM     10  C   UNL     1       3.195   4.856  19.131  0.00  0.00    +0.000 A 
ENDROOT
BRANCH   7  11
ATOM     11  C   UNL     1       7.398   7.143  17.550  0.00  0.00    +0.000 C 
ATOM     12  F   UNL     1       6.762   8.332  17.732  0.00  0.00    +0.000 F 
ATOM     13  F   UNL     1       8.306   7.051  18.564  0.00  0.00    +0.000 F 
ATOM     14  F   UNL     1       8.123   7.270  16.407  0.00  0.00    +0.000 F 
ENDBRANCH   7  11
BRANCH   1  16
ATOM     15  O   UNL     1       0.815   4.148  20.770  0.00  0.00    +0.000 OA
ATOM     16  C   UNL     1       1.047   3.591  19.711  0.00  0.00    +0.000 C 
BRANCH  16  17
ATOM     17  O   UNL     1       0.186   2.729  19.130  0.00  0.00    +0.000 OA
ATOM     18  H   UNL     1      -0.094   1.993  19.716  0.00  0.00    +0.000 HD
ENDBRANCH  16  17
ENDBRANCH   1  16
BRANCH  10  19
ATOM     19  N   UNL     1       2.835   5.911  20.027  0.00  0.00    +0.000 N 
ATOM     20  H   UNL     1       3.323   5.866  20.921  0.00  0.00    +0.000 HD
BRANCH  19  21
ATOM     21  C   UNL     1       2.248   7.160  19.730  0.00  0.00    +0.000 A 
ATOM     22  C   UNL     1       1.588   7.892  20.714  0.00  0.00    +0.000 A 
ATOM     23  C   UNL     1       0.986   9.111  20.423  0.00  0.00    +0.000 A 
ATOM     24  C   UNL     1       1.093   9.695  19.156  0.00  0.00    +0.000 A 
ATOM     25  C   UNL     1       1.795   8.999  18.173  0.00  0.00    +0.000 A 
ATOM     26  C   UNL     1       2.367   7.741  18.459  0.00  0.00    +0.000 A 
BRANCH  24  27
ATOM     27  O   UNL     1       0.563  10.932  18.815  0.00  0.00    +0.000 OA
BRANCH  27  28
ATOM     28  C   UNL     1       1.593  11.902  18.626  0.00  0.00    +0.000 C 
BRANCH  28  29
ATOM     29  C   UNL     1       1.329  13.355  19.039  0.00  0.00    +0.000 C 
BRANCH  29  30
ATOM     30  C   UNL     1       2.673  13.796  19.658  0.00  0.00    +0.000 C 
BRANCH  30  31
ATOM     31  N   UNL     1       3.754  14.331  18.831  0.00  0.00    +0.000 NA
ATOM     32  C   UNL     1       4.642  15.163  19.695  0.00  0.00    +0.000 C 
ATOM     33  C   UNL     1       4.012  16.509  20.111  0.00  0.00    +0.000 C 
ATOM     34  O   UNL     1       3.670  17.282  18.957  0.00  0.00    +0.000 OA
ATOM     35  C   UNL     1       2.766  16.563  18.108  0.00  0.00    +0.000 C 
ATOM     36  C   UNL     1       3.311  15.179  17.707  0.00  0.00    +0.000 C 
ENDBRANCH  30  31
ENDBRANCH  29  30
ENDBRANCH  28  29
ENDBRANCH  27  28
ENDBRANCH  24  27
ENDBRANCH  19  21
ENDBRANCH  10  19
TORSDOF 10
ENDMDL
MODEL 8
REMARK VINA RESULT:      -8.2      2.424      3.304
REMARK  Name = 
REMARK  10 active torsions:
REMARK  status: ('A' for Active; 'I' for Inactive)
REMARK    1  A    between atoms: C_2  and  O_3
REMARK    2  A    between atoms: C_2  and  C_4
REMARK    3  A    between atoms: C_10  and  C_11
REMARK    4  A    between atoms: C_17  and  N_18
REMARK    5  A    between atoms: N_18  and  C_19
REMARK    6  A    between atoms: C_22  and  O_23
REMARK    7  A    between atoms: O_23  and  C_24
REMARK    8  A    between atoms: C_24  and  C_25
REMARK    9  A    between atoms: C_25  and  C_26
REMARK   10  A    between atoms: C_26  and  N_27
REMARK                            x       y       z     vdW  Elec       q    Type
REMARK                         _______ _______ _______ _____ _____    ______ ____
ROOT
ATOM      1  C   UNL     1       2.411   3.737  18.914  0.00  0.00    +0.000 A 
ATOM      2  C   UNL     1       2.732   2.793  17.954  0.00  0.00    +0.000 A 
ATOM      3  N   UNL     1       3.818   2.871  17.153  0.00  0.00    +0.000 NA
ATOM      4  C   UNL     1       4.656   3.903  17.313  0.00  0.00    +0.000 A 
ATOM      5  C   UNL     1       5.740   3.994  16.449  0.00  0.00    +0.000 A 
ATOM      6  C   UNL     1       6.655   5.048  16.512  0.00  0.00    +0.000 A 
ATOM      7  C   UNL     1       6.521   6.026  17.496  0.00  0.00    +0.000 A 
ATOM      8  C   UNL     1       5.460   5.910  18.409  0.00  0.00    +0.000 A 
ATOM      9  C   UNL     1       4.467   4.899  18.300  0.00  0.00    +0.000 A 
ATOM     10  C   UNL     1       3.271   4.837  19.088  0.00  0.00    +0.000 A 
ENDROOT
BRANCH   7  11
ATOM     11  C   UNL     1       7.448   7.215  17.571  0.00  0.00    +0.000 C 
ATOM     12  F   UNL     1       8.252   7.348  16.481  0.00  0.00    +0.000 F 
ATOM     13  F   UNL     1       6.763   8.391  17.670  0.00  0.00    +0.000 F 
ATOM     14  F   UNL     1       8.273   7.169  18.649  0.00  0.00    +0.000 F 
ENDBRANCH   7  11
BRANCH   1  16
ATOM     15  O   UNL     1       0.924   4.014  20.731  0.00  0.00    +0.000 OA
ATOM     16  C   UNL     1       1.136   3.535  19.631  0.00  0.00    +0.000 C 
BRANCH  16  17
ATOM     17  O   UNL     1       0.258   2.729  18.999  0.00  0.00    +0.000 OA
ATOM     18  H   UNL     1       0.007   1.933  19.516  0.00  0.00    +0.000 HD
ENDBRANCH  16  17
ENDBRANCH   1  16
BRANCH  10  19
ATOM     19  N   UNL     1       2.912   5.851  20.029  0.00  0.00    +0.000 N 
ATOM     20  H   UNL     1       3.447   5.806  20.897  0.00  0.00    +0.000 HD
BRANCH  19  21
ATOM     21  C   UNL     1       2.257   7.080  19.797  0.00  0.00    +0.000 A 
ATOM     22  C   UNL     1       1.572   7.730  20.821  0.00  0.00    +0.000 A 
ATOM     23  C   UNL     1       0.904   8.928  20.594  0.00  0.00    +0.000 A 
ATOM     24  C   UNL     1       0.963   9.574  19.354  0.00  0.00    +0.000 A 
ATOM     25  C   UNL     1       1.687   8.962  18.332  0.00  0.00    +0.000 A 
ATOM     26  C   UNL     1       2.328   7.724  18.554  0.00  0.00    +0.000 A 
BRANCH  24  27
ATOM     27  O   UNL     1       0.364  10.796  19.077  0.00  0.00    +0.000 OA
BRANCH  27  28
ATOM     28  C   UNL     1       1.054  11.867  19.719  0.00  0.00    +0.000 C 
BRANCH  28  29
ATOM     29  C   UNL     1       0.400  13.253  19.757  0.00  0.00    +0.000 C 
BRANCH  29  30
ATOM     30  C   UNL     1      -0.695  13.098  20.835  0.00  0.00    +0.000 C 
BRANCH  30  31
ATOM     31  N   UNL     1      -0.358  12.985  22.254  0.00  0.00    +0.000 NA
ATOM     32  C   UNL     1      -1.096  11.820  22.822  0.00  0.00    +0.000 C 
ATOM     33  C   UNL     1      -2.609  12.070  22.988  0.00  0.00    +0.000 C 
ATOM     34  O   UNL     1      -2.843  13.196  23.838  0.00  0.00    +0.000 OA
ATOM     35  C   UNL     1      -2.210  14.372  23.316  0.00  0.00    +0.000 C 
ATOM     36  C   UNL     1      -0.703  14.167  23.068  0.00  0.00    +0.000 C 
ENDBRANCH  30  31
ENDBRANCH  29  30
ENDBRANCH  28  29
ENDBRANCH  27  28
ENDBRANCH  24  27
ENDBRANCH  19  21
ENDBRANCH  10  19
TORSDOF 10
ENDMDL
MODEL 9
REMARK VINA RESULT:      -8.2      3.973      9.549
REMARK  Name = 
REMARK  10 active torsions:
REMARK  status: ('A' for Active; 'I' for Inactive)
REMARK    1  A    between atoms: C_2  and  O_3
REMARK    2  A    between atoms: C_2  and  C_4
REMARK    3  A    between atoms: C_10  and  C_11
REMARK    4  A    between atoms: C_17  and  N_18
REMARK    5  A    between atoms: N_18  and  C_19
REMARK    6  A    between atoms: C_22  and  O_23
REMARK    7  A    between atoms: O_23  and  C_24
REMARK    8  A    between atoms: C_24  and  C_25
REMARK    9  A    between atoms: C_25  and  C_26
REMARK   10  A    between atoms: C_26  and  N_27
REMARK                            x       y       z     vdW  Elec       q    Type
REMARK                         _______ _______ _______ _____ _____    ______ ____
ROOT
ATOM      1  C   UNL     1      -1.172  12.248  20.341  0.00  0.00    +0.000 A 
ATOM      2  C   UNL     1      -2.425  12.699  20.720  0.00  0.00    +0.000 A 
ATOM      3  N   UNL     1      -3.540  12.549  19.971  0.00  0.00    +0.000 NA
ATOM      4  C   UNL     1      -3.442  11.897  18.805  0.00  0.00    +0.000 A 
ATOM      5  C   UNL     1      -4.586  11.794  18.024  0.00  0.00    +0.000 A 
ATOM      6  C   UNL     1      -4.582  11.162  16.779  0.00  0.00    +0.000 A 
ATOM      7  C   UNL     1      -3.415  10.567  16.306  0.00  0.00    +0.000 A 
ATOM      8  C   UNL     1      -2.268  10.617  17.114  0.00  0.00    +0.000 A 
ATOM      9  C   UNL     1      -2.229  11.337  18.338  0.00  0.00    +0.000 A 
ATOM     10  C   UNL     1      -1.046  11.573  19.113  0.00  0.00    +0.000 A 
ENDROOT
BRANCH   7  11
ATOM     11  C   UNL     1      -3.343   9.922  14.942  0.00  0.00    +0.000 C 
ATOM     12  F   UNL     1      -2.454  10.520  14.103  0.00  0.00    +0.000 F 
ATOM     13  F   UNL     1      -2.962   8.615  15.014  0.00  0.00    +0.000 F 
ATOM     14  F   UNL     1      -4.539   9.929  14.297  0.00  0.00    +0.000 F 
ENDBRANCH   7  11
BRANCH   1  16
ATOM     15  O   UNL     1      -0.026  12.223  22.408  0.00  0.00    +0.000 OA
ATOM     16  C   UNL     1      -0.054  12.584  21.245  0.00  0.00    +0.000 C 
BRANCH  16  17
ATOM     17  O   UNL     1       0.894  13.373  20.696  0.00  0.00    +0.000 OA
ATOM     18  H   UNL     1       1.109  13.144  19.766  0.00  0.00    +0.000 HD
ENDBRANCH  16  17
ENDBRANCH   1  16
BRANCH  10  19
ATOM     19  N   UNL     1       0.255  11.164  18.682  0.00  0.00    +0.000 N 
ATOM     20  H   UNL     1       0.866  11.945  18.444  0.00  0.00    +0.000 HD
BRANCH  19  21
ATOM     21  C   UNL     1       0.916   9.938  18.910  0.00  0.00    +0.000 A 
ATOM     22  C   UNL     1       1.654   9.325  17.900  0.00  0.00    +0.000 A 
ATOM     23  C   UNL     1       2.287   8.105  18.110  0.00  0.00    +0.000 A 
ATOM     24  C   UNL     1       2.284   7.485  19.365  0.00  0.00    +0.000 A 
ATOM     25  C   UNL     1       1.592   8.112  20.400  0.00  0.00    +0.000 A 
ATOM     26  C   UNL     1       0.914   9.328  20.173  0.00  0.00    +0.000 A 
BRANCH  24  27
ATOM     27  O   UNL     1       2.940   6.296  19.654  0.00  0.00    +0.000 OA
BRANCH  27  28
ATOM     28  C   UNL     1       2.454   5.227  18.843  0.00  0.00    +0.000 C 
BRANCH  28  29
ATOM     29  C   UNL     1       3.427   4.126  18.407  0.00  0.00    +0.000 C 
BRANCH  29  30
ATOM     30  C   UNL     1       4.035   4.686  17.102  0.00  0.00    +0.000 C 
BRANCH  30  31
ATOM     31  N   UNL     1       4.985   5.798  17.120  0.00  0.00    +0.000 NA
ATOM     32  C   UNL     1       5.401   6.086  15.717  0.00  0.00    +0.000 C 
ATOM     33  C   UNL     1       6.341   5.018  15.120  0.00  0.00    +0.000 C 
ATOM     34  O   UNL     1       7.525   4.891  15.912  0.00  0.00    +0.000 OA
ATOM     35  C   UNL     1       7.201   4.553  17.268  0.00  0.00    +0.000 C 
ATOM     36  C   UNL     1       6.212   5.550  17.903  0.00  0.00    +0.000 C 
ENDBRANCH  30  31
ENDBRANCH  29  30
ENDBRANCH  28  29
ENDBRANCH  27  28
ENDBRANCH  24  27
ENDBRANCH  19  21
ENDBRANCH  10  19
TORSDOF 10
ENDMDL
