MODEL 1
REMARK VINA RESULT:      -6.9      0.000      0.000
REMARK  Name = 
REMARK  9 active torsions:
REMARK  status: ('A' for Active; 'I' for Inactive)
REMARK    1  A    between atoms: C_1  and  O_2
REMARK    2  A    between atoms: O_2  and  C_3
REMARK    3  A    between atoms: C_5  and  N_6
REMARK    4  A    between atoms: N_6  and  C_7
REMARK    5  A    between atoms: C_7  and  C_8
REMARK    6  A    between atoms: C_8  and  C_9
REMARK    7  A    between atoms: C_8  and  C_11
REMARK    8  A    between atoms: C_15  and  N_16
REMARK    9  A    between atoms: N_17  and  C_18
REMARK                            x       y       z     vdW  Elec       q    Type
REMARK                         _______ _______ _______ _____ _____    ______ ____
ROOT
ATOM      1  C   UNL     1       2.089   4.596  19.915  0.00  0.00    +0.000 A 
ATOM      2  C   UNL     1       2.985   3.776  19.182  0.00  0.00    +0.000 A 
ATOM      3  C   UNL     1       4.038   4.308  18.413  0.00  0.00    +0.000 A 
ATOM      4  C   UNL     1       4.160   5.695  18.378  0.00  0.00    +0.000 A 
ATOM      5  C   UNL     1       3.284   6.513  19.087  0.00  0.00    +0.000 A 
ATOM      6  C   UNL     1       2.215   5.994  19.832  0.00  0.00    +0.000 A 
ENDROOT
BRANCH   1   8
ATOM      7  C   UNL     1       1.678   2.973  21.628  0.00  0.00    +0.000 C 
ATOM      8  O   UNL     1       1.176   3.879  20.652  0.00  0.00    +0.000 OA
ENDBRANCH   1   8
BRANCH   3   9
ATOM      9  N   UNL     1       4.844   3.446  17.645  0.00  0.00    +0.000 N 
ATOM     10  H   UNL     1       5.569   3.040  18.243  0.00  0.00    +0.000 HD
BRANCH   9  11
ATOM     11  C   UNL     1       5.310   3.898  16.317  0.00  0.00    +0.000 C 
BRANCH  11  12
ATOM     12  C   UNL     1       6.845   3.973  16.188  0.00  0.00    +0.000 C 
BRANCH  12  13
ATOM     13  C   UNL     1       7.442   4.479  17.429  0.00  0.00    +0.000 C 
ATOM     14  N   UNL     1       7.878   4.889  18.423  0.00  0.00    +0.000 NA
ENDBRANCH  12  13
BRANCH  12  15
ATOM     15  C   UNL     1       7.208   4.817  15.031  0.00  0.00    +0.000 C 
ATOM     16  N   UNL     1       7.510   5.487  14.138  0.00  0.00    +0.000 NA
ENDBRANCH  12  15
ENDBRANCH  11  12
ENDBRANCH   9  11
ENDBRANCH   3   9
BRANCH   6  17
ATOM     17  N   UNL     1       1.373   6.901  20.516  0.00  0.00    +0.000 NA
ATOM     18  N   UNL     1       1.495   8.070  20.089  0.00  0.00    +0.000 NA
BRANCH  18  19
ATOM     19  C   UNL     1       0.837   9.009  20.903  0.00  0.00    +0.000 A 
ATOM     20  C   UNL     1       0.627  10.296  20.391  0.00  0.00    +0.000 A 
ATOM     21  C   UNL     1      -0.043  11.265  21.142  0.00  0.00    +0.000 A 
ATOM     22  C   UNL     1      -0.515  10.947  22.413  0.00  0.00    +0.000 A 
ATOM     23 CL   UNL     1      -1.382  12.119  23.324  0.00  0.00    +0.000 Cl
ATOM     24  C   UNL     1      -0.296   9.681  22.949  0.00  0.00    +0.000 A 
ATOM     25  C   UNL     1       0.373   8.716  22.193  0.00  0.00    +0.000 A 
ENDBRANCH  18  19
ENDBRANCH   6  17
TORSDOF 8
ENDMDL
MODEL 2
REMARK VINA RESULT:      -6.9      0.990      1.957
REMARK  Name = 
REMARK  9 active torsions:
REMARK  status: ('A' for Active; 'I' for Inactive)
REMARK    1  A    between atoms: C_1  and  O_2
REMARK    2  A    between atoms: O_2  and  C_3
REMARK    3  A    between atoms: C_5  and  N_6
REMARK    4  A    between atoms: N_6  and  C_7
REMARK    5  A    between atoms: C_7  and  C_8
REMARK    6  A    between atoms: C_8  and  C_9
REMARK    7  A    between atoms: C_8  and  C_11
REMARK    8  A    between atoms: C_15  and  N_16
REMARK    9  A    between atoms: N_17  and  C_18
REMARK                            x       y       z     vdW  Elec       q    Type
REMARK                         _______ _______ _______ _____ _____    ______ ____
ROOT
ATOM      1  C   UNL     1       2.496   5.286  20.286  0.00  0.00    +0.000 A 
ATOM      2  C   UNL     1       3.356   4.473  19.506  0.00  0.00    +0.000 A 
ATOM      3  C   UNL     1       4.004   4.951  18.350  0.00  0.00    +0.000 A 
ATOM      4  C   UNL     1       3.752   6.269  17.981  0.00  0.00    +0.000 A 
ATOM      5  C   UNL     1       2.905   7.078  18.733  0.00  0.00    +0.000 A 
ATOM      6  C   UNL     1       2.231   6.603  19.868  0.00  0.00    +0.000 A 
ENDROOT
BRANCH   1   8
ATOM      7  C   UNL     1       1.571   3.307  21.268  0.00  0.00    +0.000 C 
ATOM      8  O   UNL     1       2.017   4.651  21.408  0.00  0.00    +0.000 OA
ENDBRANCH   1   8
BRANCH   3   9
ATOM      9  N   UNL     1       4.783   4.070  17.575  0.00  0.00    +0.000 N 
ATOM     10  H   UNL     1       5.744   4.071  17.926  0.00  0.00    +0.000 HD
BRANCH   9  11
ATOM     11  C   UNL     1       4.654   4.112  16.102  0.00  0.00    +0.000 C 
BRANCH  11  12
ATOM     12  C   UNL     1       5.884   4.708  15.387  0.00  0.00    +0.000 C 
BRANCH  12  13
ATOM     13  C   UNL     1       6.089   4.060  14.087  0.00  0.00    +0.000 C 
ATOM     14  N   UNL     1       6.230   3.516  13.071  0.00  0.00    +0.000 NA
ENDBRANCH  12  13
BRANCH  12  15
ATOM     15  C   UNL     1       7.075   4.577  16.250  0.00  0.00    +0.000 C 
ATOM     16  N   UNL     1       7.999   4.452  16.935  0.00  0.00    +0.000 NA
ENDBRANCH  12  15
ENDBRANCH  11  12
ENDBRANCH   9  11
ENDBRANCH   3   9
BRANCH   6  17
ATOM     17  N   UNL     1       1.387   7.496  20.568  0.00  0.00    +0.000 NA
ATOM     18  N   UNL     1       1.198   8.558  19.936  0.00  0.00    +0.000 NA
BRANCH  18  19
ATOM     19  C   UNL     1       0.550   9.534  20.713  0.00  0.00    +0.000 A 
ATOM     20  C   UNL     1       0.126   9.180  22.001  0.00  0.00    +0.000 A 
ATOM     21  C   UNL     1      -0.502  10.112  22.831  0.00  0.00    +0.000 A 
ATOM     22  C   UNL     1      -0.703  11.413  22.375  0.00  0.00    +0.000 A 
ATOM     23 CL   UNL     1      -1.431  12.579  23.408  0.00  0.00    +0.000 Cl
ATOM     24  C   UNL     1      -0.311  11.779  21.091  0.00  0.00    +0.000 A 
ATOM     25  C   UNL     1       0.318  10.843  20.267  0.00  0.00    +0.000 A 
ENDBRANCH  18  19
ENDBRANCH   6  17
TORSDOF 8
ENDMDL
MODEL 3
REMARK VINA RESULT:      -6.8      3.082      4.311
REMARK  Name = 
REMARK  9 active torsions:
REMARK  status: ('A' for Active; 'I' for Inactive)
REMARK    1  A    between atoms: C_1  and  O_2
REMARK    2  A    between atoms: O_2  and  C_3
REMARK    3  A    between atoms: C_5  and  N_6
REMARK    4  A    between atoms: N_6  and  C_7
REMARK    5  A    between atoms: C_7  and  C_8
REMARK    6  A    between atoms: C_8  and  C_9
REMARK    7  A    between atoms: C_8  and  C_11
REMARK    8  A    between atoms: C_15  and  N_16
REMARK    9  A    between atoms: N_17  and  C_18
REMARK                            x       y       z     vdW  Elec       q    Type
REMARK                         _______ _______ _______ _____ _____    ______ ____
ROOT
ATOM      1  C   UNL     1       4.610   4.487  17.244  0.00  0.00    +0.000 A 
ATOM      2  C   UNL     1       5.228   3.708  16.234  0.00  0.00    +0.000 A 
ATOM      3  C   UNL     1       5.813   4.282  15.089  0.00  0.00    +0.000 A 
ATOM      4  C   UNL     1       5.743   5.667  14.969  0.00  0.00    +0.000 A 
ATOM      5  C   UNL     1       5.133   6.446  15.949  0.00  0.00    +0.000 A 
ATOM      6  C   UNL     1       4.523   5.881  17.079  0.00  0.00    +0.000 A 
ENDROOT
BRANCH   1   8
ATOM      7  C   UNL     1       3.463   2.534  18.023  0.00  0.00    +0.000 C 
ATOM      8  O   UNL     1       4.161   3.740  18.309  0.00  0.00    +0.000 OA
ENDBRANCH   1   8
BRANCH   3   9
ATOM      9  N   UNL     1       6.341   3.448  14.084  0.00  0.00    +0.000 N 
ATOM     10  H   UNL     1       7.333   3.281  14.272  0.00  0.00    +0.000 HD
BRANCH   9  11
ATOM     11  C   UNL     1       6.011   3.736  12.672  0.00  0.00    +0.000 C 
BRANCH  11  12
ATOM     12  C   UNL     1       5.099   2.678  12.018  0.00  0.00    +0.000 C 
BRANCH  12  13
ATOM     13  C   UNL     1       5.902   1.656  11.336  0.00  0.00    +0.000 C 
ATOM     14  N   UNL     1       6.554   0.839  10.831  0.00  0.00    +0.000 NA
ENDBRANCH  12  13
BRANCH  12  15
ATOM     15  C   UNL     1       4.158   3.335  11.089  0.00  0.00    +0.000 C 
ATOM     16  N   UNL     1       3.403   3.836  10.370  0.00  0.00    +0.000 NA
ENDBRANCH  12  15
ENDBRANCH  11  12
ENDBRANCH   9  11
ENDBRANCH   3   9
BRANCH   6  17
ATOM     17  N   UNL     1       3.923   6.749  18.020  0.00  0.00    +0.000 NA
ATOM     18  N   UNL     1       2.675   6.711  17.966  0.00  0.00    +0.000 NA
BRANCH  18  19
ATOM     19  C   UNL     1       2.076   7.726  18.734  0.00  0.00    +0.000 A 
ATOM     20  C   UNL     1       1.899   7.500  20.106  0.00  0.00    +0.000 A 
ATOM     21  C   UNL     1       1.333   8.479  20.926  0.00  0.00    +0.000 A 
ATOM     22  C   UNL     1       0.944   9.698  20.376  0.00  0.00    +0.000 A 
ATOM     23 CL   UNL     1       0.291  10.925  21.387  0.00  0.00    +0.000 Cl
ATOM     24  C   UNL     1       1.089   9.933  19.012  0.00  0.00    +0.000 A 
ATOM     25  C   UNL     1       1.657   8.952  18.197  0.00  0.00    +0.000 A 
ENDBRANCH  18  19
ENDBRANCH   6  17
TORSDOF 8
ENDMDL
MODEL 4
REMARK VINA RESULT:      -6.7      4.874      7.006
REMARK  Name = 
REMARK  9 active torsions:
REMARK  status: ('A' for Active; 'I' for Inactive)
REMARK    1  A    between atoms: C_1  and  O_2
REMARK    2  A    between atoms: O_2  and  C_3
REMARK    3  A    between atoms: C_5  and  N_6
REMARK    4  A    between atoms: N_6  and  C_7
REMARK    5  A    between atoms: C_7  and  C_8
REMARK    6  A    between atoms: C_8  and  C_9
REMARK    7  A    between atoms: C_8  and  C_11
REMARK    8  A    between atoms: C_15  and  N_16
REMARK    9  A    between atoms: N_17  and  C_18
REMARK                            x       y       z     vdW  Elec       q    Type
REMARK                         _______ _______ _______ _____ _____    ______ ____
ROOT
ATOM      1  C   UNL     1       5.294   6.875  17.352  0.00  0.00    +0.000 A 
ATOM      2  C   UNL     1       4.778   5.556  17.290  0.00  0.00    +0.000 A 
ATOM      3  C   UNL     1       5.610   4.420  17.258  0.00  0.00    +0.000 A 
ATOM      4  C   UNL     1       6.984   4.640  17.269  0.00  0.00    +0.000 A 
ATOM      5  C   UNL     1       7.507   5.930  17.322  0.00  0.00    +0.000 A 
ATOM      6  C   UNL     1       6.688   7.068  17.325  0.00  0.00    +0.000 A 
ENDROOT
BRANCH   1   8
ATOM      7  C   UNL     1       3.044   7.444  17.942  0.00  0.00    +0.000 C 
ATOM      8  O   UNL     1       4.316   7.838  17.442  0.00  0.00    +0.000 OA
ENDBRANCH   1   8
BRANCH   3   9
ATOM      9  N   UNL     1       5.036   3.141  17.117  0.00  0.00    +0.000 N 
ATOM     10  H   UNL     1       5.459   2.668  16.314  0.00  0.00    +0.000 HD
BRANCH   9  11
ATOM     11  C   UNL     1       3.568   3.002  17.224  0.00  0.00    +0.000 C 
BRANCH  11  12
ATOM     12  C   UNL     1       3.116   1.995  18.301  0.00  0.00    +0.000 C 
BRANCH  12  13
ATOM     13  C   UNL     1       1.738   2.274  18.722  0.00  0.00    +0.000 C 
ATOM     14  N   UNL     1       0.662   2.506  19.091  0.00  0.00    +0.000 NA
ENDBRANCH  12  13
BRANCH  12  15
ATOM     15  C   UNL     1       4.049   2.035  19.445  0.00  0.00    +0.000 C 
ATOM     16  N   UNL     1       4.798   2.071  20.325  0.00  0.00    +0.000 NA
ENDBRANCH  12  15
ENDBRANCH  11  12
ENDBRANCH   9  11
ENDBRANCH   3   9
BRANCH   6  17
ATOM     17  N   UNL     1       7.306   8.338  17.376  0.00  0.00    +0.000 NA
ATOM     18  N   UNL     1       8.202   8.390  18.247  0.00  0.00    +0.000 NA
BRANCH  18  19
ATOM     19  C   UNL     1       8.666   9.701  18.459  0.00  0.00    +0.000 A 
ATOM     20  C   UNL     1       8.241  10.703  17.578  0.00  0.00    +0.000 A 
ATOM     21  C   UNL     1       8.647  12.029  17.750  0.00  0.00    +0.000 A 
ATOM     22  C   UNL     1       9.481  12.360  18.816  0.00  0.00    +0.000 A 
ATOM     23 CL   UNL     1       9.945  13.997  19.063  0.00  0.00    +0.000 Cl
ATOM     24  C   UNL     1       9.933  11.375  19.689  0.00  0.00    +0.000 A 
ATOM     25  C   UNL     1       9.522  10.053  19.513  0.00  0.00    +0.000 A 
ENDBRANCH  18  19
ENDBRANCH   6  17
TORSDOF 8
ENDMDL
MODEL 5
REMARK VINA RESULT:      -6.7      5.281      7.343
REMARK  Name = 
REMARK  9 active torsions:
REMARK  status: ('A' for Active; 'I' for Inactive)
REMARK    1  A    between atoms: C_1  and  O_2
REMARK    2  A    between atoms: O_2  and  C_3
REMARK    3  A    between atoms: C_5  and  N_6
REMARK    4  A    between atoms: N_6  and  C_7
REMARK    5  A    between atoms: C_7  and  C_8
REMARK    6  A    between atoms: C_8  and  C_9
REMARK    7  A    between atoms: C_8  and  C_11
REMARK    8  A    between atoms: C_15  and  N_16
REMARK    9  A    between atoms: N_17  and  C_18
REMARK                            x       y       z     vdW  Elec       q    Type
REMARK                         _______ _______ _______ _____ _____    ______ ____
ROOT
ATOM      1  C   UNL     1       6.927   5.579  16.119  0.00  0.00    +0.000 A 
ATOM      2  C   UNL     1       6.153   4.395  16.219  0.00  0.00    +0.000 A 
ATOM      3  C   UNL     1       5.295   4.143  17.307  0.00  0.00    +0.000 A 
ATOM      4  C   UNL     1       5.247   5.105  18.312  0.00  0.00    +0.000 A 
ATOM      5  C   UNL     1       6.006   6.270  18.232  0.00  0.00    +0.000 A 
ATOM      6  C   UNL     1       6.885   6.517  17.167  0.00  0.00    +0.000 A 
ENDROOT
BRANCH   1   8
ATOM      7  C   UNL     1       7.179   4.914  13.832  0.00  0.00    +0.000 C 
ATOM      8  O   UNL     1       7.646   5.661  14.949  0.00  0.00    +0.000 OA
ENDBRANCH   1   8
BRANCH   3   9
ATOM      9  N   UNL     1       4.613   2.913  17.386  0.00  0.00    +0.000 N 
ATOM     10  H   UNL     1       4.848   2.344  16.568  0.00  0.00    +0.000 HD
BRANCH   9  11
ATOM     11  C   UNL     1       3.183   2.913  17.759  0.00  0.00    +0.000 C 
BRANCH  11  12
ATOM     12  C   UNL     1       2.883   2.162  19.072  0.00  0.00    +0.000 C 
BRANCH  12  13
ATOM     13  C   UNL     1       1.804   2.828  19.812  0.00  0.00    +0.000 C 
ATOM     14  N   UNL     1       0.979   3.368  20.423  0.00  0.00    +0.000 NA
ENDBRANCH  12  13
BRANCH  12  15
ATOM     15  C   UNL     1       4.114   2.064  19.883  0.00  0.00    +0.000 C 
ATOM     16  N   UNL     1       5.068   1.967  20.528  0.00  0.00    +0.000 NA
ENDBRANCH  12  15
ENDBRANCH  11  12
ENDBRANCH   9  11
ENDBRANCH   3   9
BRANCH   6  17
ATOM     17  N   UNL     1       7.619   7.724  17.171  0.00  0.00    +0.000 NA
ATOM     18  N   UNL     1       7.949   8.070  18.327  0.00  0.00    +0.000 NA
BRANCH  18  19
ATOM     19  C   UNL     1       8.479   9.372  18.364  0.00  0.00    +0.000 A 
ATOM     20  C   UNL     1       7.925  10.336  17.512  0.00  0.00    +0.000 A 
ATOM     21  C   UNL     1       8.392  11.654  17.520  0.00  0.00    +0.000 A 
ATOM     22  C   UNL     1       9.417  12.015  18.391  0.00  0.00    +0.000 A 
ATOM     23 CL   UNL     1       9.964  13.644  18.442  0.00  0.00    +0.000 Cl
ATOM     24  C   UNL     1       9.997  11.066  19.229  0.00  0.00    +0.000 A 
ATOM     25  C   UNL     1       9.525   9.753  19.217  0.00  0.00    +0.000 A 
ENDBRANCH  18  19
ENDBRANCH   6  17
TORSDOF 8
ENDMDL
MODEL 6
REMARK VINA RESULT:      -6.7      1.112      1.552
REMARK  Name = 
REMARK  9 active torsions:
REMARK  status: ('A' for Active; 'I' for Inactive)
REMARK    1  A    between atoms: C_1  and  O_2
REMARK    2  A    between atoms: O_2  and  C_3
REMARK    3  A    between atoms: C_5  and  N_6
REMARK    4  A    between atoms: N_6  and  C_7
REMARK    5  A    between atoms: C_7  and  C_8
REMARK    6  A    between atoms: C_8  and  C_9
REMARK    7  A    between atoms: C_8  and  C_11
REMARK    8  A    between atoms: C_15  and  N_16
REMARK    9  A    between atoms: N_17  and  C_18
REMARK                            x       y       z     vdW  Elec       q    Type
REMARK                         _______ _______ _______ _____ _____    ______ ____
ROOT
ATOM      1  C   UNL     1       2.545   5.664  19.874  0.00  0.00    +0.000 A 
ATOM      2  C   UNL     1       3.480   4.740  19.342  0.00  0.00    +0.000 A 
ATOM      3  C   UNL     1       4.268   5.030  18.212  0.00  0.00    +0.000 A 
ATOM      4  C   UNL     1       4.081   6.271  17.610  0.00  0.00    +0.000 A 
ATOM      5  C   UNL     1       3.163   7.187  18.116  0.00  0.00    +0.000 A 
ATOM      6  C   UNL     1       2.352   6.897  19.223  0.00  0.00    +0.000 A 
ENDROOT
BRANCH   1   8
ATOM      7  C   UNL     1       1.790   3.808  21.186  0.00  0.00    +0.000 C 
ATOM      8  O   UNL     1       1.926   5.215  21.017  0.00  0.00    +0.000 OA
ENDBRANCH   1   8
BRANCH   3   9
ATOM      9  N   UNL     1       5.121   4.040  17.686  0.00  0.00    +0.000 N 
ATOM     10  H   UNL     1       6.057   4.155  18.083  0.00  0.00    +0.000 HD
BRANCH   9  11
ATOM     11  C   UNL     1       5.086   3.767  16.233  0.00  0.00    +0.000 C 
BRANCH  11  12
ATOM     12  C   UNL     1       6.445   3.965  15.531  0.00  0.00    +0.000 C 
BRANCH  12  13
ATOM     13  C   UNL     1       7.025   5.266  15.885  0.00  0.00    +0.000 C 
ATOM     14  N   UNL     1       7.505   6.293  16.132  0.00  0.00    +0.000 NA
ENDBRANCH  12  13
BRANCH  12  15
ATOM     15  C   UNL     1       6.276   3.829  14.070  0.00  0.00    +0.000 C 
ATOM     16  N   UNL     1       6.168   3.717  12.924  0.00  0.00    +0.000 NA
ENDBRANCH  12  15
ENDBRANCH  11  12
ENDBRANCH   9  11
ENDBRANCH   3   9
BRANCH   6  17
ATOM     17  N   UNL     1       1.443   7.885  19.665  0.00  0.00    +0.000 NA
ATOM     18  N   UNL     1       1.871   8.504  20.664  0.00  0.00    +0.000 NA
BRANCH  18  19
ATOM     19  C   UNL     1       0.889   9.328  21.243  0.00  0.00    +0.000 A 
ATOM     20  C   UNL     1       0.558   9.116  22.588  0.00  0.00    +0.000 A 
ATOM     21  C   UNL     1      -0.392   9.918  23.227  0.00  0.00    +0.000 A 
ATOM     22  C   UNL     1      -1.013  10.945  22.520  0.00  0.00    +0.000 A 
ATOM     23 CL   UNL     1      -2.147  11.966  23.313  0.00  0.00    +0.000 Cl
ATOM     24  C   UNL     1      -0.716  11.156  21.177  0.00  0.00    +0.000 A 
ATOM     25  C   UNL     1       0.235  10.353  20.545  0.00  0.00    +0.000 A 
ENDBRANCH  18  19
ENDBRANCH   6  17
TORSDOF 8
ENDMDL
MODEL 7
REMARK VINA RESULT:      -6.7      1.519      2.294
REMARK  Name = 
REMARK  9 active torsions:
REMARK  status: ('A' for Active; 'I' for Inactive)
REMARK    1  A    between atoms: C_1  and  O_2
REMARK    2  A    between atoms: O_2  and  C_3
REMARK    3  A    between atoms: C_5  and  N_6
REMARK    4  A    between atoms: N_6  and  C_7
REMARK    5  A    between atoms: C_7  and  C_8
REMARK    6  A    between atoms: C_8  and  C_9
REMARK    7  A    between atoms: C_8  and  C_11
REMARK    8  A    between atoms: C_15  and  N_16
REMARK    9  A    between atoms: N_17  and  C_18
REMARK                            x       y       z     vdW  Elec       q    Type
REMARK                         _______ _______ _______ _____ _____    ______ ____
ROOT
ATOM      1  C   UNL     1       3.155   4.297  18.674  0.00  0.00    +0.000 A 
ATOM      2  C   UNL     1       4.034   3.597  17.808  0.00  0.00    +0.000 A 
ATOM      3  C   UNL     1       4.879   4.258  16.896  0.00  0.00    +0.000 A 
ATOM      4  C   UNL     1       4.806   5.647  16.856  0.00  0.00    +0.000 A 
ATOM      5  C   UNL     1       3.944   6.348  17.694  0.00  0.00    +0.000 A 
ATOM      6  C   UNL     1       3.077   5.699  18.586  0.00  0.00    +0.000 A 
ENDROOT
BRANCH   1   8
ATOM      7  C   UNL     1       1.153   3.073  19.157  0.00  0.00    +0.000 C 
ATOM      8  O   UNL     1       2.467   3.472  19.532  0.00  0.00    +0.000 OA
ENDBRANCH   1   8
BRANCH   3   9
ATOM      9  N   UNL     1       5.670   3.503  16.008  0.00  0.00    +0.000 N 
ATOM     10  H   UNL     1       5.829   2.573  16.405  0.00  0.00    +0.000 HD
BRANCH   9  11
ATOM     11  C   UNL     1       6.860   4.135  15.400  0.00  0.00    +0.000 C 
BRANCH  11  12
ATOM     12  C   UNL     1       6.594   4.757  14.014  0.00  0.00    +0.000 C 
BRANCH  12  13
ATOM     13  C   UNL     1       6.106   3.739  13.076  0.00  0.00    +0.000 C 
ATOM     14  N   UNL     1       5.753   2.941  12.311  0.00  0.00    +0.000 NA
ENDBRANCH  12  13
BRANCH  12  15
ATOM     15  C   UNL     1       7.822   5.408  13.514  0.00  0.00    +0.000 C 
ATOM     16  N   UNL     1       8.784   5.932  13.144  0.00  0.00    +0.000 NA
ENDBRANCH  12  15
ENDBRANCH  11  12
ENDBRANCH   9  11
ENDBRANCH   3   9
BRANCH   6  17
ATOM     17  N   UNL     1       2.233   6.492  19.396  0.00  0.00    +0.000 NA
ATOM     18  N   UNL     1       2.160   7.671  18.987  0.00  0.00    +0.000 NA
BRANCH  18  19
ATOM     19  C   UNL     1       1.509   8.516  19.903  0.00  0.00    +0.000 A 
ATOM     20  C   UNL     1       0.928   9.695  19.418  0.00  0.00    +0.000 A 
ATOM     21  C   UNL     1       0.246  10.563  20.274  0.00  0.00    +0.000 A 
ATOM     22  C   UNL     1       0.136  10.250  21.627  0.00  0.00    +0.000 A 
ATOM     23 CL   UNL     1      -0.744  11.289  22.678  0.00  0.00    +0.000 Cl
ATOM     24  C   UNL     1       0.725   9.095  22.133  0.00  0.00    +0.000 A 
ATOM     25  C   UNL     1       1.404   8.231  21.272  0.00  0.00    +0.000 A 
ENDBRANCH  18  19
ENDBRANCH   6  17
TORSDOF 8
ENDMDL
MODEL 8
REMARK VINA RESULT:      -6.6      4.842      7.039
REMARK  Name = 
REMARK  9 active torsions:
REMARK  status: ('A' for Active; 'I' for Inactive)
REMARK    1  A    between atoms: C_1  and  O_2
REMARK    2  A    between atoms: O_2  and  C_3
REMARK    3  A    between atoms: C_5  and  N_6
REMARK    4  A    between atoms: N_6  and  C_7
REMARK    5  A    between atoms: C_7  and  C_8
REMARK    6  A    between atoms: C_8  and  C_9
REMARK    7  A    between atoms: C_8  and  C_11
REMARK    8  A    between atoms: C_15  and  N_16
REMARK    9  A    between atoms: N_17  and  C_18
REMARK                            x       y       z     vdW  Elec       q    Type
REMARK                         _______ _______ _______ _____ _____    ______ ____
ROOT
ATOM      1  C   UNL     1       5.186   6.884  17.444  0.00  0.00    +0.000 A 
ATOM      2  C   UNL     1       4.682   5.559  17.422  0.00  0.00    +0.000 A 
ATOM      3  C   UNL     1       5.524   4.431  17.384  0.00  0.00    +0.000 A 
ATOM      4  C   UNL     1       6.895   4.665  17.346  0.00  0.00    +0.000 A 
ATOM      5  C   UNL     1       7.407   5.960  17.360  0.00  0.00    +0.000 A 
ATOM      6  C   UNL     1       6.576   7.091  17.369  0.00  0.00    +0.000 A 
ENDROOT
BRANCH   1   8
ATOM      7  C   UNL     1       2.910   7.415  17.968  0.00  0.00    +0.000 C 
ATOM      8  O   UNL     1       4.202   7.839  17.549  0.00  0.00    +0.000 OA
ENDBRANCH   1   8
BRANCH   3   9
ATOM      9  N   UNL     1       4.959   3.144  17.284  0.00  0.00    +0.000 N 
ATOM     10  H   UNL     1       5.419   2.632  16.527  0.00  0.00    +0.000 HD
BRANCH   9  11
ATOM     11  C   UNL     1       3.488   3.005  17.330  0.00  0.00    +0.000 C 
BRANCH  11  12
ATOM     12  C   UNL     1       2.966   2.348  18.624  0.00  0.00    +0.000 C 
BRANCH  12  13
ATOM     13  C   UNL     1       1.888   3.151  19.212  0.00  0.00    +0.000 C 
ATOM     14  N   UNL     1       1.061   3.802  19.702  0.00  0.00    +0.000 NA
ENDBRANCH  12  13
BRANCH  12  15
ATOM     15  C   UNL     1       4.081   2.162  19.574  0.00  0.00    +0.000 C 
ATOM     16  N   UNL     1       4.964   2.039  20.311  0.00  0.00    +0.000 NA
ENDBRANCH  12  15
ENDBRANCH  11  12
ENDBRANCH   9  11
ENDBRANCH   3   9
BRANCH   6  17
ATOM     17  N   UNL     1       7.183   8.367  17.378  0.00  0.00    +0.000 NA
ATOM     18  N   UNL     1       8.140   8.427  18.181  0.00  0.00    +0.000 NA
BRANCH  18  19
ATOM     19  C   UNL     1       8.604   9.743  18.362  0.00  0.00    +0.000 A 
ATOM     20  C   UNL     1       9.467   9.997  19.436  0.00  0.00    +0.000 A 
ATOM     21  C   UNL     1       9.982  11.278  19.654  0.00  0.00    +0.000 A 
ATOM     22  C   UNL     1       9.638  12.314  18.789  0.00  0.00    +0.000 A 
ATOM     23 CL   UNL     1      10.305  13.881  19.022  0.00  0.00    +0.000 Cl
ATOM     24  C   UNL     1       8.764  12.087  17.730  0.00  0.00    +0.000 A 
ATOM     25  C   UNL     1       8.254  10.805  17.516  0.00  0.00    +0.000 A 
ENDBRANCH  18  19
ENDBRANCH   6  17
TORSDOF 8
ENDMDL
MODEL 9
REMARK VINA RESULT:      -6.6      1.184      1.238
REMARK  Name = 
REMARK  9 active torsions:
REMARK  status: ('A' for Active; 'I' for Inactive)
REMARK    1  A    between atoms: C_1  and  O_2
REMARK    2  A    between atoms: O_2  and  C_3
REMARK    3  A    between atoms: C_5  and  N_6
REMARK    4  A    between atoms: N_6  and  C_7
REMARK    5  A    between atoms: C_7  and  C_8
REMARK    6  A    between atoms: C_8  and  C_9
REMARK    7  A    between atoms: C_8  and  C_11
REMARK    8  A    between atoms: C_15  and  N_16
REMARK    9  A    between atoms: N_17  and  C_18
REMARK                            x       y       z     vdW  Elec       q    Type
REMARK                         _______ _______ _______ _____ _____    ______ ____
ROOT
ATOM      1  C   UNL     1       2.483   5.644  20.060  0.00  0.00    +0.000 A 
ATOM      2  C   UNL     1       3.210   4.889  19.106  0.00  0.00    +0.000 A 
ATOM      3  C   UNL     1       3.730   5.460  17.928  0.00  0.00    +0.000 A 
ATOM      4  C   UNL     1       3.483   6.814  17.718  0.00  0.00    +0.000 A 
ATOM      5  C   UNL     1       2.765   7.567  18.642  0.00  0.00    +0.000 A 
ATOM      6  C   UNL     1       2.218   7.002  19.804  0.00  0.00    +0.000 A 
ENDROOT
BRANCH   1   8
ATOM      7  C   UNL     1       1.598   3.608  20.960  0.00  0.00    +0.000 C 
ATOM      8  O   UNL     1       2.122   4.915  21.169  0.00  0.00    +0.000 OA
ENDBRANCH   1   8
BRANCH   3   9
ATOM      9  N   UNL     1       4.375   4.639  16.982  0.00  0.00    +0.000 N 
ATOM     10  H   UNL     1       3.691   4.000  16.568  0.00  0.00    +0.000 HD
BRANCH   9  11
ATOM     11  C   UNL     1       5.672   4.025  17.337  0.00  0.00    +0.000 C 
BRANCH  11  12
ATOM     12  C   UNL     1       6.851   4.518  16.473  0.00  0.00    +0.000 C 
BRANCH  12  13
ATOM     13  C   UNL     1       7.106   5.943  16.713  0.00  0.00    +0.000 C 
ATOM     14  N   UNL     1       7.269   7.078  16.895  0.00  0.00    +0.000 NA
ENDBRANCH  12  13
BRANCH  12  15
ATOM     15  C   UNL     1       6.569   4.252  15.047  0.00  0.00    +0.000 C 
ATOM     16  N   UNL     1       6.349   4.069  13.927  0.00  0.00    +0.000 NA
ENDBRANCH  12  15
ENDBRANCH  11  12
ENDBRANCH   9  11
ENDBRANCH   3   9
BRANCH   6  17
ATOM     17  N   UNL     1       1.499   7.842  20.684  0.00  0.00    +0.000 NA
ATOM     18  N   UNL     1       0.827   8.700  20.071  0.00  0.00    +0.000 NA
BRANCH  18  19
ATOM     19  C   UNL     1       0.291   9.675  20.931  0.00  0.00    +0.000 A 
ATOM     20  C   UNL     1       0.261  11.004  20.488  0.00  0.00    +0.000 A 
ATOM     21  C   UNL     1      -0.282  12.014  21.287  0.00  0.00    +0.000 A 
ATOM     22  C   UNL     1      -0.806  11.695  22.538  0.00  0.00    +0.000 A 
ATOM     23 CL   UNL     1      -1.519  12.924  23.506  0.00  0.00    +0.000 Cl
ATOM     24  C   UNL     1      -0.764  10.385  23.006  0.00  0.00    +0.000 A 
ATOM     25  C   UNL     1      -0.222   9.380  22.202  0.00  0.00    +0.000 A 
ENDBRANCH  18  19
ENDBRANCH   6  17
TORSDOF 8
ENDMDL
