MODEL 1
REMARK VINA RESULT:      -9.0      0.000      0.000
REMARK  Name = 
REMARK  6 active torsions:
REMARK  status: ('A' for Active; 'I' for Inactive)
REMARK    1  A    between atoms: C_1  and  C_2
REMARK    2  A    between atoms: C_5  and  C_6
REMARK    3  A    between atoms: C_6  and  S_7
REMARK    4  A    between atoms: S_7  and  C_8
REMARK    5  A    between atoms: C_10  and  C_11
REMARK    6  A    between atoms: C_11  and  N_12
REMARK                            x       y       z     vdW  Elec       q    Type
REMARK                         _______ _______ _______ _____ _____    ______ ____
ROOT
ATOM      1  C   UNL     1       7.546   7.784  17.941  0.00  0.00    +0.000 A 
ATOM      2  N   UNL     1       6.459   7.364  17.377  0.00  0.00    +0.000 NA
ATOM      3  C   UNL     1       6.067   6.042  17.636  0.00  0.00    +0.000 A 
ATOM      4  C   UNL     1       6.727   5.264  18.516  0.00  0.00    +0.000 A 
ATOM      5  C   UNL     1       7.924   5.792  19.190  0.00  0.00    +0.000 A 
ATOM      6  O   UNL     1       8.533   5.137  20.028  0.00  0.00    +0.000 OA
ATOM      7  N   UNL     1       8.286   7.044  18.813  0.00  0.00    +0.000 N 
ATOM      8  H   UNL     1       9.114   7.445  19.231  0.00  0.00    +0.000 HD
ENDROOT
BRANCH   1   9
ATOM      9  S   UNL     1       8.313   9.329  17.660  0.00  0.00    +0.000 S 
BRANCH   9  10
ATOM     10  C   UNL     1       9.050   9.758  19.257  0.00  0.00    +0.000 C 
BRANCH  10  15
ATOM     11  C   UNL     1      12.328  14.634  18.994  0.00  0.00    +0.000 C 
ATOM     12  C   UNL     1      11.504  13.378  19.053  0.00  0.00    +0.000 A 
ATOM     13  C   UNL     1      11.121  12.702  17.890  0.00  0.00    +0.000 A 
ATOM     14  C   UNL     1      10.349  11.530  17.959  0.00  0.00    +0.000 A 
ATOM     15  C   UNL     1       9.926  11.006  19.192  0.00  0.00    +0.000 A 
ATOM     16  C   UNL     1      10.323  11.686  20.356  0.00  0.00    +0.000 A 
ATOM     17  C   UNL     1      11.097  12.856  20.286  0.00  0.00    +0.000 A 
ENDBRANCH  10  15
ENDBRANCH   9  10
ENDBRANCH   1   9
BRANCH   3  18
ATOM     18  C   UNL     1       4.790   5.479  16.924  0.00  0.00    +0.000 C 
BRANCH  18  19
ATOM     19  N   UNL     1       3.978   4.507  17.726  0.00  0.00    +0.000 N 
ATOM     20  C   UNL     1       3.711   3.245  17.031  0.00  0.00    +0.000 C 
ATOM     21  C   UNL     1       2.835   2.204  17.691  0.00  0.00    +0.000 C 
ATOM     22  C   UNL     1       2.014   2.620  18.878  0.00  0.00    +0.000 C 
ATOM     23  C   UNL     1       2.126   4.054  19.275  0.00  0.00    +0.000 A 
ATOM     24  C   UNL     1       1.261   4.444  20.331  0.00  0.00    +0.000 A 
ATOM     25  C   UNL     1       1.256   5.740  20.805  0.00  0.00    +0.000 A 
ATOM     26  C   UNL     1       2.102   6.661  20.210  0.00  0.00    +0.000 A 
ATOM     27  C   UNL     1       2.975   6.269  19.165  0.00  0.00    +0.000 A 
ATOM     28  C   UNL     1       3.035   4.950  18.674  0.00  0.00    +0.000 A 
ENDBRANCH  18  19
ENDBRANCH   3  18
TORSDOF 5
ENDMDL
MODEL 2
REMARK VINA RESULT:      -9.0      0.514      2.249
REMARK  Name = 
REMARK  6 active torsions:
REMARK  status: ('A' for Active; 'I' for Inactive)
REMARK    1  A    between atoms: C_1  and  C_2
REMARK    2  A    between atoms: C_5  and  C_6
REMARK    3  A    between atoms: C_6  and  S_7
REMARK    4  A    between atoms: S_7  and  C_8
REMARK    5  A    between atoms: C_10  and  C_11
REMARK    6  A    between atoms: C_11  and  N_12
REMARK                            x       y       z     vdW  Elec       q    Type
REMARK                         _______ _______ _______ _____ _____    ______ ____
ROOT
ATOM      1  C   UNL     1       7.492   7.822  17.813  0.00  0.00    +0.000 A 
ATOM      2  N   UNL     1       6.354   7.473  17.304  0.00  0.00    +0.000 NA
ATOM      3  C   UNL     1       5.904   6.170  17.563  0.00  0.00    +0.000 A 
ATOM      4  C   UNL     1       6.568   5.341  18.393  0.00  0.00    +0.000 A 
ATOM      5  C   UNL     1       7.827   5.790  19.007  0.00  0.00    +0.000 A 
ATOM      6  O   UNL     1       8.444   5.088  19.800  0.00  0.00    +0.000 OA
ATOM      7  N   UNL     1       8.236   7.027  18.631  0.00  0.00    +0.000 N 
ATOM      8  H   UNL     1       9.108   7.375  19.008  0.00  0.00    +0.000 HD
ENDROOT
BRANCH   1   9
ATOM      9  S   UNL     1       8.327   9.329  17.513  0.00  0.00    +0.000 S 
BRANCH   9  10
ATOM     10  C   UNL     1       9.034   9.773  19.120  0.00  0.00    +0.000 C 
BRANCH  10  15
ATOM     11  C   UNL     1      12.333  14.638  18.928  0.00  0.00    +0.000 C 
ATOM     12  C   UNL     1      11.477  13.403  18.987  0.00  0.00    +0.000 A 
ATOM     13  C   UNL     1      11.190  12.773  20.202  0.00  0.00    +0.000 A 
ATOM     14  C   UNL     1      10.391  11.619  20.244  0.00  0.00    +0.000 A 
ATOM     15  C   UNL     1       9.864  11.052  19.071  0.00  0.00    +0.000 A 
ATOM     16  C   UNL     1      10.150  11.698  17.855  0.00  0.00    +0.000 A 
ATOM     17  C   UNL     1      10.948  12.853  17.815  0.00  0.00    +0.000 A 
ENDBRANCH  10  15
ENDBRANCH   9  10
ENDBRANCH   1   9
BRANCH   3  18
ATOM     18  C   UNL     1       4.561   5.691  16.915  0.00  0.00    +0.000 C 
BRANCH  18  19
ATOM     19  N   UNL     1       3.390   5.598  17.846  0.00  0.00    +0.000 N 
ATOM     20  C   UNL     1       3.249   6.754  18.736  0.00  0.00    +0.000 C 
ATOM     21  C   UNL     1       2.158   6.758  19.782  0.00  0.00    +0.000 C 
ATOM     22  C   UNL     1       1.467   5.460  20.089  0.00  0.00    +0.000 C 
ATOM     23  C   UNL     1       1.957   4.270  19.335  0.00  0.00    +0.000 A 
ATOM     24  C   UNL     1       1.361   3.040  19.719  0.00  0.00    +0.000 A 
ATOM     25  C   UNL     1       1.716   1.855  19.108  0.00  0.00    +0.000 A 
ATOM     26  C   UNL     1       2.687   1.889  18.121  0.00  0.00    +0.000 A 
ATOM     27  C   UNL     1       3.272   3.118  17.727  0.00  0.00    +0.000 A 
ATOM     28  C   UNL     1       2.915   4.353  18.303  0.00  0.00    +0.000 A 
ENDBRANCH  18  19
ENDBRANCH   3  18
TORSDOF 5
ENDMDL
MODEL 3
REMARK VINA RESULT:      -8.8      1.935      2.622
REMARK  Name = 
REMARK  6 active torsions:
REMARK  status: ('A' for Active; 'I' for Inactive)
REMARK    1  A    between atoms: C_1  and  C_2
REMARK    2  A    between atoms: C_5  and  C_6
REMARK    3  A    between atoms: C_6  and  S_7
REMARK    4  A    between atoms: S_7  and  C_8
REMARK    5  A    between atoms: C_10  and  C_11
REMARK    6  A    between atoms: C_11  and  N_12
REMARK                            x       y       z     vdW  Elec       q    Type
REMARK                         _______ _______ _______ _____ _____    ______ ____
ROOT
ATOM      1  C   UNL     1       7.001   6.038  17.362  0.00  0.00    +0.000 A 
ATOM      2  N   UNL     1       5.963   5.375  17.762  0.00  0.00    +0.000 NA
ATOM      3  C   UNL     1       5.243   4.660  16.794  0.00  0.00    +0.000 A 
ATOM      4  C   UNL     1       5.662   4.571  15.516  0.00  0.00    +0.000 A 
ATOM      5  C   UNL     1       6.881   5.285  15.106  0.00  0.00    +0.000 A 
ATOM      6  O   UNL     1       7.323   5.202  13.967  0.00  0.00    +0.000 OA
ATOM      7  N   UNL     1       7.464   6.026  16.081  0.00  0.00    +0.000 N 
ATOM      8  H   UNL     1       8.294   6.554  15.845  0.00  0.00    +0.000 HD
ENDROOT
BRANCH   1   9
ATOM      9  S   UNL     1       7.966   7.115  18.343  0.00  0.00    +0.000 S 
BRANCH   9  10
ATOM     10  C   UNL     1       7.881   8.703  17.478  0.00  0.00    +0.000 C 
BRANCH  10  15
ATOM     11  C   UNL     1      10.352  13.106  20.494  0.00  0.00    +0.000 C 
ATOM     12  C   UNL     1       9.733  11.982  19.710  0.00  0.00    +0.000 A 
ATOM     13  C   UNL     1       9.168  12.199  18.449  0.00  0.00    +0.000 A 
ATOM     14  C   UNL     1       8.591  11.142  17.726  0.00  0.00    +0.000 A 
ATOM     15  C   UNL     1       8.549   9.838  18.248  0.00  0.00    +0.000 A 
ATOM     16  C   UNL     1       9.128   9.627  19.512  0.00  0.00    +0.000 A 
ATOM     17  C   UNL     1       9.707  10.685  20.233  0.00  0.00    +0.000 A 
ENDBRANCH  10  15
ENDBRANCH   9  10
ENDBRANCH   1   9
BRANCH   3  18
ATOM     18  C   UNL     1       3.946   3.894  17.229  0.00  0.00    +0.000 C 
BRANCH  18  19
ATOM     19  N   UNL     1       3.493   4.139  18.638  0.00  0.00    +0.000 N 
ATOM     20  C   UNL     1       3.130   2.919  19.362  0.00  0.00    +0.000 C 
ATOM     21  C   UNL     1       2.579   3.024  20.766  0.00  0.00    +0.000 C 
ATOM     22  C   UNL     1       2.123   4.372  21.248  0.00  0.00    +0.000 C 
ATOM     23  C   UNL     1       2.236   5.486  20.263  0.00  0.00    +0.000 A 
ATOM     24  C   UNL     1       1.703   6.725  20.706  0.00  0.00    +0.000 A 
ATOM     25  C   UNL     1       1.738   7.844  19.902  0.00  0.00    +0.000 A 
ATOM     26  C   UNL     1       2.290   7.728  18.637  0.00  0.00    +0.000 A 
ATOM     27  C   UNL     1       2.836   6.496  18.198  0.00  0.00    +0.000 A 
ATOM     28  C   UNL     1       2.849   5.338  19.000  0.00  0.00    +0.000 A 
ENDBRANCH  18  19
ENDBRANCH   3  18
TORSDOF 5
ENDMDL
MODEL 4
REMARK VINA RESULT:      -8.3      1.891      3.022
REMARK  Name = 
REMARK  6 active torsions:
REMARK  status: ('A' for Active; 'I' for Inactive)
REMARK    1  A    between atoms: C_1  and  C_2
REMARK    2  A    between atoms: C_5  and  C_6
REMARK    3  A    between atoms: C_6  and  S_7
REMARK    4  A    between atoms: S_7  and  C_8
REMARK    5  A    between atoms: C_10  and  C_11
REMARK    6  A    between atoms: C_11  and  N_12
REMARK                            x       y       z     vdW  Elec       q    Type
REMARK                         _______ _______ _______ _____ _____    ______ ____
ROOT
ATOM      1  C   UNL     1       7.086   6.230  17.267  0.00  0.00    +0.000 A 
ATOM      2  N   UNL     1       5.999   5.600  17.578  0.00  0.00    +0.000 NA
ATOM      3  C   UNL     1       5.354   4.884  16.559  0.00  0.00    +0.000 A 
ATOM      4  C   UNL     1       5.888   4.762  15.327  0.00  0.00    +0.000 A 
ATOM      5  C   UNL     1       7.159   5.439  15.023  0.00  0.00    +0.000 A 
ATOM      6  O   UNL     1       7.704   5.324  13.931  0.00  0.00    +0.000 OA
ATOM      7  N   UNL     1       7.667   6.184  16.035  0.00  0.00    +0.000 N 
ATOM      8  H   UNL     1       8.528   6.687  15.870  0.00  0.00    +0.000 HD
ENDROOT
BRANCH   1   9
ATOM      9  S   UNL     1       7.983   7.301  18.317  0.00  0.00    +0.000 S 
BRANCH   9  10
ATOM     10  C   UNL     1       7.885   8.913  17.498  0.00  0.00    +0.000 C 
BRANCH  10  15
ATOM     11  C   UNL     1      10.611  13.170  20.505  0.00  0.00    +0.000 C 
ATOM     12  C   UNL     1       9.901  12.080  19.750  0.00  0.00    +0.000 A 
ATOM     13  C   UNL     1       9.802  10.783  20.264  0.00  0.00    +0.000 A 
ATOM     14  C   UNL     1       9.138   9.773  19.548  0.00  0.00    +0.000 A 
ATOM     15  C   UNL     1       8.565  10.026  18.290  0.00  0.00    +0.000 A 
ATOM     16  C   UNL     1       8.661  11.334  17.785  0.00  0.00    +0.000 A 
ATOM     17  C   UNL     1       9.323  12.344  18.503  0.00  0.00    +0.000 A 
ENDBRANCH  10  15
ENDBRANCH   9  10
ENDBRANCH   1   9
BRANCH   3  18
ATOM     18  C   UNL     1       4.003   4.159  16.882  0.00  0.00    +0.000 C 
BRANCH  18  19
ATOM     19  N   UNL     1       3.164   4.799  17.947  0.00  0.00    +0.000 N 
ATOM     20  C   UNL     1       3.179   6.264  17.911  0.00  0.00    +0.000 C 
ATOM     21  C   UNL     1       2.441   7.041  18.976  0.00  0.00    +0.000 C 
ATOM     22  C   UNL     1       1.992   6.305  20.206  0.00  0.00    +0.000 C 
ATOM     23  C   UNL     1       2.352   4.859  20.265  0.00  0.00    +0.000 A 
ATOM     24  C   UNL     1       2.009   4.213  21.482  0.00  0.00    +0.000 A 
ATOM     25  C   UNL     1       2.281   2.875  21.679  0.00  0.00    +0.000 A 
ATOM     26  C   UNL     1       2.918   2.177  20.666  0.00  0.00    +0.000 A 
ATOM     27  C   UNL     1       3.248   2.817  19.446  0.00  0.00    +0.000 A 
ATOM     28  C   UNL     1       2.960   4.173  19.192  0.00  0.00    +0.000 A 
ENDBRANCH  18  19
ENDBRANCH   3  18
TORSDOF 5
ENDMDL
MODEL 5
REMARK VINA RESULT:      -8.2      3.460      6.320
REMARK  Name = 
REMARK  6 active torsions:
REMARK  status: ('A' for Active; 'I' for Inactive)
REMARK    1  A    between atoms: C_1  and  C_2
REMARK    2  A    between atoms: C_5  and  C_6
REMARK    3  A    between atoms: C_6  and  S_7
REMARK    4  A    between atoms: S_7  and  C_8
REMARK    5  A    between atoms: C_10  and  C_11
REMARK    6  A    between atoms: C_11  and  N_12
REMARK                            x       y       z     vdW  Elec       q    Type
REMARK                         _______ _______ _______ _____ _____    ______ ____
ROOT
ATOM      1  C   UNL     1       3.231   4.556  18.109  0.00  0.00    +0.000 A 
ATOM      2  N   UNL     1       3.248   5.675  18.759  0.00  0.00    +0.000 NA
ATOM      3  C   UNL     1       2.361   5.807  19.838  0.00  0.00    +0.000 A 
ATOM      4  C   UNL     1       1.593   4.782  20.257  0.00  0.00    +0.000 A 
ATOM      5  C   UNL     1       1.643   3.501  19.535  0.00  0.00    +0.000 A 
ATOM      6  O   UNL     1       0.994   2.529  19.903  0.00  0.00    +0.000 OA
ATOM      7  N   UNL     1       2.456   3.489  18.450  0.00  0.00    +0.000 N 
ATOM      8  H   UNL     1       2.510   2.638  17.906  0.00  0.00    +0.000 HD
ENDROOT
BRANCH   1   9
ATOM      9  S   UNL     1       4.129   4.208  16.650  0.00  0.00    +0.000 S 
BRANCH   9  10
ATOM     10  C   UNL     1       5.833   3.982  17.219  0.00  0.00    +0.000 C 
BRANCH  10  15
ATOM     11  C   UNL     1       8.515   9.099  18.321  0.00  0.00    +0.000 C 
ATOM     12  C   UNL     1       7.836   7.791  18.022  0.00  0.00    +0.000 A 
ATOM     13  C   UNL     1       6.857   7.688  17.029  0.00  0.00    +0.000 A 
ATOM     14  C   UNL     1       6.228   6.461  16.760  0.00  0.00    +0.000 A 
ATOM     15  C   UNL     1       6.551   5.301  17.485  0.00  0.00    +0.000 A 
ATOM     16  C   UNL     1       7.544   5.411  18.475  0.00  0.00    +0.000 A 
ATOM     17  C   UNL     1       8.173   6.638  18.741  0.00  0.00    +0.000 A 
ENDBRANCH  10  15
ENDBRANCH   9  10
ENDBRANCH   1   9
BRANCH   3  18
ATOM     18  C   UNL     1       2.310   7.169  20.612  0.00  0.00    +0.000 C 
BRANCH  18  19
ATOM     19  N   UNL     1       1.372   8.196  20.052  0.00  0.00    +0.000 N 
ATOM     20  C   UNL     1       1.714   8.632  18.695  0.00  0.00    +0.000 C 
ATOM     21  C   UNL     1       0.900   9.722  18.038  0.00  0.00    +0.000 C 
ATOM     22  C   UNL     1      -0.017  10.540  18.903  0.00  0.00    +0.000 C 
ATOM     23  C   UNL     1      -0.009  10.205  20.356  0.00  0.00    +0.000 A 
ATOM     24  C   UNL     1      -0.803  11.060  21.165  0.00  0.00    +0.000 A 
ATOM     25  C   UNL     1      -0.893  10.869  22.528  0.00  0.00    +0.000 A 
ATOM     26  C   UNL     1      -0.170   9.833  23.096  0.00  0.00    +0.000 A 
ATOM     27  C   UNL     1       0.611   8.970  22.288  0.00  0.00    +0.000 A 
ATOM     28  C   UNL     1       0.704   9.110  20.889  0.00  0.00    +0.000 A 
ENDBRANCH  18  19
ENDBRANCH   3  18
TORSDOF 5
ENDMDL
MODEL 6
REMARK VINA RESULT:      -8.2      3.949      6.671
REMARK  Name = 
REMARK  6 active torsions:
REMARK  status: ('A' for Active; 'I' for Inactive)
REMARK    1  A    between atoms: C_1  and  C_2
REMARK    2  A    between atoms: C_5  and  C_6
REMARK    3  A    between atoms: C_6  and  S_7
REMARK    4  A    between atoms: S_7  and  C_8
REMARK    5  A    between atoms: C_10  and  C_11
REMARK    6  A    between atoms: C_11  and  N_12
REMARK                            x       y       z     vdW  Elec       q    Type
REMARK                         _______ _______ _______ _____ _____    ______ ____
ROOT
ATOM      1  C   UNL     1       3.298   3.540  19.299  0.00  0.00    +0.000 A 
ATOM      2  N   UNL     1       3.320   4.692  19.890  0.00  0.00    +0.000 NA
ATOM      3  C   UNL     1       2.094   5.220  20.321  0.00  0.00    +0.000 A 
ATOM      4  C   UNL     1       0.946   4.521  20.225  0.00  0.00    +0.000 A 
ATOM      5  C   UNL     1       0.963   3.186  19.605  0.00  0.00    +0.000 A 
ATOM      6  O   UNL     1      -0.047   2.497  19.533  0.00  0.00    +0.000 OA
ATOM      7  N   UNL     1       2.172   2.792  19.133  0.00  0.00    +0.000 N 
ATOM      8  H   UNL     1       2.234   1.890  18.679  0.00  0.00    +0.000 HD
ENDROOT
BRANCH   1   9
ATOM      9  S   UNL     1       4.664   2.749  18.548  0.00  0.00    +0.000 S 
BRANCH   9  10
ATOM     10  C   UNL     1       4.933   3.681  17.019  0.00  0.00    +0.000 C 
BRANCH  10  15
ATOM     11  C   UNL     1       8.124   8.539  17.915  0.00  0.00    +0.000 C 
ATOM     12  C   UNL     1       7.310   7.299  17.668  0.00  0.00    +0.000 A 
ATOM     13  C   UNL     1       6.105   7.347  16.960  0.00  0.00    +0.000 A 
ATOM     14  C   UNL     1       5.353   6.182  16.737  0.00  0.00    +0.000 A 
ATOM     15  C   UNL     1       5.777   4.934  17.226  0.00  0.00    +0.000 A 
ATOM     16  C   UNL     1       6.994   4.893  17.928  0.00  0.00    +0.000 A 
ATOM     17  C   UNL     1       7.746   6.059  18.148  0.00  0.00    +0.000 A 
ENDBRANCH  10  15
ENDBRANCH   9  10
ENDBRANCH   1   9
BRANCH   3  18
ATOM     18  C   UNL     1       2.074   6.639  20.985  0.00  0.00    +0.000 C 
BRANCH  18  19
ATOM     19  N   UNL     1       1.523   7.743  20.135  0.00  0.00    +0.000 N 
ATOM     20  C   UNL     1       2.223   7.913  18.859  0.00  0.00    +0.000 C 
ATOM     21  C   UNL     1       1.824   9.041  17.936  0.00  0.00    +0.000 C 
ATOM     22  C   UNL     1       0.956  10.135  18.490  0.00  0.00    +0.000 C 
ATOM     23  C   UNL     1       0.592  10.008  19.931  0.00  0.00    +0.000 A 
ATOM     24  C   UNL     1      -0.140  11.105  20.456  0.00  0.00    +0.000 A 
ATOM     25  C   UNL     1      -0.546  11.126  21.774  0.00  0.00    +0.000 A 
ATOM     26  C   UNL     1      -0.204  10.056  22.584  0.00  0.00    +0.000 A 
ATOM     27  C   UNL     1       0.514   8.953  22.058  0.00  0.00    +0.000 A 
ATOM     28  C   UNL     1       0.919   8.878  20.711  0.00  0.00    +0.000 A 
ENDBRANCH  18  19
ENDBRANCH   3  18
TORSDOF 5
ENDMDL
MODEL 7
REMARK VINA RESULT:      -8.1      4.142      7.028
REMARK  Name = 
REMARK  6 active torsions:
REMARK  status: ('A' for Active; 'I' for Inactive)
REMARK    1  A    between atoms: C_1  and  C_2
REMARK    2  A    between atoms: C_5  and  C_6
REMARK    3  A    between atoms: C_6  and  S_7
REMARK    4  A    between atoms: S_7  and  C_8
REMARK    5  A    between atoms: C_10  and  C_11
REMARK    6  A    between atoms: C_11  and  N_12
REMARK                            x       y       z     vdW  Elec       q    Type
REMARK                         _______ _______ _______ _____ _____    ______ ____
ROOT
ATOM      1  C   UNL     1       2.343   4.226  18.596  0.00  0.00    +0.000 A 
ATOM      2  N   UNL     1       2.525   5.453  18.967  0.00  0.00    +0.000 NA
ATOM      3  C   UNL     1       2.086   5.811  20.250  0.00  0.00    +0.000 A 
ATOM      4  C   UNL     1       1.588   4.902  21.111  0.00  0.00    +0.000 A 
ATOM      5  C   UNL     1       1.452   3.501  20.682  0.00  0.00    +0.000 A 
ATOM      6  O   UNL     1       1.044   2.631  21.442  0.00  0.00    +0.000 OA
ATOM      7  N   UNL     1       1.814   3.260  19.398  0.00  0.00    +0.000 N 
ATOM      8  H   UNL     1       1.719   2.316  19.046  0.00  0.00    +0.000 HD
ENDROOT
BRANCH   1   9
ATOM      9  S   UNL     1       2.668   3.580  17.005  0.00  0.00    +0.000 S 
BRANCH   9  10
ATOM     10  C   UNL     1       4.447   3.245  17.015  0.00  0.00    +0.000 C 
BRANCH  10  15
ATOM     11  C   UNL     1       7.778   8.059  17.573  0.00  0.00    +0.000 C 
ATOM     12  C   UNL     1       6.920   6.831  17.448  0.00  0.00    +0.000 A 
ATOM     13  C   UNL     1       7.090   5.734  18.298  0.00  0.00    +0.000 A 
ATOM     14  C   UNL     1       6.283   4.591  18.169  0.00  0.00    +0.000 A 
ATOM     15  C   UNL     1       5.290   4.506  17.178  0.00  0.00    +0.000 A 
ATOM     16  C   UNL     1       5.120   5.618  16.334  0.00  0.00    +0.000 A 
ATOM     17  C   UNL     1       5.926   6.760  16.465  0.00  0.00    +0.000 A 
ENDBRANCH  10  15
ENDBRANCH   9  10
ENDBRANCH   1   9
BRANCH   3  18
ATOM     18  C   UNL     1       2.235   7.301  20.711  0.00  0.00    +0.000 C 
BRANCH  18  19
ATOM     19  N   UNL     1       1.294   8.275  20.066  0.00  0.00    +0.000 N 
ATOM     20  C   UNL     1       1.660   8.630  18.693  0.00  0.00    +0.000 C 
ATOM     21  C   UNL     1       0.845   9.663  17.950  0.00  0.00    +0.000 C 
ATOM     22  C   UNL     1      -0.104  10.518  18.741  0.00  0.00    +0.000 C 
ATOM     23  C   UNL     1      -0.125  10.275  20.212  0.00  0.00    +0.000 A 
ATOM     24  C   UNL     1      -0.950  11.166  20.948  0.00  0.00    +0.000 A 
ATOM     25  C   UNL     1      -1.068  11.060  22.318  0.00  0.00    +0.000 A 
ATOM     26  C   UNL     1      -0.343  10.074  22.966  0.00  0.00    +0.000 A 
ATOM     27  C   UNL     1       0.470   9.176  22.232  0.00  0.00    +0.000 A 
ATOM     28  C   UNL     1       0.593   9.229  20.829  0.00  0.00    +0.000 A 
ENDBRANCH  18  19
ENDBRANCH   3  18
TORSDOF 5
ENDMDL
MODEL 8
REMARK VINA RESULT:      -8.0      6.185      9.239
REMARK  Name = 
REMARK  6 active torsions:
REMARK  status: ('A' for Active; 'I' for Inactive)
REMARK    1  A    between atoms: C_1  and  C_2
REMARK    2  A    between atoms: C_5  and  C_6
REMARK    3  A    between atoms: C_6  and  S_7
REMARK    4  A    between atoms: S_7  and  C_8
REMARK    5  A    between atoms: C_10  and  C_11
REMARK    6  A    between atoms: C_11  and  N_12
REMARK                            x       y       z     vdW  Elec       q    Type
REMARK                         _______ _______ _______ _____ _____    ______ ____
ROOT
ATOM      1  C   UNL     1       1.351   8.575  20.618  0.00  0.00    +0.000 A 
ATOM      2  N   UNL     1       0.835   9.511  19.886  0.00  0.00    +0.000 NA
ATOM      3  C   UNL     1       0.065  10.486  20.536  0.00  0.00    +0.000 A 
ATOM      4  C   UNL     1      -0.056  10.521  21.878  0.00  0.00    +0.000 A 
ATOM      5  C   UNL     1       0.595   9.478  22.687  0.00  0.00    +0.000 A 
ATOM      6  O   UNL     1       0.548   9.491  23.911  0.00  0.00    +0.000 OA
ATOM      7  N   UNL     1       1.242   8.523  21.975  0.00  0.00    +0.000 N 
ATOM      8  H   UNL     1       1.688   7.771  22.483  0.00  0.00    +0.000 HD
ENDROOT
BRANCH   1   9
ATOM      9  S   UNL     1       2.220   7.178  20.028  0.00  0.00    +0.000 S 
BRANCH   9  10
ATOM     10  C   UNL     1       2.405   7.485  18.253  0.00  0.00    +0.000 C 
BRANCH  10  15
ATOM     11  C   UNL     1       6.109   3.680  15.726  0.00  0.00    +0.000 C 
ATOM     12  C   UNL     1       5.158   4.659  16.356  0.00  0.00    +0.000 A 
ATOM     13  C   UNL     1       5.349   6.040  16.237  0.00  0.00    +0.000 A 
ATOM     14  C   UNL     1       4.454   6.945  16.831  0.00  0.00    +0.000 A 
ATOM     15  C   UNL     1       3.347   6.497  17.573  0.00  0.00    +0.000 A 
ATOM     16  C   UNL     1       3.157   5.108  17.679  0.00  0.00    +0.000 A 
ATOM     17  C   UNL     1       4.052   4.204  17.083  0.00  0.00    +0.000 A 
ENDBRANCH  10  15
ENDBRANCH   9  10
ENDBRANCH   1   9
BRANCH   3  18
ATOM     18  C   UNL     1      -0.625  11.600  19.676  0.00  0.00    +0.000 C 
BRANCH  18  19
ATOM     19  N   UNL     1      -1.834  11.165  18.904  0.00  0.00    +0.000 N 
ATOM     20  C   UNL     1      -1.522  10.584  17.595  0.00  0.00    +0.000 C 
ATOM     21  C   UNL     1      -2.650  10.175  16.676  0.00  0.00    +0.000 C 
ATOM     22  C   UNL     1      -4.034  10.668  16.991  0.00  0.00    +0.000 C 
ATOM     23  C   UNL     1      -4.152  11.551  18.187  0.00  0.00    +0.000 A 
ATOM     24  C   UNL     1      -5.449  12.087  18.401  0.00  0.00    +0.000 A 
ATOM     25  C   UNL     1      -5.708  12.920  19.469  0.00  0.00    +0.000 A 
ATOM     26  C   UNL     1      -4.664  13.241  20.321  0.00  0.00    +0.000 A 
ATOM     27  C   UNL     1      -3.373  12.696  20.117  0.00  0.00    +0.000 A 
ATOM     28  C   UNL     1      -3.074  11.816  19.057  0.00  0.00    +0.000 A 
ENDBRANCH  18  19
ENDBRANCH   3  18
TORSDOF 5
ENDMDL
MODEL 9
REMARK VINA RESULT:      -7.9      5.133      7.992
REMARK  Name = 
REMARK  6 active torsions:
REMARK  status: ('A' for Active; 'I' for Inactive)
REMARK    1  A    between atoms: C_1  and  C_2
REMARK    2  A    between atoms: C_5  and  C_6
REMARK    3  A    between atoms: C_6  and  S_7
REMARK    4  A    between atoms: S_7  and  C_8
REMARK    5  A    between atoms: C_10  and  C_11
REMARK    6  A    between atoms: C_11  and  N_12
REMARK                            x       y       z     vdW  Elec       q    Type
REMARK                         _______ _______ _______ _____ _____    ______ ____
ROOT
ATOM      1  C   UNL     1       1.783   7.894  20.237  0.00  0.00    +0.000 A 
ATOM      2  N   UNL     1       2.276   6.709  20.062  0.00  0.00    +0.000 NA
ATOM      3  C   UNL     1       2.704   6.374  18.770  0.00  0.00    +0.000 A 
ATOM      4  C   UNL     1       2.708   7.273  17.766  0.00  0.00    +0.000 A 
ATOM      5  C   UNL     1       2.201   8.632  18.013  0.00  0.00    +0.000 A 
ATOM      6  O   UNL     1       2.222   9.494  17.143  0.00  0.00    +0.000 OA
ATOM      7  N   UNL     1       1.721   8.844  19.263  0.00  0.00    +0.000 N 
ATOM      8  H   UNL     1       1.340   9.756  19.478  0.00  0.00    +0.000 HD
ENDROOT
BRANCH   1   9
ATOM      9  S   UNL     1       1.053   8.491  21.709  0.00  0.00    +0.000 S 
BRANCH   9  10
ATOM     10  C   UNL     1      -0.408   9.399  21.145  0.00  0.00    +0.000 C 
BRANCH  10  15
ATOM     11  C   UNL     1      -0.577  15.006  22.911  0.00  0.00    +0.000 C 
ATOM     12  C   UNL     1      -0.516  13.572  22.464  0.00  0.00    +0.000 A 
ATOM     13  C   UNL     1       0.295  13.176  21.396  0.00  0.00    +0.000 A 
ATOM     14  C   UNL     1       0.342  11.833  20.986  0.00  0.00    +0.000 A 
ATOM     15  C   UNL     1      -0.430  10.848  21.624  0.00  0.00    +0.000 A 
ATOM     16  C   UNL     1      -1.235  11.253  22.703  0.00  0.00    +0.000 A 
ATOM     17  C   UNL     1      -1.280  12.596  23.113  0.00  0.00    +0.000 A 
ENDBRANCH  10  15
ENDBRANCH   9  10
ENDBRANCH   1   9
BRANCH   3  18
ATOM     18  C   UNL     1       3.249   4.929  18.506  0.00  0.00    +0.000 C 
BRANCH  18  19
ATOM     19  N   UNL     1       4.736   4.817  18.351  0.00  0.00    +0.000 N 
ATOM     20  C   UNL     1       5.493   5.435  19.442  0.00  0.00    +0.000 C 
ATOM     21  C   UNL     1       7.003   5.467  19.376  0.00  0.00    +0.000 C 
ATOM     22  C   UNL     1       7.659   5.158  18.060  0.00  0.00    +0.000 C 
ATOM     23  C   UNL     1       6.736   4.874  16.924  0.00  0.00    +0.000 A 
ATOM     24  C   UNL     1       7.377   4.689  15.671  0.00  0.00    +0.000 A 
ATOM     25  C   UNL     1       6.649   4.418  14.531  0.00  0.00    +0.000 A 
ATOM     26  C   UNL     1       5.270   4.351  14.632  0.00  0.00    +0.000 A 
ATOM     27  C   UNL     1       4.629   4.521  15.885  0.00  0.00    +0.000 A 
ATOM     28  C   UNL     1       5.337   4.767  17.078  0.00  0.00    +0.000 A 
ENDBRANCH  18  19
ENDBRANCH   3  18
TORSDOF 5
ENDMDL
