MODEL 1
REMARK VINA RESULT:      -8.8      0.000      0.000
REMARK  Name = 
REMARK  3 active torsions:
REMARK  status: ('A' for Active; 'I' for Inactive)
REMARK    1  A    between atoms: C_1  and  N_2
REMARK    2  A    between atoms: C_14  and  O_15
REMARK    3  A    between atoms: C_17  and  C_18
REMARK                            x       y       z     vdW  Elec       q    Type
REMARK                         _______ _______ _______ _____ _____    ______ ____
ROOT
ATOM      1  C   UNL     1      -0.421  13.744  19.642  0.00  0.00    +0.000 C 
ATOM      2  N   UNL     1      -0.088  12.316  19.858  0.00  0.00    +0.000 N 
ATOM      3  C   UNL     1       0.580  11.681  18.874  0.00  0.00    +0.000 A 
ATOM      4  C   UNL     1       1.043  10.381  19.027  0.00  0.00    +0.000 A 
ATOM      5  C   UNL     1       0.807   9.696  20.226  0.00  0.00    +0.000 A 
ATOM      6  C   UNL     1       0.010  10.337  21.221  0.00  0.00    +0.000 A 
ATOM      7  C   UNL     1      -0.372   9.712  22.438  0.00  0.00    +0.000 A 
ATOM      8  C   UNL     1      -1.152  10.368  23.393  0.00  0.00    +0.000 A 
ATOM      9  C   UNL     1      -1.585  11.659  23.166  0.00  0.00    +0.000 A 
ATOM     10  C   UNL     1      -1.233  12.310  21.985  0.00  0.00    +0.000 A 
ATOM     11  C   UNL     1      -0.439  11.676  21.009  0.00  0.00    +0.000 A 
ATOM     12  N   UNL     1       1.263   8.357  20.400  0.00  0.00    +0.000 N 
ATOM     13  C   UNL     1       2.131   7.641  19.534  0.00  0.00    +0.000 A 
ATOM     14  C   UNL     1       2.595   6.356  19.865  0.00  0.00    +0.000 A 
ATOM     15  C   UNL     1       3.405   5.610  18.996  0.00  0.00    +0.000 A 
ATOM     16  C   UNL     1       3.793   6.115  17.748  0.00  0.00    +0.000 A 
ATOM     17  C   UNL     1       3.326   7.397  17.419  0.00  0.00    +0.000 A 
ATOM     18  C   UNL     1       2.489   8.139  18.275  0.00  0.00    +0.000 A 
ATOM     19  S   UNL     1       1.957   9.717  17.661  0.00  0.00    +0.000 S 
ATOM     20  H   UNL     1       1.385   8.096  21.370  0.00  0.00    +0.000 HD
ENDROOT
BRANCH  16  21
ATOM     21  C   UNL     1       4.643   5.346  16.806  0.00  0.00    +0.000 A 
ATOM     22  C   UNL     1       5.316   5.980  15.739  0.00  0.00    +0.000 A 
ATOM     23  C   UNL     1       6.133   5.264  14.860  0.00  0.00    +0.000 A 
ATOM     24  C   UNL     1       6.284   3.893  15.010  0.00  0.00    +0.000 A 
ATOM     25  C   UNL     1       5.627   3.239  16.048  0.00  0.00    +0.000 A 
ATOM     26  C   UNL     1       4.822   3.959  16.936  0.00  0.00    +0.000 A 
ENDBRANCH  16  21
BRANCH  14  27
ATOM     27  O   UNL     1       2.300   5.751  21.060  0.00  0.00    +0.000 OA
ATOM     28  H   UNL     1       2.936   6.045  21.727  0.00  0.00    +0.000 HD
ENDBRANCH  14  27
TORSDOF 2
ENDMDL
MODEL 2
REMARK VINA RESULT:      -8.6      2.170      8.885
REMARK  Name = 
REMARK  3 active torsions:
REMARK  status: ('A' for Active; 'I' for Inactive)
REMARK    1  A    between atoms: C_1  and  N_2
REMARK    2  A    between atoms: C_14  and  O_15
REMARK    3  A    between atoms: C_17  and  C_18
REMARK                            x       y       z     vdW  Elec       q    Type
REMARK                         _______ _______ _______ _____ _____    ______ ____
ROOT
ATOM      1  C   UNL     1       4.508   2.832  19.601  0.00  0.00    +0.000 C 
ATOM      2  N   UNL     1       4.010   4.139  19.113  0.00  0.00    +0.000 N 
ATOM      3  C   UNL     1       3.067   4.757  19.853  0.00  0.00    +0.000 A 
ATOM      4  C   UNL     1       2.622   6.037  19.548  0.00  0.00    +0.000 A 
ATOM      5  C   UNL     1       3.151   6.709  18.439  0.00  0.00    +0.000 A 
ATOM      6  C   UNL     1       4.070   6.009  17.602  0.00  0.00    +0.000 A 
ATOM      7  C   UNL     1       4.605   6.551  16.403  0.00  0.00    +0.000 A 
ATOM      8  C   UNL     1       5.504   5.840  15.607  0.00  0.00    +0.000 A 
ATOM      9  C   UNL     1       5.893   4.566  15.969  0.00  0.00    +0.000 A 
ATOM     10  C   UNL     1       5.394   3.996  17.138  0.00  0.00    +0.000 A 
ATOM     11  C   UNL     1       4.492   4.694  17.966  0.00  0.00    +0.000 A 
ATOM     12  N   UNL     1       2.699   8.018  18.101  0.00  0.00    +0.000 N 
ATOM     13  C   UNL     1       1.863   8.853  18.887  0.00  0.00    +0.000 A 
ATOM     14  C   UNL     1       1.568  10.170  18.494  0.00  0.00    +0.000 A 
ATOM     15  C   UNL     1       0.697  10.989  19.228  0.00  0.00    +0.000 A 
ATOM     16  C   UNL     1       0.076  10.529  20.397  0.00  0.00    +0.000 A 
ATOM     17  C   UNL     1       0.369   9.213  20.785  0.00  0.00    +0.000 A 
ATOM     18  C   UNL     1       1.220   8.377  20.037  0.00  0.00    +0.000 A 
ATOM     19  S   UNL     1       1.426   6.726  20.659  0.00  0.00    +0.000 S 
ATOM     20  H   UNL     1       3.369   8.547  17.557  0.00  0.00    +0.000 HD
ENDROOT
BRANCH  16  21
ATOM     21  C   UNL     1      -0.855  11.370  21.188  0.00  0.00    +0.000 A 
ATOM     22  C   UNL     1      -1.001  11.193  22.581  0.00  0.00    +0.000 A 
ATOM     23  C   UNL     1      -1.862  11.995  23.335  0.00  0.00    +0.000 A 
ATOM     24  C   UNL     1      -2.615  12.982  22.716  0.00  0.00    +0.000 A 
ATOM     25  C   UNL     1      -2.499  13.175  21.343  0.00  0.00    +0.000 A 
ATOM     26  C   UNL     1      -1.626  12.382  20.592  0.00  0.00    +0.000 A 
ENDBRANCH  16  21
BRANCH  14  27
ATOM     27  O   UNL     1       2.119  10.747  17.379  0.00  0.00    +0.000 OA
ATOM     28  H   UNL     1       2.767  10.137  16.997  0.00  0.00    +0.000 HD
ENDBRANCH  14  27
TORSDOF 2
ENDMDL
MODEL 3
REMARK VINA RESULT:      -8.0      2.631      4.197
REMARK  Name = 
REMARK  3 active torsions:
REMARK  status: ('A' for Active; 'I' for Inactive)
REMARK    1  A    between atoms: C_1  and  N_2
REMARK    2  A    between atoms: C_14  and  O_15
REMARK    3  A    between atoms: C_17  and  C_18
REMARK                            x       y       z     vdW  Elec       q    Type
REMARK                         _______ _______ _______ _____ _____    ______ ____
ROOT
ATOM      1  C   UNL     1      -2.368  13.897  23.475  0.00  0.00    +0.000 C 
ATOM      2  N   UNL     1      -1.482  13.267  22.468  0.00  0.00    +0.000 N 
ATOM      3  C   UNL     1      -1.030  12.025  22.733  0.00  0.00    +0.000 A 
ATOM      4  C   UNL     1      -0.294  11.302  21.803  0.00  0.00    +0.000 A 
ATOM      5  C   UNL     1       0.002  11.871  20.558  0.00  0.00    +0.000 A 
ATOM      6  C   UNL     1      -0.390  13.223  20.325  0.00  0.00    +0.000 A 
ATOM      7  C   UNL     1      -0.070  13.937  19.140  0.00  0.00    +0.000 A 
ATOM      8  C   UNL     1      -0.471  15.260  18.942  0.00  0.00    +0.000 A 
ATOM      9  C   UNL     1      -1.192  15.918  19.918  0.00  0.00    +0.000 A 
ATOM     10  C   UNL     1      -1.528  15.255  21.096  0.00  0.00    +0.000 A 
ATOM     11  C   UNL     1      -1.146  13.917  21.318  0.00  0.00    +0.000 A 
ATOM     12  N   UNL     1       0.766  11.151  19.593  0.00  0.00    +0.000 N 
ATOM     13  C   UNL     1       1.140   9.784  19.662  0.00  0.00    +0.000 A 
ATOM     14  C   UNL     1       1.809   9.155  18.597  0.00  0.00    +0.000 A 
ATOM     15  C   UNL     1       2.239   7.822  18.670  0.00  0.00    +0.000 A 
ATOM     16  C   UNL     1       2.019   7.048  19.817  0.00  0.00    +0.000 A 
ATOM     17  C   UNL     1       1.355   7.678  20.880  0.00  0.00    +0.000 A 
ATOM     18  C   UNL     1       0.946   9.025  20.823  0.00  0.00    +0.000 A 
ATOM     19  S   UNL     1       0.169   9.661  22.287  0.00  0.00    +0.000 S 
ATOM     20  H   UNL     1       0.609  11.460  18.642  0.00  0.00    +0.000 HD
ENDROOT
BRANCH  16  21
ATOM     21  C   UNL     1       2.468   5.638  19.925  0.00  0.00    +0.000 A 
ATOM     22  C   UNL     1       3.628   5.184  19.261  0.00  0.00    +0.000 A 
ATOM     23  C   UNL     1       4.067   3.862  19.375  0.00  0.00    +0.000 A 
ATOM     24  C   UNL     1       3.349   2.953  20.138  0.00  0.00    +0.000 A 
ATOM     25  C   UNL     1       2.197   3.369  20.797  0.00  0.00    +0.000 A 
ATOM     26  C   UNL     1       1.767   4.696  20.696  0.00  0.00    +0.000 A 
ENDBRANCH  16  21
BRANCH  14  27
ATOM     27  O   UNL     1       2.074   9.795  17.414  0.00  0.00    +0.000 OA
ATOM     28  H   UNL     1       2.346  10.705  17.602  0.00  0.00    +0.000 HD
ENDBRANCH  14  27
TORSDOF 2
ENDMDL
MODEL 4
REMARK VINA RESULT:      -7.8      2.022      8.182
REMARK  Name = 
REMARK  3 active torsions:
REMARK  status: ('A' for Active; 'I' for Inactive)
REMARK    1  A    between atoms: C_1  and  N_2
REMARK    2  A    between atoms: C_14  and  O_15
REMARK    3  A    between atoms: C_17  and  C_18
REMARK                            x       y       z     vdW  Elec       q    Type
REMARK                         _______ _______ _______ _____ _____    ______ ____
ROOT
ATOM      1  C   UNL     1       4.201   4.069  16.864  0.00  0.00    +0.000 C 
ATOM      2  N   UNL     1       3.582   4.877  17.940  0.00  0.00    +0.000 N 
ATOM      3  C   UNL     1       3.378   6.186  17.690  0.00  0.00    +0.000 A 
ATOM      4  C   UNL     1       2.697   7.003  18.584  0.00  0.00    +0.000 A 
ATOM      5  C   UNL     1       2.214   6.467  19.784  0.00  0.00    +0.000 A 
ATOM      6  C   UNL     1       2.524   5.108  20.088  0.00  0.00    +0.000 A 
ATOM      7  C   UNL     1       2.167   4.479  21.310  0.00  0.00    +0.000 A 
ATOM      8  C   UNL     1       2.484   3.145  21.575  0.00  0.00    +0.000 A 
ATOM      9  C   UNL     1       3.173   2.398  20.642  0.00  0.00    +0.000 A 
ATOM     10  C   UNL     1       3.543   2.975  19.429  0.00  0.00    +0.000 A 
ATOM     11  C   UNL     1       3.227   4.316  19.130  0.00  0.00    +0.000 A 
ATOM     12  N   UNL     1       1.523   7.290  20.721  0.00  0.00    +0.000 N 
ATOM     13  C   UNL     1       1.077   8.620  20.509  0.00  0.00    +0.000 A 
ATOM     14  C   UNL     1       0.312   9.298  21.475  0.00  0.00    +0.000 A 
ATOM     15  C   UNL     1      -0.086  10.632  21.308  0.00  0.00    +0.000 A 
ATOM     16  C   UNL     1       0.261  11.358  20.161  0.00  0.00    +0.000 A 
ATOM     17  C   UNL     1       1.027  10.682  19.200  0.00  0.00    +0.000 A 
ATOM     18  C   UNL     1       1.455   9.351  19.375  0.00  0.00    +0.000 A 
ATOM     19  S   UNL     1       2.462   8.684  18.073  0.00  0.00    +0.000 S 
ATOM     20  H   UNL     1       0.908   6.771  21.336  0.00  0.00    +0.000 HD
ENDROOT
BRANCH  16  21
ATOM     21  C   UNL     1      -0.141  12.772  19.961  0.00  0.00    +0.000 A 
ATOM     22  C   UNL     1      -1.146  13.369  20.752  0.00  0.00    +0.000 A 
ATOM     23  C   UNL     1      -1.515  14.706  20.581  0.00  0.00    +0.000 A 
ATOM     24  C   UNL     1      -0.905  15.478  19.603  0.00  0.00    +0.000 A 
ATOM     25  C   UNL     1       0.083  14.914  18.802  0.00  0.00    +0.000 A 
ATOM     26  C   UNL     1       0.463  13.581  18.984  0.00  0.00    +0.000 A 
ENDBRANCH  16  21
BRANCH  14  27
ATOM     27  O   UNL     1      -0.106   8.699  22.635  0.00  0.00    +0.000 OA
ATOM     28  H   UNL     1       0.291   9.161  23.388  0.00  0.00    +0.000 HD
ENDBRANCH  14  27
TORSDOF 2
ENDMDL
MODEL 5
REMARK VINA RESULT:      -7.8      2.160      3.797
REMARK  Name = 
REMARK  3 active torsions:
REMARK  status: ('A' for Active; 'I' for Inactive)
REMARK    1  A    between atoms: C_1  and  N_2
REMARK    2  A    between atoms: C_14  and  O_15
REMARK    3  A    between atoms: C_17  and  C_18
REMARK                            x       y       z     vdW  Elec       q    Type
REMARK                         _______ _______ _______ _____ _____    ______ ____
ROOT
ATOM      1  C   UNL     1      -3.070  12.500  24.085  0.00  0.00    +0.000 C 
ATOM      2  N   UNL     1      -2.092  12.262  22.998  0.00  0.00    +0.000 N 
ATOM      3  C   UNL     1      -1.456  11.074  22.987  0.00  0.00    +0.000 A 
ATOM      4  C   UNL     1      -0.612  10.707  21.946  0.00  0.00    +0.000 A 
ATOM      5  C   UNL     1      -0.401  11.589  20.880  0.00  0.00    +0.000 A 
ATOM      6  C   UNL     1      -0.995  12.885  20.950  0.00  0.00    +0.000 A 
ATOM      7  C   UNL     1      -0.781  13.897  19.976  0.00  0.00    +0.000 A 
ATOM      8  C   UNL     1      -1.380  15.155  20.074  0.00  0.00    +0.000 A 
ATOM      9  C   UNL     1      -2.199  15.451  21.144  0.00  0.00    +0.000 A 
ATOM     10  C   UNL     1      -2.436  14.488  22.122  0.00  0.00    +0.000 A 
ATOM     11  C   UNL     1      -1.854  13.207  22.045  0.00  0.00    +0.000 A 
ATOM     12  N   UNL     1       0.470  11.238  19.807  0.00  0.00    +0.000 N 
ATOM     13  C   UNL     1       1.050   9.964  19.573  0.00  0.00    +0.000 A 
ATOM     14  C   UNL     1       1.813   9.709  18.420  0.00  0.00    +0.000 A 
ATOM     15  C   UNL     1       2.442   8.474  18.201  0.00  0.00    +0.000 A 
ATOM     16  C   UNL     1       2.337   7.429  19.127  0.00  0.00    +0.000 A 
ATOM     17  C   UNL     1       1.578   7.686  20.279  0.00  0.00    +0.000 A 
ATOM     18  C   UNL     1       0.968   8.933  20.518  0.00  0.00    +0.000 A 
ATOM     19  S   UNL     1       0.094   9.085  22.057  0.00  0.00    +0.000 S 
ATOM     20  H   UNL     1       0.272  11.735  18.948  0.00  0.00    +0.000 HD
ENDROOT
BRANCH  16  21
ATOM     21  C   UNL     1       2.997   6.116  18.925  0.00  0.00    +0.000 A 
ATOM     22  C   UNL     1       3.653   5.802  17.715  0.00  0.00    +0.000 A 
ATOM     23  C   UNL     1       4.293   4.573  17.526  0.00  0.00    +0.000 A 
ATOM     24  C   UNL     1       4.279   3.619  18.532  0.00  0.00    +0.000 A 
ATOM     25  C   UNL     1       3.634   3.896  19.733  0.00  0.00    +0.000 A 
ATOM     26  C   UNL     1       3.007   5.131  19.927  0.00  0.00    +0.000 A 
ENDBRANCH  16  21
BRANCH  14  27
ATOM     27  O   UNL     1       1.983  10.641  17.429  0.00  0.00    +0.000 OA
ATOM     28  H   UNL     1       2.347  10.204  16.646  0.00  0.00    +0.000 HD
ENDBRANCH  14  27
TORSDOF 2
ENDMDL
MODEL 6
REMARK VINA RESULT:      -7.7      1.980      8.235
REMARK  Name = 
REMARK  3 active torsions:
REMARK  status: ('A' for Active; 'I' for Inactive)
REMARK    1  A    between atoms: C_1  and  N_2
REMARK    2  A    between atoms: C_14  and  O_15
REMARK    3  A    between atoms: C_17  and  C_18
REMARK                            x       y       z     vdW  Elec       q    Type
REMARK                         _______ _______ _______ _____ _____    ______ ____
ROOT
ATOM      1  C   UNL     1       4.234   4.432  16.913  0.00  0.00    +0.000 C 
ATOM      2  N   UNL     1       3.560   5.164  18.010  0.00  0.00    +0.000 N 
ATOM      3  C   UNL     1       3.312   6.476  17.818  0.00  0.00    +0.000 A 
ATOM      4  C   UNL     1       2.580   7.223  18.733  0.00  0.00    +0.000 A 
ATOM      5  C   UNL     1       2.091   6.612  19.894  0.00  0.00    +0.000 A 
ATOM      6  C   UNL     1       2.445   5.252  20.140  0.00  0.00    +0.000 A 
ATOM      7  C   UNL     1       2.085   4.552  21.323  0.00  0.00    +0.000 A 
ATOM      8  C   UNL     1       2.447   3.220  21.532  0.00  0.00    +0.000 A 
ATOM      9  C   UNL     1       3.184   2.545  20.582  0.00  0.00    +0.000 A 
ATOM     10  C   UNL     1       3.559   3.193  19.407  0.00  0.00    +0.000 A 
ATOM     11  C   UNL     1       3.200   4.534  19.164  0.00  0.00    +0.000 A 
ATOM     12  N   UNL     1       1.348   7.363  20.851  0.00  0.00    +0.000 N 
ATOM     13  C   UNL     1       0.857   8.685  20.691  0.00  0.00    +0.000 A 
ATOM     14  C   UNL     1       0.045   9.286  21.669  0.00  0.00    +0.000 A 
ATOM     15  C   UNL     1      -0.400  10.612  21.555  0.00  0.00    +0.000 A 
ATOM     16  C   UNL     1      -0.055  11.404  20.453  0.00  0.00    +0.000 A 
ATOM     17  C   UNL     1       0.758  10.803  19.480  0.00  0.00    +0.000 A 
ATOM     18  C   UNL     1       1.232   9.483  19.602  0.00  0.00    +0.000 A 
ATOM     19  S   UNL     1       2.293   8.916  18.296  0.00  0.00    +0.000 S 
ATOM     20  H   UNL     1       0.740   6.793  21.426  0.00  0.00    +0.000 HD
ENDROOT
BRANCH  16  21
ATOM     21  C   UNL     1      -0.505  12.810  20.310  0.00  0.00    +0.000 A 
ATOM     22  C   UNL     1       0.212  13.735  19.521  0.00  0.00    +0.000 A 
ATOM     23  C   UNL     1      -0.218  15.056  19.367  0.00  0.00    +0.000 A 
ATOM     24  C   UNL     1      -1.364  15.495  20.013  0.00  0.00    +0.000 A 
ATOM     25  C   UNL     1      -2.088  14.609  20.804  0.00  0.00    +0.000 A 
ATOM     26  C   UNL     1      -1.666  13.283  20.945  0.00  0.00    +0.000 A 
ENDBRANCH  16  21
BRANCH  14  27
ATOM     27  O   UNL     1      -0.376   8.617  22.789  0.00  0.00    +0.000 OA
ATOM     28  H   UNL     1       0.382   8.170  23.192  0.00  0.00    +0.000 HD
ENDBRANCH  14  27
TORSDOF 2
ENDMDL
MODEL 7
REMARK VINA RESULT:      -7.5      2.150      3.854
REMARK  Name = 
REMARK  3 active torsions:
REMARK  status: ('A' for Active; 'I' for Inactive)
REMARK    1  A    between atoms: C_1  and  N_2
REMARK    2  A    between atoms: C_14  and  O_15
REMARK    3  A    between atoms: C_17  and  C_18
REMARK                            x       y       z     vdW  Elec       q    Type
REMARK                         _______ _______ _______ _____ _____    ______ ____
ROOT
ATOM      1  C   UNL     1      -3.030  12.478  23.973  0.00  0.00    +0.000 C 
ATOM      2  N   UNL     1      -2.000  12.343  22.917  0.00  0.00    +0.000 N 
ATOM      3  C   UNL     1      -1.456  11.123  22.735  0.00  0.00    +0.000 A 
ATOM      4  C   UNL     1      -0.572  10.865  21.695  0.00  0.00    +0.000 A 
ATOM      5  C   UNL     1      -0.219  11.894  20.813  0.00  0.00    +0.000 A 
ATOM      6  C   UNL     1      -0.715  13.205  21.075  0.00  0.00    +0.000 A 
ATOM      7  C   UNL     1      -0.357  14.345  20.306  0.00  0.00    +0.000 A 
ATOM      8  C   UNL     1      -0.863  15.616  20.589  0.00  0.00    +0.000 A 
ATOM      9  C   UNL     1      -1.730  15.797  21.646  0.00  0.00    +0.000 A 
ATOM     10  C   UNL     1      -2.109  14.706  22.426  0.00  0.00    +0.000 A 
ATOM     11  C   UNL     1      -1.622  13.411  22.159  0.00  0.00    +0.000 A 
ATOM     12  N   UNL     1       0.696  11.654  19.747  0.00  0.00    +0.000 N 
ATOM     13  C   UNL     1       1.192  10.392  19.327  0.00  0.00    +0.000 A 
ATOM     14  C   UNL     1       2.013  10.270  18.192  0.00  0.00    +0.000 A 
ATOM     15  C   UNL     1       2.559   9.040  17.796  0.00  0.00    +0.000 A 
ATOM     16  C   UNL     1       2.310   7.866  18.518  0.00  0.00    +0.000 A 
ATOM     17  C   UNL     1       1.493   7.990  19.653  0.00  0.00    +0.000 A 
ATOM     18  C   UNL     1       0.965   9.227  20.071  0.00  0.00    +0.000 A 
ATOM     19  S   UNL     1      -0.001   9.192  21.561  0.00  0.00    +0.000 S 
ATOM     20  H   UNL     1       0.598  12.305  18.977  0.00  0.00    +0.000 HD
ENDROOT
BRANCH  16  21
ATOM     21  C   UNL     1       2.880   6.554  18.127  0.00  0.00    +0.000 A 
ATOM     22  C   UNL     1       2.202   5.346  18.404  0.00  0.00    +0.000 A 
ATOM     23  C   UNL     1       2.725   4.108  18.021  0.00  0.00    +0.000 A 
ATOM     24  C   UNL     1       3.948   4.040  17.370  0.00  0.00    +0.000 A 
ATOM     25  C   UNL     1       4.644   5.213  17.091  0.00  0.00    +0.000 A 
ATOM     26  C   UNL     1       4.113   6.452  17.461  0.00  0.00    +0.000 A 
ENDBRANCH  16  21
BRANCH  14  27
ATOM     27  O   UNL     1       2.323  11.338  17.390  0.00  0.00    +0.000 OA
ATOM     28  H   UNL     1       3.248  11.584  17.537  0.00  0.00    +0.000 HD
ENDBRANCH  14  27
TORSDOF 2
ENDMDL
MODEL 8
REMARK VINA RESULT:      -7.3      2.546      3.573
REMARK  Name = 
REMARK  3 active torsions:
REMARK  status: ('A' for Active; 'I' for Inactive)
REMARK    1  A    between atoms: C_1  and  N_2
REMARK    2  A    between atoms: C_14  and  O_15
REMARK    3  A    between atoms: C_17  and  C_18
REMARK                            x       y       z     vdW  Elec       q    Type
REMARK                         _______ _______ _______ _____ _____    ______ ____
ROOT
ATOM      1  C   UNL     1      -2.160  12.426  23.486  0.00  0.00    +0.000 C 
ATOM      2  N   UNL     1      -1.240  11.949  22.427  0.00  0.00    +0.000 N 
ATOM      3  C   UNL     1      -0.774  10.689  22.535  0.00  0.00    +0.000 A 
ATOM      4  C   UNL     1      -0.004  10.107  21.535  0.00  0.00    +0.000 A 
ATOM      5  C   UNL     1       0.312  10.843  20.386  0.00  0.00    +0.000 A 
ATOM      6  C   UNL     1      -0.096  12.208  20.327  0.00  0.00    +0.000 A 
ATOM      7  C   UNL     1       0.240  13.080  19.257  0.00  0.00    +0.000 A 
ATOM      8  C   UNL     1      -0.177  14.412  19.229  0.00  0.00    +0.000 A 
ATOM      9  C   UNL     1      -0.932  14.923  20.265  0.00  0.00    +0.000 A 
ATOM     10  C   UNL     1      -1.286  14.103  21.335  0.00  0.00    +0.000 A 
ATOM     11  C   UNL     1      -0.887  12.753  21.385  0.00  0.00    +0.000 A 
ATOM     12  N   UNL     1       1.111  10.270  19.354  0.00  0.00    +0.000 N 
ATOM     13  C   UNL     1       1.506   8.910  19.248  0.00  0.00    +0.000 A 
ATOM     14  C   UNL     1       2.211   8.440  18.126  0.00  0.00    +0.000 A 
ATOM     15  C   UNL     1       2.660   7.115  18.031  0.00  0.00    +0.000 A 
ATOM     16  C   UNL     1       2.425   6.190  19.057  0.00  0.00    +0.000 A 
ATOM     17  C   UNL     1       1.726   6.663  20.177  0.00  0.00    +0.000 A 
ATOM     18  C   UNL     1       1.297   7.999  20.291  0.00  0.00    +0.000 A 
ATOM     19  S   UNL     1       0.474   8.422  21.807  0.00  0.00    +0.000 S 
ATOM     20  H   UNL     1       0.972  10.702  18.449  0.00  0.00    +0.000 HD
ENDROOT
BRANCH  16  21
ATOM     21  C   UNL     1       2.895   4.785  18.986  0.00  0.00    +0.000 A 
ATOM     22  C   UNL     1       2.122   3.782  18.361  0.00  0.00    +0.000 A 
ATOM     23  C   UNL     1       2.569   2.460  18.275  0.00  0.00    +0.000 A 
ATOM     24  C   UNL     1       3.789   2.100  18.827  0.00  0.00    +0.000 A 
ATOM     25  C   UNL     1       4.569   3.064  19.457  0.00  0.00    +0.000 A 
ATOM     26  C   UNL     1       4.129   4.390  19.530  0.00  0.00    +0.000 A 
ENDBRANCH  16  21
BRANCH  14  27
ATOM     27  O   UNL     1       2.493   9.237  17.047  0.00  0.00    +0.000 OA
ATOM     28  H   UNL     1       3.119   8.775  16.470  0.00  0.00    +0.000 HD
ENDBRANCH  14  27
TORSDOF 2
ENDMDL
MODEL 9
REMARK VINA RESULT:      -7.3      2.538      4.348
REMARK  Name = 
REMARK  3 active torsions:
REMARK  status: ('A' for Active; 'I' for Inactive)
REMARK    1  A    between atoms: C_1  and  N_2
REMARK    2  A    between atoms: C_14  and  O_15
REMARK    3  A    between atoms: C_17  and  C_18
REMARK                            x       y       z     vdW  Elec       q    Type
REMARK                         _______ _______ _______ _____ _____    ______ ____
ROOT
ATOM      1  C   UNL     1      -1.222  16.917  19.508  0.00  0.00    +0.000 C 
ATOM      2  N   UNL     1      -1.099  15.637  20.243  0.00  0.00    +0.000 N 
ATOM      3  C   UNL     1      -0.693  14.558  19.543  0.00  0.00    +0.000 A 
ATOM      4  C   UNL     1      -0.430  13.342  20.162  0.00  0.00    +0.000 A 
ATOM      5  C   UNL     1      -0.599  13.218  21.546  0.00  0.00    +0.000 A 
ATOM      6  C   UNL     1      -1.129  14.332  22.263  0.00  0.00    +0.000 A 
ATOM      7  C   UNL     1      -1.428  14.298  23.651  0.00  0.00    +0.000 A 
ATOM      8  C   UNL     1      -1.944  15.407  24.324  0.00  0.00    +0.000 A 
ATOM      9  C   UNL     1      -2.189  16.580  23.639  0.00  0.00    +0.000 A 
ATOM     10  C   UNL     1      -1.910  16.658  22.277  0.00  0.00    +0.000 A 
ATOM     11  C   UNL     1      -1.379  15.557  21.574  0.00  0.00    +0.000 A 
ATOM     12  N   UNL     1      -0.348  11.976  22.200  0.00  0.00    +0.000 N 
ATOM     13  C   UNL     1       0.257  10.827  21.626  0.00  0.00    +0.000 A 
ATOM     14  C   UNL     1       0.548   9.691  22.401  0.00  0.00    +0.000 A 
ATOM     15  C   UNL     1       1.091   8.526  21.840  0.00  0.00    +0.000 A 
ATOM     16  C   UNL     1       1.373   8.439  20.471  0.00  0.00    +0.000 A 
ATOM     17  C   UNL     1       1.078   9.573  19.698  0.00  0.00    +0.000 A 
ATOM     18  C   UNL     1       0.506  10.735  20.251  0.00  0.00    +0.000 A 
ATOM     19  S   UNL     1       0.156  12.046  19.105  0.00  0.00    +0.000 S 
ATOM     20  H   UNL     1      -0.131  12.075  23.183  0.00  0.00    +0.000 HD
ENDROOT
BRANCH  16  21
ATOM     21  C   UNL     1       1.940   7.218  19.849  0.00  0.00    +0.000 A 
ATOM     22  C   UNL     1       2.584   7.264  18.593  0.00  0.00    +0.000 A 
ATOM     23  C   UNL     1       3.137   6.120  18.011  0.00  0.00    +0.000 A 
ATOM     24  C   UNL     1       3.046   4.896  18.658  0.00  0.00    +0.000 A 
ATOM     25  C   UNL     1       2.411   4.818  19.893  0.00  0.00    +0.000 A 
ATOM     26  C   UNL     1       1.871   5.965  20.482  0.00  0.00    +0.000 A 
ENDBRANCH  16  21
BRANCH  14  27
ATOM     27  O   UNL     1       0.334   9.648  23.755  0.00  0.00    +0.000 OA
ATOM     28  H   UNL     1      -0.546  10.003  23.945  0.00  0.00    +0.000 HD
ENDBRANCH  14  27
TORSDOF 2
ENDMDL
