MODEL 1
REMARK VINA RESULT:      -8.8      0.000      0.000
REMARK  Name = 
REMARK  8 active torsions:
REMARK  status: ('A' for Active; 'I' for Inactive)
REMARK    1  A    between atoms: C_1  and  C_2
REMARK    2  A    between atoms: C_2  and  C_3
REMARK    3  A    between atoms: C_3  and  C_4
REMARK    4  A    between atoms: C_4  and  C_5
REMARK    5  A    between atoms: C_5  and  O_6
REMARK    6  A    between atoms: O_6  and  C_7
REMARK    7  A    between atoms: C_12  and  C_13
REMARK    8  A    between atoms: C_16  and  C_17
REMARK                            x       y       z     vdW  Elec       q    Type
REMARK                         _______ _______ _______ _____ _____    ______ ____
ROOT
ATOM      1  C   UNL     1       5.575   4.476  15.358  0.00  0.00    +0.000 A 
ATOM      2  C   UNL     1       5.725   5.878  15.245  0.00  0.00    +0.000 A 
ATOM      3  C   UNL     1       5.009   6.737  16.070  0.00  0.00    +0.000 A 
ATOM      4  C   UNL     1       4.131   6.221  17.026  0.00  0.00    +0.000 A 
ATOM      5  C   UNL     1       3.423   7.088  17.865  0.00  0.00    +0.000 A 
ATOM      6  C   UNL     1       2.553   6.579  18.840  0.00  0.00    +0.000 A 
ATOM      7  C   UNL     1       2.386   5.189  18.958  0.00  0.00    +0.000 A 
ATOM      8  C   UNL     1       3.086   4.316  18.118  0.00  0.00    +0.000 A 
ATOM      9  C   UNL     1       3.964   4.822  17.149  0.00  0.00    +0.000 A 
ATOM     10  C   UNL     1       4.688   3.960  16.312  0.00  0.00    +0.000 A 
ENDROOT
BRANCH   6  11
ATOM     11  C   UNL     1       1.830   7.505  19.733  0.00  0.00    +0.000 A 
ATOM     12  N   UNL     1       1.272   7.167  20.913  0.00  0.00    +0.000 NA
ATOM     13  O   UNL     1       0.762   8.266  21.387  0.00  0.00    +0.000 OA
ATOM     14  C   UNL     1       0.984   9.246  20.542  0.00  0.00    +0.000 A 
ATOM     15  N   UNL     1       1.663   8.814  19.468  0.00  0.00    +0.000 NA
BRANCH  14  16
ATOM     16  C   UNL     1       0.569  10.674  20.727  0.00  0.00    +0.000 C 
ATOM     17  C   UNL     1       0.061  10.913  22.148  0.00  0.00    +0.000 C 
ATOM     18  C   UNL     1      -0.587  12.271  21.979  0.00  0.00    +0.000 C 
ATOM     19  C   UNL     1      -1.358  12.069  20.676  0.00  0.00    +0.000 C 
ATOM     20  N   UNL     1      -0.549  11.132  19.913  0.00  0.00    +0.000 N 
ATOM     21  C   UNL     1      -0.984  10.574  18.655  0.00  0.00    +0.000 C 
ATOM     22  N   UNL     1      -2.185  10.768  18.228  0.00  0.00    +0.000 NA
ATOM     23  N   UNL     1      -0.111   9.802  17.846  0.00  0.00    +0.000 N 
ATOM     24  H   UNL     1      -2.893  11.305  18.746  0.00  0.00    +0.000 HD
ATOM     25  H   UNL     1       0.889   9.706  18.056  0.00  0.00    +0.000 HD
ATOM     26  H   UNL     1      -0.461   9.384  16.967  0.00  0.00    +0.000 HD
ENDBRANCH  14  16
ENDBRANCH   6  11
BRANCH   1  27
ATOM     27  O   UNL     1       6.271   3.616  14.571  0.00  0.00    +0.000 OA
BRANCH  27  28
ATOM     28  C   UNL     1       6.641   3.909  13.278  0.00  0.00    +0.000 C 
BRANCH  28  29
ATOM     29  C   UNL     1       5.873   3.064  12.271  0.00  0.00    +0.000 C 
BRANCH  29  30
ATOM     30  C   UNL     1       4.585   3.808  11.911  0.00  0.00    +0.000 C 
BRANCH  30  32
ATOM     31  C   UNL     1       3.150   3.977   9.875  0.00  0.00    +0.000 C 
ATOM     32  C   UNL     1       3.725   3.028  10.923  0.00  0.00    +0.000 C 
ENDBRANCH  30  32
ENDBRANCH  29  30
ENDBRANCH  28  29
ENDBRANCH  27  28
ENDBRANCH   1  27
TORSDOF 7
ENDMDL
MODEL 2
REMARK VINA RESULT:      -8.6      3.427      4.768
REMARK  Name = 
REMARK  8 active torsions:
REMARK  status: ('A' for Active; 'I' for Inactive)
REMARK    1  A    between atoms: C_1  and  C_2
REMARK    2  A    between atoms: C_2  and  C_3
REMARK    3  A    between atoms: C_3  and  C_4
REMARK    4  A    between atoms: C_4  and  C_5
REMARK    5  A    between atoms: C_5  and  O_6
REMARK    6  A    between atoms: O_6  and  C_7
REMARK    7  A    between atoms: C_12  and  C_13
REMARK    8  A    between atoms: C_16  and  C_17
REMARK                            x       y       z     vdW  Elec       q    Type
REMARK                         _______ _______ _______ _____ _____    ______ ____
ROOT
ATOM      1  C   UNL     1       3.781   5.790  18.602  0.00  0.00    +0.000 A 
ATOM      2  C   UNL     1       3.783   6.644  17.474  0.00  0.00    +0.000 A 
ATOM      3  C   UNL     1       3.019   7.806  17.463  0.00  0.00    +0.000 A 
ATOM      4  C   UNL     1       2.242   8.144  18.573  0.00  0.00    +0.000 A 
ATOM      5  C   UNL     1       1.487   9.322  18.565  0.00  0.00    +0.000 A 
ATOM      6  C   UNL     1       0.718   9.679  19.681  0.00  0.00    +0.000 A 
ATOM      7  C   UNL     1       0.699   8.836  20.805  0.00  0.00    +0.000 A 
ATOM      8  C   UNL     1       1.446   7.654  20.818  0.00  0.00    +0.000 A 
ATOM      9  C   UNL     1       2.225   7.299  19.707  0.00  0.00    +0.000 A 
ATOM     10  C   UNL     1       2.996   6.126  19.711  0.00  0.00    +0.000 A 
ENDROOT
BRANCH   6  11
ATOM     11  C   UNL     1      -0.056  10.935  19.667  0.00  0.00    +0.000 A 
ATOM     12  N   UNL     1       0.368  12.102  19.143  0.00  0.00    +0.000 NA
ATOM     13  O   UNL     1      -0.613  12.940  19.314  0.00  0.00    +0.000 OA
ATOM     14  C   UNL     1      -1.604  12.329  19.921  0.00  0.00    +0.000 A 
ATOM     15  N   UNL     1      -1.301  11.045  20.170  0.00  0.00    +0.000 NA
BRANCH  14  16
ATOM     16  C   UNL     1      -2.921  12.944  20.285  0.00  0.00    +0.000 C 
ATOM     17  C   UNL     1      -3.240  12.712  21.760  0.00  0.00    +0.000 C 
ATOM     18  C   UNL     1      -4.703  13.105  21.786  0.00  0.00    +0.000 C 
ATOM     19  C   UNL     1      -5.221  12.391  20.540  0.00  0.00    +0.000 C 
ATOM     20  N   UNL     1      -4.096  12.396  19.619  0.00  0.00    +0.000 N 
ATOM     21  C   UNL     1      -4.123  11.704  18.353  0.00  0.00    +0.000 C 
ATOM     22  N   UNL     1      -5.101  10.920  18.051  0.00  0.00    +0.000 NA
ATOM     23  N   UNL     1      -3.086  11.866  17.398  0.00  0.00    +0.000 N 
ATOM     24  H   UNL     1      -5.893  10.732  18.679  0.00  0.00    +0.000 HD
ATOM     25  H   UNL     1      -2.340  12.561  17.512  0.00  0.00    +0.000 HD
ATOM     26  H   UNL     1      -3.114  11.330  16.514  0.00  0.00    +0.000 HD
ENDBRANCH  14  16
ENDBRANCH   6  11
BRANCH   1  27
ATOM     27  O   UNL     1       4.527   4.656  18.641  0.00  0.00    +0.000 OA
BRANCH  27  28
ATOM     28  C   UNL     1       4.427   3.656  17.699  0.00  0.00    +0.000 C 
BRANCH  28  29
ATOM     29  C   UNL     1       3.690   2.442  18.247  0.00  0.00    +0.000 C 
BRANCH  29  30
ATOM     30  C   UNL     1       2.214   2.569  17.862  0.00  0.00    +0.000 C 
BRANCH  30  32
ATOM     31  C   UNL     1       0.873   3.338  19.823  0.00  0.00    +0.000 C 
ATOM     32  C   UNL     1       1.284   2.128  18.988  0.00  0.00    +0.000 C 
ENDBRANCH  30  32
ENDBRANCH  29  30
ENDBRANCH  28  29
ENDBRANCH  27  28
ENDBRANCH   1  27
TORSDOF 7
ENDMDL
MODEL 3
REMARK VINA RESULT:      -8.6      3.916      6.156
REMARK  Name = 
REMARK  8 active torsions:
REMARK  status: ('A' for Active; 'I' for Inactive)
REMARK    1  A    between atoms: C_1  and  C_2
REMARK    2  A    between atoms: C_2  and  C_3
REMARK    3  A    between atoms: C_3  and  C_4
REMARK    4  A    between atoms: C_4  and  C_5
REMARK    5  A    between atoms: C_5  and  O_6
REMARK    6  A    between atoms: O_6  and  C_7
REMARK    7  A    between atoms: C_12  and  C_13
REMARK    8  A    between atoms: C_16  and  C_17
REMARK                            x       y       z     vdW  Elec       q    Type
REMARK                         _______ _______ _______ _____ _____    ______ ____
ROOT
ATOM      1  C   UNL     1       2.767   7.227  18.617  0.00  0.00    +0.000 A 
ATOM      2  C   UNL     1       2.505   8.225  17.651  0.00  0.00    +0.000 A 
ATOM      3  C   UNL     1       1.674   9.299  17.948  0.00  0.00    +0.000 A 
ATOM      4  C   UNL     1       1.089   9.403  19.212  0.00  0.00    +0.000 A 
ATOM      5  C   UNL     1       0.266  10.493  19.513  0.00  0.00    +0.000 A 
ATOM      6  C   UNL     1      -0.311  10.616  20.785  0.00  0.00    +0.000 A 
ATOM      7  C   UNL     1      -0.067   9.627  21.752  0.00  0.00    +0.000 A 
ATOM      8  C   UNL     1       0.750   8.531  21.457  0.00  0.00    +0.000 A 
ATOM      9  C   UNL     1       1.337   8.411  20.189  0.00  0.00    +0.000 A 
ATOM     10  C   UNL     1       2.174   7.328  19.881  0.00  0.00    +0.000 A 
ENDROOT
BRANCH   6  11
ATOM     11  C   UNL     1      -1.161  11.783  21.096  0.00  0.00    +0.000 A 
ATOM     12  N   UNL     1      -2.044  12.347  20.249  0.00  0.00    +0.000 NA
ATOM     13  O   UNL     1      -2.595  13.320  20.914  0.00  0.00    +0.000 OA
ATOM     14  C   UNL     1      -2.079  13.367  22.120  0.00  0.00    +0.000 A 
ATOM     15  N   UNL     1      -1.157  12.406  22.289  0.00  0.00    +0.000 NA
BRANCH  14  16
ATOM     16  C   UNL     1      -2.457  14.337  23.199  0.00  0.00    +0.000 C 
ATOM     17  C   UNL     1      -1.238  14.727  24.030  0.00  0.00    +0.000 C 
ATOM     18  C   UNL     1      -1.916  15.404  25.204  0.00  0.00    +0.000 C 
ATOM     19  C   UNL     1      -3.040  14.414  25.504  0.00  0.00    +0.000 C 
ATOM     20  N   UNL     1      -3.384  13.847  24.210  0.00  0.00    +0.000 N 
ATOM     21  C   UNL     1      -4.329  12.767  24.061  0.00  0.00    +0.000 C 
ATOM     22  N   UNL     1      -4.797  12.153  25.094  0.00  0.00    +0.000 NA
ATOM     23  N   UNL     1      -4.780  12.347  22.783  0.00  0.00    +0.000 N 
ATOM     24  H   UNL     1      -4.525  12.378  26.060  0.00  0.00    +0.000 HD
ATOM     25  H   UNL     1      -4.550  12.862  21.925  0.00  0.00    +0.000 HD
ATOM     26  H   UNL     1      -5.430  11.547  22.705  0.00  0.00    +0.000 HD
ENDBRANCH  14  16
ENDBRANCH   6  11
BRANCH   1  27
ATOM     27  O   UNL     1       3.584   6.174  18.354  0.00  0.00    +0.000 OA
BRANCH  27  28
ATOM     28  C   UNL     1       3.319   4.890  18.776  0.00  0.00    +0.000 C 
BRANCH  28  29
ATOM     29  C   UNL     1       2.431   4.148  17.787  0.00  0.00    +0.000 C 
BRANCH  29  30
ATOM     30  C   UNL     1       1.173   3.689  18.529  0.00  0.00    +0.000 C 
BRANCH  30  32
ATOM     31  C   UNL     1       1.257   2.982  20.921  0.00  0.00    +0.000 C 
ATOM     32  C   UNL     1       1.454   2.529  19.477  0.00  0.00    +0.000 C 
ENDBRANCH  30  32
ENDBRANCH  29  30
ENDBRANCH  28  29
ENDBRANCH  27  28
ENDBRANCH   1  27
TORSDOF 7
ENDMDL
MODEL 4
REMARK VINA RESULT:      -8.3      3.768      5.844
REMARK  Name = 
REMARK  8 active torsions:
REMARK  status: ('A' for Active; 'I' for Inactive)
REMARK    1  A    between atoms: C_1  and  C_2
REMARK    2  A    between atoms: C_2  and  C_3
REMARK    3  A    between atoms: C_3  and  C_4
REMARK    4  A    between atoms: C_4  and  C_5
REMARK    5  A    between atoms: C_5  and  O_6
REMARK    6  A    between atoms: O_6  and  C_7
REMARK    7  A    between atoms: C_12  and  C_13
REMARK    8  A    between atoms: C_16  and  C_17
REMARK                            x       y       z     vdW  Elec       q    Type
REMARK                         _______ _______ _______ _____ _____    ______ ____
ROOT
ATOM      1  C   UNL     1       2.721   6.356  19.312  0.00  0.00    +0.000 A 
ATOM      2  C   UNL     1       2.037   6.367  20.550  0.00  0.00    +0.000 A 
ATOM      3  C   UNL     1       1.272   7.465  20.928  0.00  0.00    +0.000 A 
ATOM      4  C   UNL     1       1.170   8.572  20.082  0.00  0.00    +0.000 A 
ATOM      5  C   UNL     1       0.387   9.668  20.458  0.00  0.00    +0.000 A 
ATOM      6  C   UNL     1       0.264  10.776  19.609  0.00  0.00    +0.000 A 
ATOM      7  C   UNL     1       0.945  10.784  18.380  0.00  0.00    +0.000 A 
ATOM      8  C   UNL     1       1.734   9.694  18.000  0.00  0.00    +0.000 A 
ATOM      9  C   UNL     1       1.851   8.579  18.843  0.00  0.00    +0.000 A 
ATOM     10  C   UNL     1       2.624   7.469  18.469  0.00  0.00    +0.000 A 
ENDROOT
BRANCH   6  11
ATOM     11  C   UNL     1      -0.583  11.917  20.009  0.00  0.00    +0.000 A 
ATOM     12  N   UNL     1      -0.789  13.026  19.271  0.00  0.00    +0.000 NA
ATOM     13  O   UNL     1      -1.606  13.763  19.966  0.00  0.00    +0.000 OA
ATOM     14  C   UNL     1      -1.895  13.148  21.089  0.00  0.00    +0.000 A 
ATOM     15  N   UNL     1      -1.268  11.963  21.167  0.00  0.00    +0.000 NA
BRANCH  14  16
ATOM     16  C   UNL     1      -2.816  13.658  22.156  0.00  0.00    +0.000 C 
ATOM     17  C   UNL     1      -2.357  13.192  23.537  0.00  0.00    +0.000 C 
ATOM     18  C   UNL     1      -3.585  13.530  24.357  0.00  0.00    +0.000 C 
ATOM     19  C   UNL     1      -4.697  12.999  23.456  0.00  0.00    +0.000 C 
ATOM     20  N   UNL     1      -4.191  13.180  22.104  0.00  0.00    +0.000 N 
ATOM     21  C   UNL     1      -4.890  12.690  20.940  0.00  0.00    +0.000 C 
ATOM     22  N   UNL     1      -5.924  11.931  21.063  0.00  0.00    +0.000 NA
ATOM     23  N   UNL     1      -4.470  13.028  19.628  0.00  0.00    +0.000 N 
ATOM     24  H   UNL     1      -6.299  11.624  21.970  0.00  0.00    +0.000 HD
ATOM     25  H   UNL     1      -3.734  13.721  19.449  0.00  0.00    +0.000 HD
ATOM     26  H   UNL     1      -4.967  12.633  18.812  0.00  0.00    +0.000 HD
ENDBRANCH  14  16
ENDBRANCH   6  11
BRANCH   1  27
ATOM     27  O   UNL     1       3.465   5.291  18.916  0.00  0.00    +0.000 OA
BRANCH  27  28
ATOM     28  C   UNL     1       3.210   4.579  17.766  0.00  0.00    +0.000 C 
BRANCH  28  29
ATOM     29  C   UNL     1       1.771   4.084  17.722  0.00  0.00    +0.000 C 
BRANCH  29  30
ATOM     30  C   UNL     1       1.666   2.848  18.618  0.00  0.00    +0.000 C 
BRANCH  30  32
ATOM     31  C   UNL     1       1.464   2.797  21.106  0.00  0.00    +0.000 C 
ATOM     32  C   UNL     1       0.726   3.070  19.798  0.00  0.00    +0.000 C 
ENDBRANCH  30  32
ENDBRANCH  29  30
ENDBRANCH  28  29
ENDBRANCH  27  28
ENDBRANCH   1  27
TORSDOF 7
ENDMDL
MODEL 5
REMARK VINA RESULT:      -8.3      3.258      4.703
REMARK  Name = 
REMARK  8 active torsions:
REMARK  status: ('A' for Active; 'I' for Inactive)
REMARK    1  A    between atoms: C_1  and  C_2
REMARK    2  A    between atoms: C_2  and  C_3
REMARK    3  A    between atoms: C_3  and  C_4
REMARK    4  A    between atoms: C_4  and  C_5
REMARK    5  A    between atoms: C_5  and  O_6
REMARK    6  A    between atoms: O_6  and  C_7
REMARK    7  A    between atoms: C_12  and  C_13
REMARK    8  A    between atoms: C_16  and  C_17
REMARK                            x       y       z     vdW  Elec       q    Type
REMARK                         _______ _______ _______ _____ _____    ______ ____
ROOT
ATOM      1  C   UNL     1       2.696   5.130  18.561  0.00  0.00    +0.000 A 
ATOM      2  C   UNL     1       2.423   5.049  19.946  0.00  0.00    +0.000 A 
ATOM      3  C   UNL     1       1.982   6.165  20.649  0.00  0.00    +0.000 A 
ATOM      4  C   UNL     1       1.802   7.382  19.989  0.00  0.00    +0.000 A 
ATOM      5  C   UNL     1       1.343   8.499  20.695  0.00  0.00    +0.000 A 
ATOM      6  C   UNL     1       1.142   9.721  20.038  0.00  0.00    +0.000 A 
ATOM      7  C   UNL     1       1.419   9.819  18.664  0.00  0.00    +0.000 A 
ATOM      8  C   UNL     1       1.883   8.709  17.952  0.00  0.00    +0.000 A 
ATOM      9  C   UNL     1       2.075   7.483  18.605  0.00  0.00    +0.000 A 
ATOM     10  C   UNL     1       2.523   6.354  17.902  0.00  0.00    +0.000 A 
ENDROOT
BRANCH   6  11
ATOM     11  C   UNL     1       0.637  10.885  20.791  0.00  0.00    +0.000 A 
ATOM     12  N   UNL     1       1.361  11.978  21.106  0.00  0.00    +0.000 NA
ATOM     13  O   UNL     1       0.545  12.767  21.743  0.00  0.00    +0.000 OA
ATOM     14  C   UNL     1      -0.634  12.195  21.828  0.00  0.00    +0.000 A 
ATOM     15  N   UNL     1      -0.629  10.990  21.235  0.00  0.00    +0.000 NA
BRANCH  14  16
ATOM     16  C   UNL     1      -1.851  12.784  22.473  0.00  0.00    +0.000 C 
ATOM     17  C   UNL     1      -2.408  11.846  23.542  0.00  0.00    +0.000 C 
ATOM     18  C   UNL     1      -3.761  12.483  23.782  0.00  0.00    +0.000 C 
ATOM     19  C   UNL     1      -4.226  12.735  22.350  0.00  0.00    +0.000 C 
ATOM     20  N   UNL     1      -3.003  12.994  21.607  0.00  0.00    +0.000 N 
ATOM     21  C   UNL     1      -2.984  13.162  20.174  0.00  0.00    +0.000 C 
ATOM     22  N   UNL     1      -4.040  12.934  19.469  0.00  0.00    +0.000 NA
ATOM     23  N   UNL     1      -1.813  13.585  19.493  0.00  0.00    +0.000 N 
ATOM     24  H   UNL     1      -4.932  12.616  19.869  0.00  0.00    +0.000 HD
ATOM     25  H   UNL     1      -0.974  13.901  19.991  0.00  0.00    +0.000 HD
ATOM     26  H   UNL     1      -1.818  13.661  18.462  0.00  0.00    +0.000 HD
ENDBRANCH  14  16
ENDBRANCH   6  11
BRANCH   1  27
ATOM     27  O   UNL     1       3.118   4.052  17.851  0.00  0.00    +0.000 OA
BRANCH  27  28
ATOM     28  C   UNL     1       4.377   3.510  17.980  0.00  0.00    +0.000 C 
BRANCH  28  29
ATOM     29  C   UNL     1       5.423   4.346  17.256  0.00  0.00    +0.000 C 
BRANCH  29  30
ATOM     30  C   UNL     1       6.472   4.786  18.281  0.00  0.00    +0.000 C 
BRANCH  30  32
ATOM     31  C   UNL     1       5.998   6.943  17.118  0.00  0.00    +0.000 C 
ATOM     32  C   UNL     1       6.983   6.197  18.014  0.00  0.00    +0.000 C 
ENDBRANCH  30  32
ENDBRANCH  29  30
ENDBRANCH  28  29
ENDBRANCH  27  28
ENDBRANCH   1  27
TORSDOF 7
ENDMDL
MODEL 6
REMARK VINA RESULT:      -8.3      3.998      6.583
REMARK  Name = 
REMARK  8 active torsions:
REMARK  status: ('A' for Active; 'I' for Inactive)
REMARK    1  A    between atoms: C_1  and  C_2
REMARK    2  A    between atoms: C_2  and  C_3
REMARK    3  A    between atoms: C_3  and  C_4
REMARK    4  A    between atoms: C_4  and  C_5
REMARK    5  A    between atoms: C_5  and  O_6
REMARK    6  A    between atoms: O_6  and  C_7
REMARK    7  A    between atoms: C_12  and  C_13
REMARK    8  A    between atoms: C_16  and  C_17
REMARK                            x       y       z     vdW  Elec       q    Type
REMARK                         _______ _______ _______ _____ _____    ______ ____
ROOT
ATOM      1  C   UNL     1       2.326   7.066  19.607  0.00  0.00    +0.000 A 
ATOM      2  C   UNL     1       1.761   7.004  20.902  0.00  0.00    +0.000 A 
ATOM      3  C   UNL     1       0.939   8.024  21.366  0.00  0.00    +0.000 A 
ATOM      4  C   UNL     1       0.659   9.124  20.553  0.00  0.00    +0.000 A 
ATOM      5  C   UNL     1      -0.182  10.141  21.017  0.00  0.00    +0.000 A 
ATOM      6  C   UNL     1      -0.483  11.240  20.201  0.00  0.00    +0.000 A 
ATOM      7  C   UNL     1       0.078  11.320  18.915  0.00  0.00    +0.000 A 
ATOM      8  C   UNL     1       0.924  10.310  18.446  0.00  0.00    +0.000 A 
ATOM      9  C   UNL     1       1.219   9.204  19.257  0.00  0.00    +0.000 A 
ATOM     10  C   UNL     1       2.051   8.173  18.795  0.00  0.00    +0.000 A 
ENDROOT
BRANCH   6  11
ATOM     11  C   UNL     1      -1.388  12.295  20.696  0.00  0.00    +0.000 A 
ATOM     12  N   UNL     1      -2.413  12.827  20.000  0.00  0.00    +0.000 NA
ATOM     13  O   UNL     1      -2.965  13.695  20.797  0.00  0.00    +0.000 OA
ATOM     14  C   UNL     1      -2.314  13.712  21.937  0.00  0.00    +0.000 A 
ATOM     15  N   UNL     1      -1.297  12.836  21.926  0.00  0.00    +0.000 NA
BRANCH  14  16
ATOM     16  C   UNL     1      -2.645  14.566  23.123  0.00  0.00    +0.000 C 
ATOM     17  C   UNL     1      -1.377  14.962  23.878  0.00  0.00    +0.000 C 
ATOM     18  C   UNL     1      -1.982  15.498  25.159  0.00  0.00    +0.000 C 
ATOM     19  C   UNL     1      -3.020  14.422  25.468  0.00  0.00    +0.000 C 
ATOM     20  N   UNL     1      -3.449  13.941  24.164  0.00  0.00    +0.000 N 
ATOM     21  C   UNL     1      -4.345  12.821  24.004  0.00  0.00    +0.000 C 
ATOM     22  N   UNL     1      -4.685  12.098  25.017  0.00  0.00    +0.000 NA
ATOM     23  N   UNL     1      -4.886  12.480  22.738  0.00  0.00    +0.000 N 
ATOM     24  H   UNL     1      -4.339  12.260  25.972  0.00  0.00    +0.000 HD
ATOM     25  H   UNL     1      -4.762  13.075  21.911  0.00  0.00    +0.000 HD
ATOM     26  H   UNL     1      -5.497  11.650  22.647  0.00  0.00    +0.000 HD
ENDBRANCH  14  16
ENDBRANCH   6  11
BRANCH   1  27
ATOM     27  O   UNL     1       3.124   6.077  19.127  0.00  0.00    +0.000 OA
BRANCH  27  28
ATOM     28  C   UNL     1       2.970   5.526  17.874  0.00  0.00    +0.000 C 
BRANCH  28  29
ATOM     29  C   UNL     1       1.784   4.574  17.823  0.00  0.00    +0.000 C 
BRANCH  29  30
ATOM     30  C   UNL     1       2.026   3.458  18.841  0.00  0.00    +0.000 C 
BRANCH  30  32
ATOM     31  C   UNL     1       1.641   3.275  21.301  0.00  0.00    +0.000 C 
ATOM     32  C   UNL     1       0.970   3.440  19.941  0.00  0.00    +0.000 C 
ENDBRANCH  30  32
ENDBRANCH  29  30
ENDBRANCH  28  29
ENDBRANCH  27  28
ENDBRANCH   1  27
TORSDOF 7
ENDMDL
MODEL 7
REMARK VINA RESULT:      -8.2      3.126      5.529
REMARK  Name = 
REMARK  8 active torsions:
REMARK  status: ('A' for Active; 'I' for Inactive)
REMARK    1  A    between atoms: C_1  and  C_2
REMARK    2  A    between atoms: C_2  and  C_3
REMARK    3  A    between atoms: C_3  and  C_4
REMARK    4  A    between atoms: C_4  and  C_5
REMARK    5  A    between atoms: C_5  and  O_6
REMARK    6  A    between atoms: O_6  and  C_7
REMARK    7  A    between atoms: C_12  and  C_13
REMARK    8  A    between atoms: C_16  and  C_17
REMARK                            x       y       z     vdW  Elec       q    Type
REMARK                         _______ _______ _______ _____ _____    ______ ____
ROOT
ATOM      1  C   UNL     1       2.728   7.049  18.892  0.00  0.00    +0.000 A 
ATOM      2  C   UNL     1       2.495   8.015  17.886  0.00  0.00    +0.000 A 
ATOM      3  C   UNL     1       1.688   9.119  18.135  0.00  0.00    +0.000 A 
ATOM      4  C   UNL     1       1.097   9.286  19.389  0.00  0.00    +0.000 A 
ATOM      5  C   UNL     1       0.298  10.406  19.641  0.00  0.00    +0.000 A 
ATOM      6  C   UNL     1      -0.285  10.592  20.903  0.00  0.00    +0.000 A 
ATOM      7  C   UNL     1      -0.071   9.636  21.910  0.00  0.00    +0.000 A 
ATOM      8  C   UNL     1       0.722   8.510  21.663  0.00  0.00    +0.000 A 
ATOM      9  C   UNL     1       1.315   8.327  20.405  0.00  0.00    +0.000 A 
ATOM     10  C   UNL     1       2.129   7.214  20.147  0.00  0.00    +0.000 A 
ENDROOT
BRANCH   6  11
ATOM     11  C   UNL     1      -1.108  11.789  21.162  0.00  0.00    +0.000 A 
ATOM     12  N   UNL     1      -1.906  12.392  20.258  0.00  0.00    +0.000 NA
ATOM     13  O   UNL     1      -2.465  13.382  20.890  0.00  0.00    +0.000 OA
ATOM     14  C   UNL     1      -2.035  13.403  22.131  0.00  0.00    +0.000 A 
ATOM     15  N   UNL     1      -1.166  12.405  22.357  0.00  0.00    +0.000 NA
BRANCH  14  16
ATOM     16  C   UNL     1      -2.453  14.380  23.187  0.00  0.00    +0.000 C 
ATOM     17  C   UNL     1      -1.252  14.825  24.020  0.00  0.00    +0.000 C 
ATOM     18  C   UNL     1      -1.961  15.502  25.175  0.00  0.00    +0.000 C 
ATOM     19  C   UNL     1      -3.056  14.484  25.486  0.00  0.00    +0.000 C 
ATOM     20  N   UNL     1      -3.372  13.881  24.201  0.00  0.00    +0.000 N 
ATOM     21  C   UNL     1      -4.282  12.770  24.066  0.00  0.00    +0.000 C 
ATOM     22  N   UNL     1      -4.739  12.161  25.107  0.00  0.00    +0.000 NA
ATOM     23  N   UNL     1      -4.709  12.312  22.793  0.00  0.00    +0.000 N 
ATOM     24  H   UNL     1      -4.482  12.413  26.071  0.00  0.00    +0.000 HD
ATOM     25  H   UNL     1      -4.488  12.817  21.927  0.00  0.00    +0.000 HD
ATOM     26  H   UNL     1      -5.333  11.490  22.725  0.00  0.00    +0.000 HD
ENDBRANCH  14  16
ENDBRANCH   6  11
BRANCH   1  27
ATOM     27  O   UNL     1       3.521   5.968  18.676  0.00  0.00    +0.000 OA
BRANCH  27  28
ATOM     28  C   UNL     1       3.764   5.449  17.424  0.00  0.00    +0.000 C 
BRANCH  28  29
ATOM     29  C   UNL     1       5.256   5.322  17.151  0.00  0.00    +0.000 C 
BRANCH  29  30
ATOM     30  C   UNL     1       5.481   5.504  15.648  0.00  0.00    +0.000 C 
BRANCH  30  32
ATOM     31  C   UNL     1       5.986   3.893  13.809  0.00  0.00    +0.000 C 
ATOM     32  C   UNL     1       6.510   4.523  15.096  0.00  0.00    +0.000 C 
ENDBRANCH  30  32
ENDBRANCH  29  30
ENDBRANCH  28  29
ENDBRANCH  27  28
ENDBRANCH   1  27
TORSDOF 7
ENDMDL
MODEL 8
REMARK VINA RESULT:      -8.2      3.638      5.479
REMARK  Name = 
REMARK  8 active torsions:
REMARK  status: ('A' for Active; 'I' for Inactive)
REMARK    1  A    between atoms: C_1  and  C_2
REMARK    2  A    between atoms: C_2  and  C_3
REMARK    3  A    between atoms: C_3  and  C_4
REMARK    4  A    between atoms: C_4  and  C_5
REMARK    5  A    between atoms: C_5  and  O_6
REMARK    6  A    between atoms: O_6  and  C_7
REMARK    7  A    between atoms: C_12  and  C_13
REMARK    8  A    between atoms: C_16  and  C_17
REMARK                            x       y       z     vdW  Elec       q    Type
REMARK                         _______ _______ _______ _____ _____    ______ ____
ROOT
ATOM      1  C   UNL     1       3.340   6.174  18.766  0.00  0.00    +0.000 A 
ATOM      2  C   UNL     1       3.306   7.101  17.699  0.00  0.00    +0.000 A 
ATOM      3  C   UNL     1       2.558   8.269  17.797  0.00  0.00    +0.000 A 
ATOM      4  C   UNL     1       1.832   8.541  18.959  0.00  0.00    +0.000 A 
ATOM      5  C   UNL     1       1.094   9.724  19.061  0.00  0.00    +0.000 A 
ATOM      6  C   UNL     1       0.376  10.014  20.230  0.00  0.00    +0.000 A 
ATOM      7  C   UNL     1       0.392   9.098  21.295  0.00  0.00    +0.000 A 
ATOM      8  C   UNL     1       1.123   7.910  21.198  0.00  0.00    +0.000 A 
ATOM      9  C   UNL     1       1.851   7.622  20.034  0.00  0.00    +0.000 A 
ATOM     10  C   UNL     1       2.605   6.444  19.927  0.00  0.00    +0.000 A 
ENDROOT
BRANCH   6  11
ATOM     11  C   UNL     1      -0.382  11.277  20.332  0.00  0.00    +0.000 A 
ATOM     12  N   UNL     1      -0.485  12.200  19.356  0.00  0.00    +0.000 NA
ATOM     13  O   UNL     1      -1.251  13.135  19.838  0.00  0.00    +0.000 OA
ATOM     14  C   UNL     1      -1.607  12.816  21.061  0.00  0.00    +0.000 A 
ATOM     15  N   UNL     1      -1.079  11.637  21.426  0.00  0.00    +0.000 NA
BRANCH  14  16
ATOM     16  C   UNL     1      -2.499  13.624  21.953  0.00  0.00    +0.000 C 
ATOM     17  C   UNL     1      -2.141  13.406  23.422  0.00  0.00    +0.000 C 
ATOM     18  C   UNL     1      -3.349  14.028  24.090  0.00  0.00    +0.000 C 
ATOM     19  C   UNL     1      -4.483  13.440  23.253  0.00  0.00    +0.000 C 
ATOM     20  N   UNL     1      -3.917  13.289  21.923  0.00  0.00    +0.000 N 
ATOM     21  C   UNL     1      -4.627  12.646  20.843  0.00  0.00    +0.000 C 
ATOM     22  N   UNL     1      -5.743  12.037  21.059  0.00  0.00    +0.000 NA
ATOM     23  N   UNL     1      -4.129  12.665  19.514  0.00  0.00    +0.000 N 
ATOM     24  H   UNL     1      -6.178  11.961  21.987  0.00  0.00    +0.000 HD
ATOM     25  H   UNL     1      -3.316  13.228  19.242  0.00  0.00    +0.000 HD
ATOM     26  H   UNL     1      -4.641  12.164  18.768  0.00  0.00    +0.000 HD
ENDBRANCH  14  16
ENDBRANCH   6  11
BRANCH   1  27
ATOM     27  O   UNL     1       4.070   5.032  18.698  0.00  0.00    +0.000 OA
BRANCH  27  28
ATOM     28  C   UNL     1       3.690   3.937  17.955  0.00  0.00    +0.000 C 
BRANCH  28  29
ATOM     29  C   UNL     1       2.847   2.970  18.774  0.00  0.00    +0.000 C 
BRANCH  29  30
ATOM     30  C   UNL     1       3.517   2.793  20.139  0.00  0.00    +0.000 C 
BRANCH  30  32
ATOM     31  C   UNL     1       1.129   3.199  20.742  0.00  0.00    +0.000 C 
ATOM     32  C   UNL     1       2.519   2.888  21.288  0.00  0.00    +0.000 C 
ENDBRANCH  30  32
ENDBRANCH  29  30
ENDBRANCH  28  29
ENDBRANCH  27  28
ENDBRANCH   1  27
TORSDOF 7
ENDMDL
MODEL 9
REMARK VINA RESULT:      -8.2      2.765      4.569
REMARK  Name = 
REMARK  8 active torsions:
REMARK  status: ('A' for Active; 'I' for Inactive)
REMARK    1  A    between atoms: C_1  and  C_2
REMARK    2  A    between atoms: C_2  and  C_3
REMARK    3  A    between atoms: C_3  and  C_4
REMARK    4  A    between atoms: C_4  and  C_5
REMARK    5  A    between atoms: C_5  and  O_6
REMARK    6  A    between atoms: O_6  and  C_7
REMARK    7  A    between atoms: C_12  and  C_13
REMARK    8  A    between atoms: C_16  and  C_17
REMARK                            x       y       z     vdW  Elec       q    Type
REMARK                         _______ _______ _______ _____ _____    ______ ____
ROOT
ATOM      1  C   UNL     1       4.113   5.103  18.398  0.00  0.00    +0.000 A 
ATOM      2  C   UNL     1       3.542   4.887  19.673  0.00  0.00    +0.000 A 
ATOM      3  C   UNL     1       2.697   5.834  20.240  0.00  0.00    +0.000 A 
ATOM      4  C   UNL     1       2.399   7.011  19.551  0.00  0.00    +0.000 A 
ATOM      5  C   UNL     1       1.536   7.954  20.117  0.00  0.00    +0.000 A 
ATOM      6  C   UNL     1       1.217   9.131  19.425  0.00  0.00    +0.000 A 
ATOM      7  C   UNL     1       1.785   9.363  18.161  0.00  0.00    +0.000 A 
ATOM      8  C   UNL     1       2.654   8.428  17.590  0.00  0.00    +0.000 A 
ATOM      9  C   UNL     1       2.966   7.245  18.276  0.00  0.00    +0.000 A 
ATOM     10  C   UNL     1       3.821   6.287  17.710  0.00  0.00    +0.000 A 
ENDROOT
BRANCH   6  11
ATOM     11  C   UNL     1       0.288  10.107  20.026  0.00  0.00    +0.000 A 
ATOM     12  N   UNL     1      -0.797  10.623  19.414  0.00  0.00    +0.000 NA
ATOM     13  O   UNL     1      -1.348  11.415  20.287  0.00  0.00    +0.000 OA
ATOM     14  C   UNL     1      -0.641  11.401  21.392  0.00  0.00    +0.000 A 
ATOM     15  N   UNL     1       0.417  10.581  21.279  0.00  0.00    +0.000 NA
BRANCH  14  16
ATOM     16  C   UNL     1      -0.951  12.167  22.642  0.00  0.00    +0.000 C 
ATOM     17  C   UNL     1      -2.444  12.111  22.957  0.00  0.00    +0.000 C 
ATOM     18  C   UNL     1      -2.539  13.195  24.012  0.00  0.00    +0.000 C 
ATOM     19  C   UNL     1      -1.706  14.302  23.371  0.00  0.00    +0.000 C 
ATOM     20  N   UNL     1      -0.692  13.601  22.601  0.00  0.00    +0.000 N 
ATOM     21  C   UNL     1       0.237  14.283  21.733  0.00  0.00    +0.000 C 
ATOM     22  N   UNL     1       0.105  15.542  21.485  0.00  0.00    +0.000 NA
ATOM     23  N   UNL     1       1.325  13.601  21.130  0.00  0.00    +0.000 N 
ATOM     24  H   UNL     1      -0.655  16.119  21.867  0.00  0.00    +0.000 HD
ATOM     25  H   UNL     1       1.568  12.634  21.372  0.00  0.00    +0.000 HD
ATOM     26  H   UNL     1       1.954  14.108  20.483  0.00  0.00    +0.000 HD
ENDBRANCH  14  16
ENDBRANCH   6  11
BRANCH   1  27
ATOM     27  O   UNL     1       4.934   4.189  17.818  0.00  0.00    +0.000 OA
BRANCH  27  28
ATOM     28  C   UNL     1       5.397   4.304  16.526  0.00  0.00    +0.000 C 
BRANCH  28  29
ATOM     29  C   UNL     1       6.808   4.873  16.486  0.00  0.00    +0.000 C 
BRANCH  29  30
ATOM     30  C   UNL     1       7.455   4.635  17.853  0.00  0.00    +0.000 C 
BRANCH  30  32
ATOM     31  C   UNL     1       7.444   7.124  17.671  0.00  0.00    +0.000 C 
ATOM     32  C   UNL     1       7.791   5.939  18.568  0.00  0.00    +0.000 C 
ENDBRANCH  30  32
ENDBRANCH  29  30
ENDBRANCH  28  29
ENDBRANCH  27  28
ENDBRANCH   1  27
TORSDOF 7
ENDMDL
