MODEL 1
REMARK VINA RESULT:      -8.1      0.000      0.000
REMARK  Name = 
REMARK  11 active torsions:
REMARK  status: ('A' for Active; 'I' for Inactive)
REMARK    1  A    between atoms: C_1  and  O_2
REMARK    2  A    between atoms: O_2  and  C_3
REMARK    3  A    between atoms: C_5  and  C_6
REMARK    4  A    between atoms: C_6  and  C_8
REMARK    5  A    between atoms: C_12  and  C_13
REMARK    6  A    between atoms: C_16  and  C_17
REMARK    7  A    between atoms: C_18  and  O_19
REMARK    8  A    between atoms: C_23  and  O_24
REMARK    9  A    between atoms: O_24  and  C_25
REMARK   10  A    between atoms: C_26  and  O_27
REMARK   11  A    between atoms: O_27  and  C_28
REMARK                            x       y       z     vdW  Elec       q    Type
REMARK                         _______ _______ _______ _____ _____    ______ ____
ROOT
ATOM      1  C   UNL     1       1.075   9.508  19.380  0.00  0.00    +0.000 A 
ATOM      2  C   UNL     1       0.756   9.100  20.674  0.00  0.00    +0.000 A 
ATOM      3  C   UNL     1       1.186   7.862  21.140  0.00  0.00    +0.000 A 
ATOM      4  C   UNL     1       1.956   7.034  20.320  0.00  0.00    +0.000 A 
ATOM      5  C   UNL     1       2.323   7.416  19.015  0.00  0.00    +0.000 A 
ATOM      6  C   UNL     1       1.870   8.675  18.568  0.00  0.00    +0.000 A 
ENDROOT
BRANCH   5   7
ATOM      7  C   UNL     1       3.145   6.525  18.157  0.00  0.00    +0.000 A 
ATOM      8  C   UNL     1       2.928   5.139  18.107  0.00  0.00    +0.000 A 
ATOM      9  C   UNL     1       3.718   4.300  17.310  0.00  0.00    +0.000 A 
ATOM     10  C   UNL     1       4.755   4.819  16.526  0.00  0.00    +0.000 A 
ATOM     11  C   UNL     1       5.586   3.893  15.688  0.00  0.00    +0.000 C 
ATOM     12  C   UNL     1       4.970   6.196  16.559  0.00  0.00    +0.000 A 
ATOM     13  C   UNL     1       4.183   7.032  17.354  0.00  0.00    +0.000 A 
BRANCH  12  14
ATOM     14  O   UNL     1       5.951   6.813  15.833  0.00  0.00    +0.000 OA
ATOM     15  H   UNL     1       5.609   7.648  15.477  0.00  0.00    +0.000 HD
ENDBRANCH  12  14
ENDBRANCH   5   7
BRANCH   1  16
ATOM     16  C   UNL     1       0.590  10.846  18.929  0.00  0.00    +0.000 C 
ATOM     17  O   UNL     1       1.388  11.767  18.812  0.00  0.00    +0.000 OA
BRANCH  16  20
ATOM     18  C   UNL     1      -2.740  10.420  17.199  0.00  0.00    +0.000 A 
ATOM     19  C   UNL     1      -1.357  10.404  17.461  0.00  0.00    +0.000 A 
ATOM     20  C   UNL     1      -0.837  11.068  18.569  0.00  0.00    +0.000 A 
ATOM     21  C   UNL     1      -1.674  11.876  19.329  0.00  0.00    +0.000 A 
ATOM     22  C   UNL     1      -3.041  11.967  19.042  0.00  0.00    +0.000 A 
ATOM     23  C   UNL     1      -3.596  11.245  17.963  0.00  0.00    +0.000 A 
BRANCH  18  25
ATOM     24  C   UNL     1      -3.048  10.117  14.878  0.00  0.00    +0.000 C 
ATOM     25  O   UNL     1      -3.254   9.621  16.208  0.00  0.00    +0.000 OA
ENDBRANCH  18  25
BRANCH  22  26
ATOM     26  O   UNL     1      -3.679  12.773  19.955  0.00  0.00    +0.000 OA
ATOM     27  C   UNL     1      -3.284  12.752  21.318  0.00  0.00    +0.000 C 
ENDBRANCH  22  26
BRANCH  23  28
ATOM     28  O   UNL     1      -4.932  11.436  17.768  0.00  0.00    +0.000 OA
ATOM     29  C   UNL     1      -5.928  10.714  18.464  0.00  0.00    +0.000 C 
ENDBRANCH  23  28
ENDBRANCH  16  20
ENDBRANCH   1  16
TORSDOF 7
ENDMDL
MODEL 2
REMARK VINA RESULT:      -8.1      0.571      2.477
REMARK  Name = 
REMARK  11 active torsions:
REMARK  status: ('A' for Active; 'I' for Inactive)
REMARK    1  A    between atoms: C_1  and  O_2
REMARK    2  A    between atoms: O_2  and  C_3
REMARK    3  A    between atoms: C_5  and  C_6
REMARK    4  A    between atoms: C_6  and  C_8
REMARK    5  A    between atoms: C_12  and  C_13
REMARK    6  A    between atoms: C_16  and  C_17
REMARK    7  A    between atoms: C_18  and  O_19
REMARK    8  A    between atoms: C_23  and  O_24
REMARK    9  A    between atoms: O_24  and  C_25
REMARK   10  A    between atoms: C_26  and  O_27
REMARK   11  A    between atoms: O_27  and  C_28
REMARK                            x       y       z     vdW  Elec       q    Type
REMARK                         _______ _______ _______ _____ _____    ______ ____
ROOT
ATOM      1  C   UNL     1       1.146   9.256  19.194  0.00  0.00    +0.000 A 
ATOM      2  C   UNL     1       0.904   8.888  20.516  0.00  0.00    +0.000 A 
ATOM      3  C   UNL     1       1.425   7.698  21.014  0.00  0.00    +0.000 A 
ATOM      4  C   UNL     1       2.209   6.880  20.195  0.00  0.00    +0.000 A 
ATOM      5  C   UNL     1       2.499   7.226  18.861  0.00  0.00    +0.000 A 
ATOM      6  C   UNL     1       1.955   8.436  18.383  0.00  0.00    +0.000 A 
ENDROOT
BRANCH   5   7
ATOM      7  C   UNL     1       3.336   6.347  18.006  0.00  0.00    +0.000 A 
ATOM      8  C   UNL     1       3.045   4.984  17.836  0.00  0.00    +0.000 A 
ATOM      9  C   UNL     1       3.849   4.154  17.042  0.00  0.00    +0.000 A 
ATOM     10  C   UNL     1       4.975   4.660  16.382  0.00  0.00    +0.000 A 
ATOM     11  C   UNL     1       5.817   3.745  15.545  0.00  0.00    +0.000 C 
ATOM     12  C   UNL     1       5.265   6.016  16.534  0.00  0.00    +0.000 A 
ATOM     13  C   UNL     1       4.464   6.842  17.326  0.00  0.00    +0.000 A 
BRANCH  12  14
ATOM     14  O   UNL     1       6.336   6.619  15.936  0.00  0.00    +0.000 OA
ATOM     15  H   UNL     1       7.150   6.167  16.207  0.00  0.00    +0.000 HD
ENDBRANCH  12  14
ENDBRANCH   5   7
BRANCH   1  16
ATOM     16  C   UNL     1       0.564  10.544  18.710  0.00  0.00    +0.000 C 
ATOM     17  O   UNL     1       1.311  11.466  18.410  0.00  0.00    +0.000 OA
BRANCH  16  20
ATOM     18  C   UNL     1      -2.925  11.925  19.138  0.00  0.00    +0.000 A 
ATOM     19  C   UNL     1      -1.583  11.580  19.387  0.00  0.00    +0.000 A 
ATOM     20  C   UNL     1      -0.904  10.710  18.537  0.00  0.00    +0.000 A 
ATOM     21  C   UNL     1      -1.608  10.064  17.527  0.00  0.00    +0.000 A 
ATOM     22  C   UNL     1      -2.963  10.335  17.308  0.00  0.00    +0.000 A 
ATOM     23  C   UNL     1      -3.648  11.267  18.118  0.00  0.00    +0.000 A 
BRANCH  18  25
ATOM     24  C   UNL     1      -4.253  12.439  21.021  0.00  0.00    +0.000 C 
ATOM     25  O   UNL     1      -3.523  12.912  19.881  0.00  0.00    +0.000 OA
ENDBRANCH  18  25
BRANCH  22  26
ATOM     26  O   UNL     1      -3.433   9.628  16.225  0.00  0.00    +0.000 OA
ATOM     27  C   UNL     1      -3.196  10.104  14.910  0.00  0.00    +0.000 C 
ENDBRANCH  22  26
BRANCH  23  28
ATOM     28  O   UNL     1      -4.970  11.425  17.823  0.00  0.00    +0.000 OA
ATOM     29  C   UNL     1      -5.452  12.403  16.924  0.00  0.00    +0.000 C 
ENDBRANCH  23  28
ENDBRANCH  16  20
ENDBRANCH   1  16
TORSDOF 7
ENDMDL
MODEL 3
REMARK VINA RESULT:      -8.0      0.934      1.299
REMARK  Name = 
REMARK  11 active torsions:
REMARK  status: ('A' for Active; 'I' for Inactive)
REMARK    1  A    between atoms: C_1  and  O_2
REMARK    2  A    between atoms: O_2  and  C_3
REMARK    3  A    between atoms: C_5  and  C_6
REMARK    4  A    between atoms: C_6  and  C_8
REMARK    5  A    between atoms: C_12  and  C_13
REMARK    6  A    between atoms: C_16  and  C_17
REMARK    7  A    between atoms: C_18  and  O_19
REMARK    8  A    between atoms: C_23  and  O_24
REMARK    9  A    between atoms: O_24  and  C_25
REMARK   10  A    between atoms: C_26  and  O_27
REMARK   11  A    between atoms: O_27  and  C_28
REMARK                            x       y       z     vdW  Elec       q    Type
REMARK                         _______ _______ _______ _____ _____    ______ ____
ROOT
ATOM      1  C   UNL     1       1.192   9.439  19.272  0.00  0.00    +0.000 A 
ATOM      2  C   UNL     1       0.846   9.008  20.553  0.00  0.00    +0.000 A 
ATOM      3  C   UNL     1       1.270   7.764  21.007  0.00  0.00    +0.000 A 
ATOM      4  C   UNL     1       2.060   6.951  20.189  0.00  0.00    +0.000 A 
ATOM      5  C   UNL     1       2.454   7.356  18.899  0.00  0.00    +0.000 A 
ATOM      6  C   UNL     1       2.007   8.622  18.463  0.00  0.00    +0.000 A 
ENDROOT
BRANCH   5   7
ATOM      7  C   UNL     1       3.295   6.482  18.044  0.00  0.00    +0.000 A 
ATOM      8  C   UNL     1       4.254   7.008  17.163  0.00  0.00    +0.000 A 
ATOM      9  C   UNL     1       5.033   6.179  16.345  0.00  0.00    +0.000 A 
ATOM     10  C   UNL     1       4.886   4.788  16.381  0.00  0.00    +0.000 A 
ATOM     11  C   UNL     1       5.731   3.929  15.488  0.00  0.00    +0.000 C 
ATOM     12  C   UNL     1       3.946   4.254  17.262  0.00  0.00    +0.000 A 
ATOM     13  C   UNL     1       3.169   5.081  18.077  0.00  0.00    +0.000 A 
BRANCH  12  14
ATOM     14  O   UNL     1       3.719   2.912  17.384  0.00  0.00    +0.000 OA
ATOM     15  H   UNL     1       3.762   2.499  16.507  0.00  0.00    +0.000 HD
ENDBRANCH  12  14
ENDBRANCH   5   7
BRANCH   1  16
ATOM     16  C   UNL     1       0.713  10.783  18.834  0.00  0.00    +0.000 C 
ATOM     17  O   UNL     1       1.520  11.694  18.697  0.00  0.00    +0.000 OA
BRANCH  16  20
ATOM     18  C   UNL     1      -2.666  10.398  17.192  0.00  0.00    +0.000 A 
ATOM     19  C   UNL     1      -1.277  10.363  17.418  0.00  0.00    +0.000 A 
ATOM     20  C   UNL     1      -0.719  11.024  18.511  0.00  0.00    +0.000 A 
ATOM     21  C   UNL     1      -1.526  11.845  19.289  0.00  0.00    +0.000 A 
ATOM     22  C   UNL     1      -2.898  11.955  19.037  0.00  0.00    +0.000 A 
ATOM     23  C   UNL     1      -3.491  11.236  17.975  0.00  0.00    +0.000 A 
BRANCH  18  25
ATOM     24  C   UNL     1      -3.142  10.148  14.894  0.00  0.00    +0.000 C 
ATOM     25  O   UNL     1      -3.216   9.603  16.218  0.00  0.00    +0.000 OA
ENDBRANCH  18  25
BRANCH  22  26
ATOM     26  O   UNL     1      -3.501  12.772  19.964  0.00  0.00    +0.000 OA
ATOM     27  C   UNL     1      -2.711  13.482  20.904  0.00  0.00    +0.000 C 
ENDBRANCH  22  26
BRANCH  23  28
ATOM     28  O   UNL     1      -4.828  11.446  17.814  0.00  0.00    +0.000 OA
ATOM     29  C   UNL     1      -5.817  10.665  18.455  0.00  0.00    +0.000 C 
ENDBRANCH  23  28
ENDBRANCH  16  20
ENDBRANCH   1  16
TORSDOF 7
ENDMDL
MODEL 4
REMARK VINA RESULT:      -7.9      4.743      8.119
REMARK  Name = 
REMARK  11 active torsions:
REMARK  status: ('A' for Active; 'I' for Inactive)
REMARK    1  A    between atoms: C_1  and  O_2
REMARK    2  A    between atoms: O_2  and  C_3
REMARK    3  A    between atoms: C_5  and  C_6
REMARK    4  A    between atoms: C_6  and  C_8
REMARK    5  A    between atoms: C_12  and  C_13
REMARK    6  A    between atoms: C_16  and  C_17
REMARK    7  A    between atoms: C_18  and  O_19
REMARK    8  A    between atoms: C_23  and  O_24
REMARK    9  A    between atoms: O_24  and  C_25
REMARK   10  A    between atoms: C_26  and  O_27
REMARK   11  A    between atoms: O_27  and  C_28
REMARK                            x       y       z     vdW  Elec       q    Type
REMARK                         _______ _______ _______ _____ _____    ______ ____
ROOT
ATOM      1  C   UNL     1       6.404   6.893  17.502  0.00  0.00    +0.000 A 
ATOM      2  C   UNL     1       7.028   5.910  18.269  0.00  0.00    +0.000 A 
ATOM      3  C   UNL     1       8.169   6.219  19.001  0.00  0.00    +0.000 A 
ATOM      4  C   UNL     1       8.681   7.520  18.985  0.00  0.00    +0.000 A 
ATOM      5  C   UNL     1       8.069   8.549  18.244  0.00  0.00    +0.000 A 
ATOM      6  C   UNL     1       6.914   8.206  17.509  0.00  0.00    +0.000 A 
ENDROOT
BRANCH   5   7
ATOM      7  C   UNL     1       8.624   9.925  18.240  0.00  0.00    +0.000 A 
ATOM      8  C   UNL     1       9.816  10.246  18.910  0.00  0.00    +0.000 A 
ATOM      9  C   UNL     1      10.326  11.551  18.918  0.00  0.00    +0.000 A 
ATOM     10  C   UNL     1       9.664  12.587  18.250  0.00  0.00    +0.000 A 
ATOM     11  C   UNL     1      10.234  13.974  18.283  0.00  0.00    +0.000 C 
ATOM     12  C   UNL     1       8.487  12.277  17.570  0.00  0.00    +0.000 A 
ATOM     13  C   UNL     1       7.978  10.976  17.562  0.00  0.00    +0.000 A 
BRANCH  12  14
ATOM     14  O   UNL     1       7.759  13.207  16.881  0.00  0.00    +0.000 OA
ATOM     15  H   UNL     1       8.360  13.765  16.364  0.00  0.00    +0.000 HD
ENDBRANCH  12  14
ENDBRANCH   5   7
BRANCH   1  16
ATOM     16  C   UNL     1       5.180   6.509  16.736  0.00  0.00    +0.000 C 
ATOM     17  O   UNL     1       5.136   6.714  15.530  0.00  0.00    +0.000 OA
BRANCH  16  20
ATOM     18  C   UNL     1       2.773   3.784  17.757  0.00  0.00    +0.000 A 
ATOM     19  C   UNL     1       3.711   4.534  17.023  0.00  0.00    +0.000 A 
ATOM     20  C   UNL     1       4.033   5.835  17.403  0.00  0.00    +0.000 A 
ATOM     21  C   UNL     1       3.308   6.442  18.421  0.00  0.00    +0.000 A 
ATOM     22  C   UNL     1       2.318   5.740  19.116  0.00  0.00    +0.000 A 
ATOM     23  C   UNL     1       2.027   4.397  18.789  0.00  0.00    +0.000 A 
BRANCH  18  25
ATOM     24  C   UNL     1       3.482   1.574  18.184  0.00  0.00    +0.000 C 
ATOM     25  O   UNL     1       2.597   2.452  17.476  0.00  0.00    +0.000 OA
ENDBRANCH  18  25
BRANCH  22  26
ATOM     26  O   UNL     1       1.777   6.517  20.114  0.00  0.00    +0.000 OA
ATOM     27  C   UNL     1       1.861   7.931  20.036  0.00  0.00    +0.000 C 
ENDBRANCH  22  26
BRANCH  23  28
ATOM     28  O   UNL     1       1.025   3.830  19.519  0.00  0.00    +0.000 OA
ATOM     29  C   UNL     1       1.247   3.135  20.731  0.00  0.00    +0.000 C 
ENDBRANCH  23  28
ENDBRANCH  16  20
ENDBRANCH   1  16
TORSDOF 7
ENDMDL
MODEL 5
REMARK VINA RESULT:      -7.9      0.974      2.791
REMARK  Name = 
REMARK  11 active torsions:
REMARK  status: ('A' for Active; 'I' for Inactive)
REMARK    1  A    between atoms: C_1  and  O_2
REMARK    2  A    between atoms: O_2  and  C_3
REMARK    3  A    between atoms: C_5  and  C_6
REMARK    4  A    between atoms: C_6  and  C_8
REMARK    5  A    between atoms: C_12  and  C_13
REMARK    6  A    between atoms: C_16  and  C_17
REMARK    7  A    between atoms: C_18  and  O_19
REMARK    8  A    between atoms: C_23  and  O_24
REMARK    9  A    between atoms: O_24  and  C_25
REMARK   10  A    between atoms: C_26  and  O_27
REMARK   11  A    between atoms: O_27  and  C_28
REMARK                            x       y       z     vdW  Elec       q    Type
REMARK                         _______ _______ _______ _____ _____    ______ ____
ROOT
ATOM      1  C   UNL     1       0.937   9.669  19.298  0.00  0.00    +0.000 A 
ATOM      2  C   UNL     1       0.689   9.296  20.619  0.00  0.00    +0.000 A 
ATOM      3  C   UNL     1       1.208   8.105  21.115  0.00  0.00    +0.000 A 
ATOM      4  C   UNL     1       1.997   7.290  20.298  0.00  0.00    +0.000 A 
ATOM      5  C   UNL     1       2.293   7.640  18.966  0.00  0.00    +0.000 A 
ATOM      6  C   UNL     1       1.750   8.852  18.489  0.00  0.00    +0.000 A 
ENDROOT
BRANCH   5   7
ATOM      7  C   UNL     1       3.134   6.764  18.113  0.00  0.00    +0.000 A 
ATOM      8  C   UNL     1       4.161   7.280  17.306  0.00  0.00    +0.000 A 
ATOM      9  C   UNL     1       4.941   6.451  16.488  0.00  0.00    +0.000 A 
ATOM     10  C   UNL     1       4.724   5.069  16.450  0.00  0.00    +0.000 A 
ATOM     11  C   UNL     1       5.572   4.211  15.559  0.00  0.00    +0.000 C 
ATOM     12  C   UNL     1       3.715   4.544  17.257  0.00  0.00    +0.000 A 
ATOM     13  C   UNL     1       2.938   5.372  18.071  0.00  0.00    +0.000 A 
BRANCH  12  14
ATOM     14  O   UNL     1       3.417   3.211  17.302  0.00  0.00    +0.000 OA
ATOM     15  H   UNL     1       3.647   2.803  16.453  0.00  0.00    +0.000 HD
ENDBRANCH  12  14
ENDBRANCH   5   7
BRANCH   1  16
ATOM     16  C   UNL     1       0.357  10.958  18.816  0.00  0.00    +0.000 C 
ATOM     17  O   UNL     1       1.106  11.869  18.489  0.00  0.00    +0.000 OA
BRANCH  16  20
ATOM     18  C   UNL     1      -3.136  12.248  19.448  0.00  0.00    +0.000 A 
ATOM     19  C   UNL     1      -1.791  11.881  19.640  0.00  0.00    +0.000 A 
ATOM     20  C   UNL     1      -1.114  11.137  18.676  0.00  0.00    +0.000 A 
ATOM     21  C   UNL     1      -1.821  10.629  17.593  0.00  0.00    +0.000 A 
ATOM     22  C   UNL     1      -3.179  10.920  17.420  0.00  0.00    +0.000 A 
ATOM     23  C   UNL     1      -3.863  11.730  18.353  0.00  0.00    +0.000 A 
BRANCH  18  25
ATOM     24  C   UNL     1      -3.729  12.692  21.689  0.00  0.00    +0.000 C 
ATOM     25  O   UNL     1      -3.733  13.123  20.321  0.00  0.00    +0.000 OA
ENDBRANCH  18  25
BRANCH  22  26
ATOM     26  O   UNL     1      -3.653  10.363  16.255  0.00  0.00    +0.000 OA
ATOM     27  C   UNL     1      -2.772  10.138  15.166  0.00  0.00    +0.000 C 
ENDBRANCH  22  26
BRANCH  23  28
ATOM     28  O   UNL     1      -5.187  11.919  18.090  0.00  0.00    +0.000 OA
ATOM     29  C   UNL     1      -6.214  11.163  18.701  0.00  0.00    +0.000 C 
ENDBRANCH  23  28
ENDBRANCH  16  20
ENDBRANCH   1  16
TORSDOF 7
ENDMDL
MODEL 6
REMARK VINA RESULT:      -7.7      4.790      8.161
REMARK  Name = 
REMARK  11 active torsions:
REMARK  status: ('A' for Active; 'I' for Inactive)
REMARK    1  A    between atoms: C_1  and  O_2
REMARK    2  A    between atoms: O_2  and  C_3
REMARK    3  A    between atoms: C_5  and  C_6
REMARK    4  A    between atoms: C_6  and  C_8
REMARK    5  A    between atoms: C_12  and  C_13
REMARK    6  A    between atoms: C_16  and  C_17
REMARK    7  A    between atoms: C_18  and  O_19
REMARK    8  A    between atoms: C_23  and  O_24
REMARK    9  A    between atoms: O_24  and  C_25
REMARK   10  A    between atoms: C_26  and  O_27
REMARK   11  A    between atoms: O_27  and  C_28
REMARK                            x       y       z     vdW  Elec       q    Type
REMARK                         _______ _______ _______ _____ _____    ______ ____
ROOT
ATOM      1  C   UNL     1       6.406   6.872  17.530  0.00  0.00    +0.000 A 
ATOM      2  C   UNL     1       7.055   5.867  18.246  0.00  0.00    +0.000 A 
ATOM      3  C   UNL     1       8.203   6.161  18.973  0.00  0.00    +0.000 A 
ATOM      4  C   UNL     1       8.697   7.468  19.005  0.00  0.00    +0.000 A 
ATOM      5  C   UNL     1       8.060   8.519  18.318  0.00  0.00    +0.000 A 
ATOM      6  C   UNL     1       6.899   8.191  17.585  0.00  0.00    +0.000 A 
ENDROOT
BRANCH   5   7
ATOM      7  C   UNL     1       8.596   9.902  18.364  0.00  0.00    +0.000 A 
ATOM      8  C   UNL     1       8.114  10.913  17.516  0.00  0.00    +0.000 A 
ATOM      9  C   UNL     1       8.637  12.213  17.552  0.00  0.00    +0.000 A 
ATOM     10  C   UNL     1       9.661  12.553  18.443  0.00  0.00    +0.000 A 
ATOM     11  C   UNL     1      10.202  13.952  18.452  0.00  0.00    +0.000 C 
ATOM     12  C   UNL     1      10.137  11.560  19.299  0.00  0.00    +0.000 A 
ATOM     13  C   UNL     1       9.617  10.264  19.262  0.00  0.00    +0.000 A 
BRANCH  12  14
ATOM     14  O   UNL     1      11.131  11.779  20.211  0.00  0.00    +0.000 OA
ATOM     15  H   UNL     1      11.992  11.702  19.770  0.00  0.00    +0.000 HD
ENDBRANCH  12  14
ENDBRANCH   5   7
BRANCH   1  16
ATOM     16  C   UNL     1       5.177   6.504  16.766  0.00  0.00    +0.000 C 
ATOM     17  O   UNL     1       5.134   6.707  15.560  0.00  0.00    +0.000 OA
BRANCH  16  20
ATOM     18  C   UNL     1       2.724   3.817  17.779  0.00  0.00    +0.000 A 
ATOM     19  C   UNL     1       3.671   4.555  17.045  0.00  0.00    +0.000 A 
ATOM     20  C   UNL     1       4.022   5.846  17.435  0.00  0.00    +0.000 A 
ATOM     21  C   UNL     1       3.317   6.457  18.465  0.00  0.00    +0.000 A 
ATOM     22  C   UNL     1       2.318   5.767  19.161  0.00  0.00    +0.000 A 
ATOM     23  C   UNL     1       1.998   4.434  18.823  0.00  0.00    +0.000 A 
BRANCH  18  25
ATOM     24  C   UNL     1       3.476   1.599  18.071  0.00  0.00    +0.000 C 
ATOM     25  O   UNL     1       2.519   2.492  17.486  0.00  0.00    +0.000 OA
ENDBRANCH  18  25
BRANCH  22  26
ATOM     26  O   UNL     1       1.801   6.545  20.171  0.00  0.00    +0.000 OA
ATOM     27  C   UNL     1       1.838   7.959  20.067  0.00  0.00    +0.000 C 
ENDBRANCH  22  26
BRANCH  23  28
ATOM     28  O   UNL     1       0.991   3.879  19.555  0.00  0.00    +0.000 OA
ATOM     29  C   UNL     1       1.213   3.100  20.713  0.00  0.00    +0.000 C 
ENDBRANCH  23  28
ENDBRANCH  16  20
ENDBRANCH   1  16
TORSDOF 7
ENDMDL
MODEL 7
REMARK VINA RESULT:      -7.6      3.326      9.220
REMARK  Name = 
REMARK  11 active torsions:
REMARK  status: ('A' for Active; 'I' for Inactive)
REMARK    1  A    between atoms: C_1  and  O_2
REMARK    2  A    between atoms: O_2  and  C_3
REMARK    3  A    between atoms: C_5  and  C_6
REMARK    4  A    between atoms: C_6  and  C_8
REMARK    5  A    between atoms: C_12  and  C_13
REMARK    6  A    between atoms: C_16  and  C_17
REMARK    7  A    between atoms: C_18  and  O_19
REMARK    8  A    between atoms: C_23  and  O_24
REMARK    9  A    between atoms: O_24  and  C_25
REMARK   10  A    between atoms: C_26  and  O_27
REMARK   11  A    between atoms: O_27  and  C_28
REMARK                            x       y       z     vdW  Elec       q    Type
REMARK                         _______ _______ _______ _____ _____    ______ ____
ROOT
ATOM      1  C   UNL     1       3.349   4.195  18.674  0.00  0.00    +0.000 A 
ATOM      2  C   UNL     1       3.129   3.604  19.917  0.00  0.00    +0.000 A 
ATOM      3  C   UNL     1       2.561   4.345  20.949  0.00  0.00    +0.000 A 
ATOM      4  C   UNL     1       2.192   5.676  20.735  0.00  0.00    +0.000 A 
ATOM      5  C   UNL     1       2.373   6.304  19.487  0.00  0.00    +0.000 A 
ATOM      6  C   UNL     1       2.953   5.530  18.461  0.00  0.00    +0.000 A 
ENDROOT
BRANCH   5   7
ATOM      7  C   UNL     1       1.972   7.718  19.276  0.00  0.00    +0.000 A 
ATOM      8  C   UNL     1       2.186   8.374  18.053  0.00  0.00    +0.000 A 
ATOM      9  C   UNL     1       1.822   9.714  17.864  0.00  0.00    +0.000 A 
ATOM     10  C   UNL     1       1.225  10.450  18.894  0.00  0.00    +0.000 A 
ATOM     11  C   UNL     1       0.853  11.884  18.662  0.00  0.00    +0.000 C 
ATOM     12  C   UNL     1       0.996   9.804  20.109  0.00  0.00    +0.000 A 
ATOM     13  C   UNL     1       1.359   8.468  20.296  0.00  0.00    +0.000 A 
BRANCH  12  14
ATOM     14  O   UNL     1       0.417  10.422  21.182  0.00  0.00    +0.000 OA
ATOM     15  H   UNL     1       0.291   9.775  21.894  0.00  0.00    +0.000 HD
ENDBRANCH  12  14
ENDBRANCH   5   7
BRANCH   1  16
ATOM     16  C   UNL     1       3.959   3.355  17.600  0.00  0.00    +0.000 C 
ATOM     17  O   UNL     1       3.518   2.233  17.390  0.00  0.00    +0.000 OA
BRANCH  16  20
ATOM     18  C   UNL     1       6.138   3.903  14.564  0.00  0.00    +0.000 A 
ATOM     19  C   UNL     1       5.249   3.316  15.484  0.00  0.00    +0.000 A 
ATOM     20  C   UNL     1       5.060   3.877  16.745  0.00  0.00    +0.000 A 
ATOM     21  C   UNL     1       5.869   4.933  17.145  0.00  0.00    +0.000 A 
ATOM     22  C   UNL     1       6.813   5.486  16.272  0.00  0.00    +0.000 A 
ATOM     23  C   UNL     1       6.969   4.973  14.966  0.00  0.00    +0.000 A 
BRANCH  18  25
ATOM     24  C   UNL     1       4.957   3.598  12.543  0.00  0.00    +0.000 C 
ATOM     25  O   UNL     1       6.182   3.442  13.272  0.00  0.00    +0.000 OA
ENDBRANCH  18  25
BRANCH  22  26
ATOM     26  O   UNL     1       7.454   6.553  16.858  0.00  0.00    +0.000 OA
ATOM     27  C   UNL     1       7.710   6.547  18.253  0.00  0.00    +0.000 C 
ENDBRANCH  22  26
BRANCH  23  28
ATOM     28  O   UNL     1       7.937   5.578  14.220  0.00  0.00    +0.000 OA
ATOM     29  C   UNL     1       8.045   5.426  12.819  0.00  0.00    +0.000 C 
ENDBRANCH  23  28
ENDBRANCH  16  20
ENDBRANCH   1  16
TORSDOF 7
ENDMDL
MODEL 8
REMARK VINA RESULT:      -7.6      3.501      9.377
REMARK  Name = 
REMARK  11 active torsions:
REMARK  status: ('A' for Active; 'I' for Inactive)
REMARK    1  A    between atoms: C_1  and  O_2
REMARK    2  A    between atoms: O_2  and  C_3
REMARK    3  A    between atoms: C_5  and  C_6
REMARK    4  A    between atoms: C_6  and  C_8
REMARK    5  A    between atoms: C_12  and  C_13
REMARK    6  A    between atoms: C_16  and  C_17
REMARK    7  A    between atoms: C_18  and  O_19
REMARK    8  A    between atoms: C_23  and  O_24
REMARK    9  A    between atoms: O_24  and  C_25
REMARK   10  A    between atoms: C_26  and  O_27
REMARK   11  A    between atoms: O_27  and  C_28
REMARK                            x       y       z     vdW  Elec       q    Type
REMARK                         _______ _______ _______ _____ _____    ______ ____
ROOT
ATOM      1  C   UNL     1       2.931   4.828  18.255  0.00  0.00    +0.000 A 
ATOM      2  C   UNL     1       2.818   4.161  19.474  0.00  0.00    +0.000 A 
ATOM      3  C   UNL     1       2.407   4.851  20.609  0.00  0.00    +0.000 A 
ATOM      4  C   UNL     1       2.087   6.209  20.527  0.00  0.00    +0.000 A 
ATOM      5  C   UNL     1       2.163   6.916  19.311  0.00  0.00    +0.000 A 
ATOM      6  C   UNL     1       2.586   6.191  18.176  0.00  0.00    +0.000 A 
ENDROOT
BRANCH   5   7
ATOM      7  C   UNL     1       1.817   8.358  19.240  0.00  0.00    +0.000 A 
ATOM      8  C   UNL     1       0.941   8.956  20.160  0.00  0.00    +0.000 A 
ATOM      9  C   UNL     1       0.604  10.314  20.078  0.00  0.00    +0.000 A 
ATOM     10  C   UNL     1       1.135  11.128  19.071  0.00  0.00    +0.000 A 
ATOM     11  C   UNL     1       0.749  12.575  19.007  0.00  0.00    +0.000 C 
ATOM     12  C   UNL     1       2.017  10.546  18.159  0.00  0.00    +0.000 A 
ATOM     13  C   UNL     1       2.352   9.193  18.242  0.00  0.00    +0.000 A 
BRANCH  12  14
ATOM     14  O   UNL     1       2.598  11.245  17.138  0.00  0.00    +0.000 OA
ATOM     15  H   UNL     1       1.983  11.287  16.389  0.00  0.00    +0.000 HD
ENDBRANCH  12  14
ENDBRANCH   5   7
BRANCH   1  16
ATOM     16  C   UNL     1       3.375   4.040  17.066  0.00  0.00    +0.000 C 
ATOM     17  O   UNL     1       2.715   3.074  16.704  0.00  0.00    +0.000 OA
BRANCH  16  20
ATOM     18  C   UNL     1       6.650   5.704  16.193  0.00  0.00    +0.000 A 
ATOM     19  C   UNL     1       5.405   5.435  16.790  0.00  0.00    +0.000 A 
ATOM     20  C   UNL     1       4.574   4.438  16.281  0.00  0.00    +0.000 A 
ATOM     21  C   UNL     1       4.917   3.817  15.087  0.00  0.00    +0.000 A 
ATOM     22  C   UNL     1       6.116   4.123  14.434  0.00  0.00    +0.000 A 
ATOM     23  C   UNL     1       7.002   5.081  14.974  0.00  0.00    +0.000 A 
BRANCH  18  25
ATOM     24  C   UNL     1       7.553   6.464  18.237  0.00  0.00    +0.000 C 
ATOM     25  O   UNL     1       7.527   6.563  16.807  0.00  0.00    +0.000 OA
ENDBRANCH  18  25
BRANCH  22  26
ATOM     26  O   UNL     1       6.271   3.348  13.308  0.00  0.00    +0.000 OA
ATOM     27  C   UNL     1       5.294   3.385  12.281  0.00  0.00    +0.000 C 
ENDBRANCH  22  26
BRANCH  23  28
ATOM     28  O   UNL     1       8.123   5.311  14.234  0.00  0.00    +0.000 OA
ATOM     29  C   UNL     1       8.089   5.733  12.885  0.00  0.00    +0.000 C 
ENDBRANCH  23  28
ENDBRANCH  16  20
ENDBRANCH   1  16
TORSDOF 7
ENDMDL
MODEL 9
REMARK VINA RESULT:      -7.6      3.376      9.521
REMARK  Name = 
REMARK  11 active torsions:
REMARK  status: ('A' for Active; 'I' for Inactive)
REMARK    1  A    between atoms: C_1  and  O_2
REMARK    2  A    between atoms: O_2  and  C_3
REMARK    3  A    between atoms: C_5  and  C_6
REMARK    4  A    between atoms: C_6  and  C_8
REMARK    5  A    between atoms: C_12  and  C_13
REMARK    6  A    between atoms: C_16  and  C_17
REMARK    7  A    between atoms: C_18  and  O_19
REMARK    8  A    between atoms: C_23  and  O_24
REMARK    9  A    between atoms: O_24  and  C_25
REMARK   10  A    between atoms: C_26  and  O_27
REMARK   11  A    between atoms: O_27  and  C_28
REMARK                            x       y       z     vdW  Elec       q    Type
REMARK                         _______ _______ _______ _____ _____    ______ ____
ROOT
ATOM      1  C   UNL     1       2.969   4.642  18.290  0.00  0.00    +0.000 A 
ATOM      2  C   UNL     1       2.937   3.924  19.484  0.00  0.00    +0.000 A 
ATOM      3  C   UNL     1       2.551   4.553  20.664  0.00  0.00    +0.000 A 
ATOM      4  C   UNL     1       2.176   5.899  20.650  0.00  0.00    +0.000 A 
ATOM      5  C   UNL     1       2.169   6.655  19.462  0.00  0.00    +0.000 A 
ATOM      6  C   UNL     1       2.568   5.993  18.282  0.00  0.00    +0.000 A 
ENDROOT
BRANCH   5   7
ATOM      7  C   UNL     1       1.765   8.083  19.465  0.00  0.00    +0.000 A 
ATOM      8  C   UNL     1       1.814   8.870  18.303  0.00  0.00    +0.000 A 
ATOM      9  C   UNL     1       1.448  10.223  18.315  0.00  0.00    +0.000 A 
ATOM     10  C   UNL     1       1.014  10.840  19.493  0.00  0.00    +0.000 A 
ATOM     11  C   UNL     1       0.635  12.291  19.473  0.00  0.00    +0.000 C 
ATOM     12  C   UNL     1       0.948  10.065  20.650  0.00  0.00    +0.000 A 
ATOM     13  C   UNL     1       1.314   8.717  20.638  0.00  0.00    +0.000 A 
BRANCH  12  14
ATOM     14  O   UNL     1       0.536  10.561  21.855  0.00  0.00    +0.000 OA
ATOM     15  H   UNL     1      -0.003   9.894  22.309  0.00  0.00    +0.000 HD
ENDBRANCH  12  14
ENDBRANCH   5   7
BRANCH   1  16
ATOM     16  C   UNL     1       3.388   3.920  17.052  0.00  0.00    +0.000 C 
ATOM     17  O   UNL     1       2.714   2.983  16.644  0.00  0.00    +0.000 OA
BRANCH  16  20
ATOM     18  C   UNL     1       6.634   5.657  16.208  0.00  0.00    +0.000 A 
ATOM     19  C   UNL     1       5.393   5.356  16.799  0.00  0.00    +0.000 A 
ATOM     20  C   UNL     1       4.582   4.351  16.275  0.00  0.00    +0.000 A 
ATOM     21  C   UNL     1       4.939   3.752  15.073  0.00  0.00    +0.000 A 
ATOM     22  C   UNL     1       6.134   4.088  14.428  0.00  0.00    +0.000 A 
ATOM     23  C   UNL     1       7.000   5.056  14.982  0.00  0.00    +0.000 A 
BRANCH  18  25
ATOM     24  C   UNL     1       7.541   6.386  18.261  0.00  0.00    +0.000 C 
ATOM     25  O   UNL     1       7.493   6.524  16.835  0.00  0.00    +0.000 OA
ENDBRANCH  18  25
BRANCH  22  26
ATOM     26  O   UNL     1       6.306   3.331  13.293  0.00  0.00    +0.000 OA
ATOM     27  C   UNL     1       5.329   3.362  12.264  0.00  0.00    +0.000 C 
ENDBRANCH  22  26
BRANCH  23  28
ATOM     28  O   UNL     1       8.119   5.317  14.248  0.00  0.00    +0.000 OA
ATOM     29  C   UNL     1       8.080   5.717  12.893  0.00  0.00    +0.000 C 
ENDBRANCH  23  28
ENDBRANCH  16  20
ENDBRANCH   1  16
TORSDOF 7
ENDMDL
