MODEL 1
REMARK VINA RESULT:      -8.2      0.000      0.000
REMARK  Name = 
REMARK  5 active torsions:
REMARK  status: ('A' for Active; 'I' for Inactive)
REMARK    1  A    between atoms: C_1  and  C_2
REMARK    2  A    between atoms: C_10  and  O_11
REMARK    3  A    between atoms: O_11  and  S_12
REMARK    4  A    between atoms: S_12  and  C_15
REMARK    5  A    between atoms: C_20  and  N_21
REMARK                            x       y       z     vdW  Elec       q    Type
REMARK                         _______ _______ _______ _____ _____    ______ ____
ROOT
ATOM      1  O   UNL     1       2.253   3.289  18.607  0.00  0.00    +0.000 OA
ENDROOT
BRANCH   1  11
ATOM      2  C   UNL     1       1.103   8.785  22.010  0.00  0.00    +0.000 C 
ATOM      3  C   UNL     1       1.394   8.566  20.545  0.00  0.00    +0.000 A 
ATOM      4  C   UNL     1       1.493   9.548  19.630  0.00  0.00    +0.000 A 
ATOM      5 CL   UNL     1       1.254  11.219  20.041  0.00  0.00    +0.000 Cl
ATOM      6  C   UNL     1       1.813   9.295  18.198  0.00  0.00    +0.000 A 
ATOM      7  O   UNL     1       1.870  10.187  17.357  0.00  0.00    +0.000 OA
ATOM      8  O   UNL     1       2.063   7.974  17.841  0.00  0.00    +0.000 OA
ATOM      9  C   UNL     1       1.932   6.923  18.764  0.00  0.00    +0.000 A 
ATOM     10  C   UNL     1       2.150   5.628  18.272  0.00  0.00    +0.000 A 
ATOM     11  C   UNL     1       2.018   4.540  19.132  0.00  0.00    +0.000 A 
ATOM     12  C   UNL     1       1.639   4.769  20.456  0.00  0.00    +0.000 A 
ATOM     13  C   UNL     1       1.441   6.070  20.932  0.00  0.00    +0.000 A 
ATOM     14  C   UNL     1       1.589   7.176  20.092  0.00  0.00    +0.000 A 
ENDBRANCH   1  11
BRANCH   1  15
ATOM     15  S   UNL     1       3.738   2.615  18.745  0.00  0.00    +0.000 S 
ATOM     16  O   UNL     1       3.934   2.199  20.119  0.00  0.00    +0.000 OA
ATOM     17  O   UNL     1       3.943   1.698  17.639  0.00  0.00    +0.000 OA
BRANCH  15  18
ATOM     18  C   UNL     1       4.929   3.906  18.468  0.00  0.00    +0.000 A 
ATOM     19  C   UNL     1       5.522   4.618  19.511  0.00  0.00    +0.000 A 
ATOM     20  C   UNL     1       6.411   5.660  19.206  0.00  0.00    +0.000 A 
ATOM     21  C   UNL     1       6.702   5.996  17.875  0.00  0.00    +0.000 A 
ATOM     22 CL   UNL     1       7.823   7.275  17.594  0.00  0.00    +0.000 Cl
ATOM     23  C   UNL     1       6.093   5.268  16.855  0.00  0.00    +0.000 A 
ATOM     24  C   UNL     1       5.213   4.217  17.133  0.00  0.00    +0.000 A 
BRANCH  23  25
ATOM     25  N   UNL     1       6.336   5.581  15.463  0.00  0.00    +0.000 N 
ATOM     26  O   UNL     1       7.424   5.239  14.986  0.00  0.00    +0.000 OA
ATOM     27  O   UNL     1       5.460   6.231  14.879  0.00  0.00    +0.000 OA
ENDBRANCH  23  25
ENDBRANCH  15  18
ENDBRANCH   1  15
TORSDOF 4
ENDMDL
MODEL 2
REMARK VINA RESULT:      -7.9      2.595      3.433
REMARK  Name = 
REMARK  5 active torsions:
REMARK  status: ('A' for Active; 'I' for Inactive)
REMARK    1  A    between atoms: C_1  and  C_2
REMARK    2  A    between atoms: C_10  and  O_11
REMARK    3  A    between atoms: O_11  and  S_12
REMARK    4  A    between atoms: S_12  and  C_15
REMARK    5  A    between atoms: C_20  and  N_21
REMARK                            x       y       z     vdW  Elec       q    Type
REMARK                         _______ _______ _______ _____ _____    ______ ____
ROOT
ATOM      1  O   UNL     1       2.975   5.954  19.963  0.00  0.00    +0.000 OA
ENDROOT
BRANCH   1  11
ATOM      2  C   UNL     1      -0.205  11.541  18.625  0.00  0.00    +0.000 C 
ATOM      3  C   UNL     1      -0.064  10.760  19.909  0.00  0.00    +0.000 A 
ATOM      4  C   UNL     1      -0.634  11.105  21.079  0.00  0.00    +0.000 A 
ATOM      5 CL   UNL     1      -1.590  12.545  21.251  0.00  0.00    +0.000 Cl
ATOM      6  C   UNL     1      -0.497  10.293  22.320  0.00  0.00    +0.000 A 
ATOM      7  O   UNL     1      -0.988  10.624  23.395  0.00  0.00    +0.000 OA
ATOM      8  O   UNL     1       0.218   9.105  22.209  0.00  0.00    +0.000 OA
ATOM      9  C   UNL     1       0.855   8.736  21.012  0.00  0.00    +0.000 A 
ATOM     10  C   UNL     1       1.598   7.548  21.040  0.00  0.00    +0.000 A 
ATOM     11  C   UNL     1       2.269   7.134  19.891  0.00  0.00    +0.000 A 
ATOM     12  C   UNL     1       2.208   7.936  18.750  0.00  0.00    +0.000 A 
ATOM     13  C   UNL     1       1.448   9.111  18.738  0.00  0.00    +0.000 A 
ATOM     14  C   UNL     1       0.752   9.532  19.872  0.00  0.00    +0.000 A 
ENDBRANCH   1  11
BRANCH   1  15
ATOM     15  S   UNL     1       2.713   4.780  18.854  0.00  0.00    +0.000 S 
ATOM     16  O   UNL     1       2.835   3.490  19.504  0.00  0.00    +0.000 OA
ATOM     17  O   UNL     1       1.541   5.126  18.072  0.00  0.00    +0.000 OA
BRANCH  15  18
ATOM     18  C   UNL     1       4.053   4.850  17.688  0.00  0.00    +0.000 A 
ATOM     19  C   UNL     1       4.110   4.033  16.558  0.00  0.00    +0.000 A 
ATOM     20  C   UNL     1       5.230   4.111  15.716  0.00  0.00    +0.000 A 
ATOM     21  C   UNL     1       6.289   4.988  16.001  0.00  0.00    +0.000 A 
ATOM     22 CL   UNL     1       7.615   5.033  14.899  0.00  0.00    +0.000 Cl
ATOM     23  C   UNL     1       6.205   5.789  17.137  0.00  0.00    +0.000 A 
ATOM     24  C   UNL     1       5.093   5.739  17.984  0.00  0.00    +0.000 A 
BRANCH  23  25
ATOM     25  N   UNL     1       7.273   6.697  17.495  0.00  0.00    +0.000 N 
ATOM     26  O   UNL     1       7.987   6.383  18.453  0.00  0.00    +0.000 OA
ATOM     27  O   UNL     1       7.343   7.753  16.853  0.00  0.00    +0.000 OA
ENDBRANCH  23  25
ENDBRANCH  15  18
ENDBRANCH   1  15
TORSDOF 4
ENDMDL
MODEL 3
REMARK VINA RESULT:      -7.8      1.357      2.071
REMARK  Name = 
REMARK  5 active torsions:
REMARK  status: ('A' for Active; 'I' for Inactive)
REMARK    1  A    between atoms: C_1  and  C_2
REMARK    2  A    between atoms: C_10  and  O_11
REMARK    3  A    between atoms: O_11  and  S_12
REMARK    4  A    between atoms: S_12  and  C_15
REMARK    5  A    between atoms: C_20  and  N_21
REMARK                            x       y       z     vdW  Elec       q    Type
REMARK                         _______ _______ _______ _____ _____    ______ ____
ROOT
ATOM      1  O   UNL     1       2.374   3.467  19.461  0.00  0.00    +0.000 OA
ENDROOT
BRANCH   1  11
ATOM      2  C   UNL     1       1.544   9.777  17.844  0.00  0.00    +0.000 C 
ATOM      3  C   UNL     1       1.520   9.083  19.183  0.00  0.00    +0.000 A 
ATOM      4  C   UNL     1       1.285   9.697  20.358  0.00  0.00    +0.000 A 
ATOM      5 CL   UNL     1       1.011  11.409  20.465  0.00  0.00    +0.000 Cl
ATOM      6  C   UNL     1       1.239   8.973  21.659  0.00  0.00    +0.000 A 
ATOM      7  O   UNL     1       1.057   9.537  22.733  0.00  0.00    +0.000 OA
ATOM      8  O   UNL     1       1.402   7.592  21.608  0.00  0.00    +0.000 OA
ATOM      9  C   UNL     1       1.685   6.928  20.403  0.00  0.00    +0.000 A 
ATOM     10  C   UNL     1       1.891   5.543  20.486  0.00  0.00    +0.000 A 
ATOM     11  C   UNL     1       2.193   4.826  19.331  0.00  0.00    +0.000 A 
ATOM     12  C   UNL     1       2.317   5.516  18.123  0.00  0.00    +0.000 A 
ATOM     13  C   UNL     1       2.093   6.895  18.058  0.00  0.00    +0.000 A 
ATOM     14  C   UNL     1       1.768   7.629  19.201  0.00  0.00    +0.000 A 
ENDBRANCH   1  11
BRANCH   1  15
ATOM     15  S   UNL     1       3.693   2.756  18.804  0.00  0.00    +0.000 S 
ATOM     16  O   UNL     1       4.315   1.913  19.805  0.00  0.00    +0.000 OA
ATOM     17  O   UNL     1       3.346   2.244  17.491  0.00  0.00    +0.000 OA
BRANCH  15  18
ATOM     18  C   UNL     1       4.873   4.043  18.472  0.00  0.00    +0.000 A 
ATOM     19  C   UNL     1       5.604   4.671  19.480  0.00  0.00    +0.000 A 
ATOM     20  C   UNL     1       6.476   5.718  19.141  0.00  0.00    +0.000 A 
ATOM     21  C   UNL     1       6.613   6.141  17.809  0.00  0.00    +0.000 A 
ATOM     22 CL   UNL     1       7.724   7.418  17.481  0.00  0.00    +0.000 Cl
ATOM     23  C   UNL     1       5.869   5.496  16.824  0.00  0.00    +0.000 A 
ATOM     24  C   UNL     1       5.003   4.443  17.136  0.00  0.00    +0.000 A 
BRANCH  23  25
ATOM     25  N   UNL     1       5.951   5.901  15.437  0.00  0.00    +0.000 N 
ATOM     26  O   UNL     1       5.209   6.819  15.069  0.00  0.00    +0.000 OA
ATOM     27  O   UNL     1       6.710   5.246  14.712  0.00  0.00    +0.000 OA
ENDBRANCH  23  25
ENDBRANCH  15  18
ENDBRANCH   1  15
TORSDOF 4
ENDMDL
MODEL 4
REMARK VINA RESULT:      -7.7      2.439      3.283
REMARK  Name = 
REMARK  5 active torsions:
REMARK  status: ('A' for Active; 'I' for Inactive)
REMARK    1  A    between atoms: C_1  and  C_2
REMARK    2  A    between atoms: C_10  and  O_11
REMARK    3  A    between atoms: O_11  and  S_12
REMARK    4  A    between atoms: S_12  and  C_15
REMARK    5  A    between atoms: C_20  and  N_21
REMARK                            x       y       z     vdW  Elec       q    Type
REMARK                         _______ _______ _______ _____ _____    ______ ____
ROOT
ATOM      1  O   UNL     1       2.959   5.319  20.342  0.00  0.00    +0.000 OA
ENDROOT
BRANCH   1  11
ATOM      2  C   UNL     1       0.449  11.075  18.422  0.00  0.00    +0.000 C 
ATOM      3  C   UNL     1       0.361  10.341  19.738  0.00  0.00    +0.000 A 
ATOM      4  C   UNL     1      -0.322  10.779  20.813  0.00  0.00    +0.000 A 
ATOM      5 CL   UNL     1      -1.170  12.296  20.812  0.00  0.00    +0.000 Cl
ATOM      6  C   UNL     1      -0.412  10.012  22.087  0.00  0.00    +0.000 A 
ATOM      7  O   UNL     1      -1.007  10.426  23.077  0.00  0.00    +0.000 OA
ATOM      8  O   UNL     1       0.211   8.768  22.108  0.00  0.00    +0.000 OA
ATOM      9  C   UNL     1       0.961   8.300  21.016  0.00  0.00    +0.000 A 
ATOM     10  C   UNL     1       1.593   7.060  21.179  0.00  0.00    +0.000 A 
ATOM     11  C   UNL     1       2.368   6.546  20.141  0.00  0.00    +0.000 A 
ATOM     12  C   UNL     1       2.519   7.301  18.976  0.00  0.00    +0.000 A 
ATOM     13  C   UNL     1       1.867   8.531  18.827  0.00  0.00    +0.000 A 
ATOM     14  C   UNL     1       1.070   9.052  19.847  0.00  0.00    +0.000 A 
ENDBRANCH   1  11
BRANCH   1  15
ATOM     15  S   UNL     1       2.727   4.116  19.257  0.00  0.00    +0.000 S 
ATOM     16  O   UNL     1       3.025   2.850  19.895  0.00  0.00    +0.000 OA
ATOM     17  O   UNL     1       1.470   4.341  18.569  0.00  0.00    +0.000 OA
BRANCH  15  18
ATOM     18  C   UNL     1       3.959   4.307  17.989  0.00  0.00    +0.000 A 
ATOM     19  C   UNL     1       3.687   4.094  16.638  0.00  0.00    +0.000 A 
ATOM     20  C   UNL     1       4.729   4.212  15.705  0.00  0.00    +0.000 A 
ATOM     21  C   UNL     1       6.033   4.531  16.115  0.00  0.00    +0.000 A 
ATOM     22 CL   UNL     1       7.246   4.677  14.899  0.00  0.00    +0.000 Cl
ATOM     23  C   UNL     1       6.275   4.737  17.471  0.00  0.00    +0.000 A 
ATOM     24  C   UNL     1       5.250   4.638  18.418  0.00  0.00    +0.000 A 
BRANCH  23  25
ATOM     25  N   UNL     1       7.602   5.047  17.958  0.00  0.00    +0.000 N 
ATOM     26  O   UNL     1       7.822   6.214  18.302  0.00  0.00    +0.000 OA
ATOM     27  O   UNL     1       8.434   4.131  17.924  0.00  0.00    +0.000 OA
ENDBRANCH  23  25
ENDBRANCH  15  18
ENDBRANCH   1  15
TORSDOF 4
ENDMDL
MODEL 5
REMARK VINA RESULT:      -7.3      5.243      9.408
REMARK  Name = 
REMARK  5 active torsions:
REMARK  status: ('A' for Active; 'I' for Inactive)
REMARK    1  A    between atoms: C_1  and  C_2
REMARK    2  A    between atoms: C_10  and  O_11
REMARK    3  A    between atoms: O_11  and  S_12
REMARK    4  A    between atoms: S_12  and  C_15
REMARK    5  A    between atoms: C_20  and  N_21
REMARK                            x       y       z     vdW  Elec       q    Type
REMARK                         _______ _______ _______ _____ _____    ______ ____
ROOT
ATOM      1  O   UNL     1       0.998  10.890  19.594  0.00  0.00    +0.000 OA
ENDROOT
BRANCH   1  11
ATOM      2  C   UNL     1       3.861   5.500  17.171  0.00  0.00    +0.000 C 
ATOM      3  C   UNL     1       3.106   5.731  18.458  0.00  0.00    +0.000 A 
ATOM      4  C   UNL     1       2.901   4.795  19.402  0.00  0.00    +0.000 A 
ATOM      5 CL   UNL     1       3.466   3.162  19.221  0.00  0.00    +0.000 Cl
ATOM      6  C   UNL     1       2.176   5.069  20.675  0.00  0.00    +0.000 A 
ATOM      7  O   UNL     1       1.960   4.207  21.521  0.00  0.00    +0.000 OA
ATOM      8  O   UNL     1       1.754   6.379  20.879  0.00  0.00    +0.000 OA
ATOM      9  C   UNL     1       1.921   7.369  19.897  0.00  0.00    +0.000 A 
ATOM     10  C   UNL     1       1.399   8.636  20.193  0.00  0.00    +0.000 A 
ATOM     11  C   UNL     1       1.515   9.659  19.255  0.00  0.00    +0.000 A 
ATOM     12  C   UNL     1       2.122   9.382  18.027  0.00  0.00    +0.000 A 
ATOM     13  C   UNL     1       2.651   8.115  17.758  0.00  0.00    +0.000 A 
ATOM     14  C   UNL     1       2.563   7.082  18.693  0.00  0.00    +0.000 A 
ENDBRANCH   1  11
BRANCH   1  15
ATOM     15  S   UNL     1      -0.535  11.272  19.171  0.00  0.00    +0.000 S 
ATOM     16  O   UNL     1      -0.512  12.490  18.386  0.00  0.00    +0.000 OA
ATOM     17  O   UNL     1      -1.204  10.076  18.695  0.00  0.00    +0.000 OA
BRANCH  15  18
ATOM     18  C   UNL     1      -1.403  11.692  20.665  0.00  0.00    +0.000 A 
ATOM     19  C   UNL     1      -0.862  11.483  21.934  0.00  0.00    +0.000 A 
ATOM     20  C   UNL     1      -1.634  11.790  23.065  0.00  0.00    +0.000 A 
ATOM     21  C   UNL     1      -2.938  12.294  22.934  0.00  0.00    +0.000 A 
ATOM     22 CL   UNL     1      -3.805  12.665  24.377  0.00  0.00    +0.000 Cl
ATOM     23  C   UNL     1      -3.452  12.491  21.655  0.00  0.00    +0.000 A 
ATOM     24  C   UNL     1      -2.697  12.205  20.513  0.00  0.00    +0.000 A 
BRANCH  23  25
ATOM     25  N   UNL     1      -4.797  12.988  21.456  0.00  0.00    +0.000 N 
ATOM     26  O   UNL     1      -4.936  14.208  21.319  0.00  0.00    +0.000 OA
ATOM     27  O   UNL     1      -5.710  12.155  21.510  0.00  0.00    +0.000 OA
ENDBRANCH  23  25
ENDBRANCH  15  18
ENDBRANCH   1  15
TORSDOF 4
ENDMDL
MODEL 6
REMARK VINA RESULT:      -7.3      4.313      8.549
REMARK  Name = 
REMARK  5 active torsions:
REMARK  status: ('A' for Active; 'I' for Inactive)
REMARK    1  A    between atoms: C_1  and  C_2
REMARK    2  A    between atoms: C_10  and  O_11
REMARK    3  A    between atoms: O_11  and  S_12
REMARK    4  A    between atoms: S_12  and  C_15
REMARK    5  A    between atoms: C_20  and  N_21
REMARK                            x       y       z     vdW  Elec       q    Type
REMARK                         _______ _______ _______ _____ _____    ______ ____
ROOT
ATOM      1  O   UNL     1       1.766   9.050  19.519  0.00  0.00    +0.000 OA
ENDROOT
BRANCH   1  11
ATOM      2  C   UNL     1       4.657   3.779  16.877  0.00  0.00    +0.000 C 
ATOM      3  C   UNL     1       3.674   3.908  18.015  0.00  0.00    +0.000 A 
ATOM      4  C   UNL     1       3.209   2.876  18.744  0.00  0.00    +0.000 A 
ATOM      5 CL   UNL     1       3.677   1.234  18.421  0.00  0.00    +0.000 Cl
ATOM      6  C   UNL     1       2.262   3.045  19.880  0.00  0.00    +0.000 A 
ATOM      7  O   UNL     1       1.813   2.101  20.524  0.00  0.00    +0.000 OA
ATOM      8  O   UNL     1       1.905   4.351  20.203  0.00  0.00    +0.000 OA
ATOM      9  C   UNL     1       2.343   5.445  19.438  0.00  0.00    +0.000 A 
ATOM     10  C   UNL     1       1.867   6.706  19.823  0.00  0.00    +0.000 A 
ATOM     11  C   UNL     1       2.249   7.832  19.097  0.00  0.00    +0.000 A 
ATOM     12  C   UNL     1       3.073   7.666  17.981  0.00  0.00    +0.000 A 
ATOM     13  C   UNL     1       3.550   6.400  17.622  0.00  0.00    +0.000 A 
ATOM     14  C   UNL     1       3.196   5.262  18.350  0.00  0.00    +0.000 A 
ENDBRANCH   1  11
BRANCH   1  15
ATOM     15  S   UNL     1       1.075  10.069  18.442  0.00  0.00    +0.000 S 
ATOM     16  O   UNL     1       2.039  11.089  18.081  0.00  0.00    +0.000 OA
ATOM     17  O   UNL     1       0.384   9.288  17.433  0.00  0.00    +0.000 OA
BRANCH  15  18
ATOM     18  C   UNL     1      -0.226  10.930  19.294  0.00  0.00    +0.000 A 
ATOM     19  C   UNL     1      -1.304  11.514  18.627  0.00  0.00    +0.000 A 
ATOM     20  C   UNL     1      -2.261  12.224  19.368  0.00  0.00    +0.000 A 
ATOM     21  C   UNL     1      -2.142  12.360  20.760  0.00  0.00    +0.000 A 
ATOM     22 CL   UNL     1      -3.376  13.230  21.593  0.00  0.00    +0.000 Cl
ATOM     23  C   UNL     1      -1.055  11.768  21.398  0.00  0.00    +0.000 A 
ATOM     24  C   UNL     1      -0.095  11.044  20.683  0.00  0.00    +0.000 A 
BRANCH  23  25
ATOM     25  N   UNL     1      -0.866  11.891  22.828  0.00  0.00    +0.000 N 
ATOM     26  O   UNL     1      -0.527  12.997  23.262  0.00  0.00    +0.000 OA
ATOM     27  O   UNL     1      -0.992  10.856  23.496  0.00  0.00    +0.000 OA
ENDBRANCH  23  25
ENDBRANCH  15  18
ENDBRANCH   1  15
TORSDOF 4
ENDMDL
MODEL 7
REMARK VINA RESULT:      -7.3      1.487      1.819
REMARK  Name = 
REMARK  5 active torsions:
REMARK  status: ('A' for Active; 'I' for Inactive)
REMARK    1  A    between atoms: C_1  and  C_2
REMARK    2  A    between atoms: C_10  and  O_11
REMARK    3  A    between atoms: O_11  and  S_12
REMARK    4  A    between atoms: S_12  and  C_15
REMARK    5  A    between atoms: C_20  and  N_21
REMARK                            x       y       z     vdW  Elec       q    Type
REMARK                         _______ _______ _______ _____ _____    ______ ____
ROOT
ATOM      1  O   UNL     1       2.157   3.132  18.937  0.00  0.00    +0.000 OA
ENDROOT
BRANCH   1  11
ATOM      2  C   UNL     1       1.070   8.844  21.988  0.00  0.00    +0.000 C 
ATOM      3  C   UNL     1       1.392   8.533  20.547  0.00  0.00    +0.000 A 
ATOM      4  C   UNL     1       1.541   9.458  19.580  0.00  0.00    +0.000 A 
ATOM      5 CL   UNL     1       1.336  11.155  19.888  0.00  0.00    +0.000 Cl
ATOM      6  C   UNL     1       1.889   9.114  18.174  0.00  0.00    +0.000 A 
ATOM      7  O   UNL     1       1.992   9.954  17.285  0.00  0.00    +0.000 OA
ATOM      8  O   UNL     1       2.113   7.768  17.900  0.00  0.00    +0.000 OA
ATOM      9  C   UNL     1       1.930   6.777  18.878  0.00  0.00    +0.000 A 
ATOM     10  C   UNL     1       2.125   5.450  18.467  0.00  0.00    +0.000 A 
ATOM     11  C   UNL     1       1.943   4.417  19.383  0.00  0.00    +0.000 A 
ATOM     12  C   UNL     1       1.536   4.732  20.682  0.00  0.00    +0.000 A 
ATOM     13  C   UNL     1       1.362   6.063  21.077  0.00  0.00    +0.000 A 
ATOM     14  C   UNL     1       1.561   7.114  20.179  0.00  0.00    +0.000 A 
ENDBRANCH   1  11
BRANCH   1  15
ATOM     15  S   UNL     1       3.658   2.484  19.015  0.00  0.00    +0.000 S 
ATOM     16  O   UNL     1       4.170   2.657  20.360  0.00  0.00    +0.000 OA
ATOM     17  O   UNL     1       3.643   1.185  18.371  0.00  0.00    +0.000 OA
BRANCH  15  18
ATOM     18  C   UNL     1       4.711   3.473  17.979  0.00  0.00    +0.000 A 
ATOM     19  C   UNL     1       4.620   3.465  16.587  0.00  0.00    +0.000 A 
ATOM     20  C   UNL     1       5.526   4.232  15.839  0.00  0.00    +0.000 A 
ATOM     21  C   UNL     1       6.520   4.996  16.471  0.00  0.00    +0.000 A 
ATOM     22 CL   UNL     1       7.575   5.926  15.474  0.00  0.00    +0.000 Cl
ATOM     23  C   UNL     1       6.588   4.984  17.862  0.00  0.00    +0.000 A 
ATOM     24  C   UNL     1       5.688   4.237  18.630  0.00  0.00    +0.000 A 
BRANCH  23  25
ATOM     25  N   UNL     1       7.604   5.734  18.570  0.00  0.00    +0.000 N 
ATOM     26  O   UNL     1       8.266   5.129  19.420  0.00  0.00    +0.000 OA
ATOM     27  O   UNL     1       7.680   6.942  18.315  0.00  0.00    +0.000 OA
ENDBRANCH  23  25
ENDBRANCH  15  18
ENDBRANCH   1  15
TORSDOF 4
ENDMDL
MODEL 8
REMARK VINA RESULT:      -7.3      1.997      2.327
REMARK  Name = 
REMARK  5 active torsions:
REMARK  status: ('A' for Active; 'I' for Inactive)
REMARK    1  A    between atoms: C_1  and  C_2
REMARK    2  A    between atoms: C_10  and  O_11
REMARK    3  A    between atoms: O_11  and  S_12
REMARK    4  A    between atoms: S_12  and  C_15
REMARK    5  A    between atoms: C_20  and  N_21
REMARK                            x       y       z     vdW  Elec       q    Type
REMARK                         _______ _______ _______ _____ _____    ______ ____
ROOT
ATOM      1  O   UNL     1       4.188   4.086  18.912  0.00  0.00    +0.000 OA
ENDROOT
BRANCH   1  11
ATOM      2  C   UNL     1       0.162   8.545  21.563  0.00  0.00    +0.000 C 
ATOM      3  C   UNL     1       1.003   8.585  20.310  0.00  0.00    +0.000 A 
ATOM      4  C   UNL     1       1.083   9.640  19.477  0.00  0.00    +0.000 A 
ATOM      5 CL   UNL     1       0.174  11.096  19.742  0.00  0.00    +0.000 Cl
ATOM      6  C   UNL     1       1.948   9.654  18.264  0.00  0.00    +0.000 A 
ATOM      7  O   UNL     1       1.996  10.602  17.487  0.00  0.00    +0.000 OA
ATOM      8  O   UNL     1       2.731   8.524  18.047  0.00  0.00    +0.000 OA
ATOM      9  C   UNL     1       2.643   7.395  18.877  0.00  0.00    +0.000 A 
ATOM     10  C   UNL     1       3.436   6.294  18.522  0.00  0.00    +0.000 A 
ATOM     11  C   UNL     1       3.382   5.136  19.293  0.00  0.00    +0.000 A 
ATOM     12  C   UNL     1       2.510   5.092  20.384  0.00  0.00    +0.000 A 
ATOM     13  C   UNL     1       1.738   6.206  20.731  0.00  0.00    +0.000 A 
ATOM     14  C   UNL     1       1.794   7.384  19.983  0.00  0.00    +0.000 A 
ENDBRANCH   1  11
BRANCH   1  15
ATOM     15  S   UNL     1       3.915   3.326  17.489  0.00  0.00    +0.000 S 
ATOM     16  O   UNL     1       4.193   1.913  17.655  0.00  0.00    +0.000 OA
ATOM     17  O   UNL     1       2.655   3.791  16.942  0.00  0.00    +0.000 OA
BRANCH  15  18
ATOM     18  C   UNL     1       5.135   3.914  16.338  0.00  0.00    +0.000 A 
ATOM     19  C   UNL     1       6.149   4.800  16.703  0.00  0.00    +0.000 A 
ATOM     20  C   UNL     1       7.040   5.260  15.721  0.00  0.00    +0.000 A 
ATOM     21  C   UNL     1       6.919   4.847  14.385  0.00  0.00    +0.000 A 
ATOM     22 CL   UNL     1       8.071   5.444  13.250  0.00  0.00    +0.000 Cl
ATOM     23  C   UNL     1       5.896   3.962  14.049  0.00  0.00    +0.000 A 
ATOM     24  C   UNL     1       5.004   3.480  15.013  0.00  0.00    +0.000 A 
BRANCH  23  25
ATOM     25  N   UNL     1       5.707   3.517  12.685  0.00  0.00    +0.000 N 
ATOM     26  O   UNL     1       6.707   3.133  12.070  0.00  0.00    +0.000 OA
ATOM     27  O   UNL     1       4.565   3.623  12.220  0.00  0.00    +0.000 OA
ENDBRANCH  23  25
ENDBRANCH  15  18
ENDBRANCH   1  15
TORSDOF 4
ENDMDL
MODEL 9
REMARK VINA RESULT:      -7.3      4.895      6.878
REMARK  Name = 
REMARK  5 active torsions:
REMARK  status: ('A' for Active; 'I' for Inactive)
REMARK    1  A    between atoms: C_1  and  C_2
REMARK    2  A    between atoms: C_10  and  O_11
REMARK    3  A    between atoms: O_11  and  S_12
REMARK    4  A    between atoms: S_12  and  C_15
REMARK    5  A    between atoms: C_20  and  N_21
REMARK                            x       y       z     vdW  Elec       q    Type
REMARK                         _______ _______ _______ _____ _____    ______ ____
ROOT
ATOM      1  O   UNL     1       0.779  10.468  20.417  0.00  0.00    +0.000 OA
ENDROOT
BRANCH   1  11
ATOM      2  C   UNL     1      -4.261  10.917  16.231  0.00  0.00    +0.000 C 
ATOM      3  C   UNL     1      -4.052  11.511  17.603  0.00  0.00    +0.000 A 
ATOM      4  C   UNL     1      -4.951  12.276  18.249  0.00  0.00    +0.000 A 
ATOM      5 CL   UNL     1      -6.478  12.704  17.539  0.00  0.00    +0.000 Cl
ATOM      6  C   UNL     1      -4.723  12.821  19.616  0.00  0.00    +0.000 A 
ATOM      7  O   UNL     1      -5.528  13.545  20.192  0.00  0.00    +0.000 OA
ATOM      8  O   UNL     1      -3.533  12.456  20.239  0.00  0.00    +0.000 OA
ATOM      9  C   UNL     1      -2.559  11.690  19.577  0.00  0.00    +0.000 A 
ATOM     10  C   UNL     1      -1.375  11.439  20.284  0.00  0.00    +0.000 A 
ATOM     11  C   UNL     1      -0.361  10.700  19.679  0.00  0.00    +0.000 A 
ATOM     12  C   UNL     1      -0.541  10.257  18.367  0.00  0.00    +0.000 A 
ATOM     13  C   UNL     1      -1.736  10.505  17.683  0.00  0.00    +0.000 A 
ATOM     14  C   UNL     1      -2.773  11.225  18.280  0.00  0.00    +0.000 A 
ENDBRANCH   1  11
BRANCH   1  15
ATOM     15  S   UNL     1       0.904   9.105  21.314  0.00  0.00    +0.000 S 
ATOM     16  O   UNL     1       1.866   9.332  22.374  0.00  0.00    +0.000 OA
ATOM     17  O   UNL     1      -0.428   8.603  21.594  0.00  0.00    +0.000 OA
BRANCH  15  18
ATOM     18  C   UNL     1       1.632   7.859  20.276  0.00  0.00    +0.000 A 
ATOM     19  C   UNL     1       2.186   8.148  19.029  0.00  0.00    +0.000 A 
ATOM     20  C   UNL     1       2.691   7.098  18.247  0.00  0.00    +0.000 A 
ATOM     21  C   UNL     1       2.638   5.770  18.698  0.00  0.00    +0.000 A 
ATOM     22 CL   UNL     1       3.302   4.546  17.682  0.00  0.00    +0.000 Cl
ATOM     23  C   UNL     1       2.077   5.511  19.947  0.00  0.00    +0.000 A 
ATOM     24  C   UNL     1       1.579   6.542  20.751  0.00  0.00    +0.000 A 
BRANCH  23  25
ATOM     25  N   UNL     1       1.975   4.161  20.458  0.00  0.00    +0.000 N 
ATOM     26  O   UNL     1       0.843   3.670  20.541  0.00  0.00    +0.000 OA
ATOM     27  O   UNL     1       3.026   3.630  20.838  0.00  0.00    +0.000 OA
ENDBRANCH  23  25
ENDBRANCH  15  18
ENDBRANCH   1  15
TORSDOF 4
ENDMDL
