MODEL 1
REMARK VINA RESULT:      -6.2      0.000      0.000
REMARK  Name = 
REMARK  5 active torsions:
REMARK  status: ('A' for Active; 'I' for Inactive)
REMARK    1  A    between atoms: C_1  and  O_2
REMARK    2  A    between atoms: O_2  and  O_3
REMARK    3  A    between atoms: O_3  and  C_4
REMARK    4  A    between atoms: C_4  and  O_5
REMARK    5  A    between atoms: O_5  and  C_6
REMARK                            x       y       z     vdW  Elec       q    Type
REMARK                         _______ _______ _______ _____ _____    ______ ____
ROOT
ATOM      1  C   UNL     1       4.289   5.819  17.947  0.00  0.00    +0.000 C 
ATOM      2  C   UNL     1       4.380   4.663  16.880  0.00  0.00    +0.000 C 
ATOM      3  C   UNL     1       3.497   3.398  17.017  0.00  0.00    +0.000 C 
ATOM      4  C   UNL     1       4.111   2.224  17.782  0.00  0.00    +0.000 C 
ATOM      5  C   UNL     1       3.134   1.289  18.529  0.00  0.00    +0.000 C 
ATOM      6  C   UNL     1       1.930   1.883  19.293  0.00  0.00    +0.000 C 
ATOM      7  C   UNL     1       2.246   2.463  20.677  0.00  0.00    +0.000 C 
ATOM      8  C   UNL     1       1.232   3.492  21.219  0.00  0.00    +0.000 C 
ATOM      9  C   UNL     1       1.080   4.797  20.414  0.00  0.00    +0.000 C 
ATOM     10  C   UNL     1       2.164   5.852  20.693  0.00  0.00    +0.000 C 
ATOM     11  C   UNL     1       2.438   6.853  19.555  0.00  0.00    +0.000 C 
ATOM     12  C   UNL     1       2.815   6.266  18.184  0.00  0.00    +0.000 C 
ENDROOT
BRANCH   1  13
ATOM     13  O   UNL     1       4.902   7.002  17.346  0.00  0.00    +0.000 OA
ATOM     14  C   UNL     1       5.214   6.878  15.964  0.00  0.00    +0.000 C 
ENDBRANCH   1  13
BRANCH   1  15
ATOM     15  O   UNL     1       4.990   5.606  19.178  0.00  0.00    +0.000 OA
BRANCH  15  17
ATOM     16  C   UNL     1       7.271   5.601  19.332  0.00  0.00    +0.000 C 
ATOM     17  O   UNL     1       6.160   4.815  18.921  0.00  0.00    +0.000 OA
ENDBRANCH  15  17
ENDBRANCH   1  15
TORSDOF 3
ENDMDL
MODEL 2
REMARK VINA RESULT:      -6.2      1.222      2.398
REMARK  Name = 
REMARK  5 active torsions:
REMARK  status: ('A' for Active; 'I' for Inactive)
REMARK    1  A    between atoms: C_1  and  O_2
REMARK    2  A    between atoms: O_2  and  O_3
REMARK    3  A    between atoms: O_3  and  C_4
REMARK    4  A    between atoms: C_4  and  O_5
REMARK    5  A    between atoms: O_5  and  C_6
REMARK                            x       y       z     vdW  Elec       q    Type
REMARK                         _______ _______ _______ _____ _____    ______ ____
ROOT
ATOM      1  C   UNL     1       5.051   4.076  17.367  0.00  0.00    +0.000 C 
ATOM      2  C   UNL     1       4.276   2.707  17.290  0.00  0.00    +0.000 C 
ATOM      3  C   UNL     1       2.852   2.578  17.887  0.00  0.00    +0.000 C 
ATOM      4  C   UNL     1       2.767   2.110  19.340  0.00  0.00    +0.000 C 
ATOM      5  C   UNL     1       1.559   2.605  20.165  0.00  0.00    +0.000 C 
ATOM      6  C   UNL     1       1.074   4.065  20.022  0.00  0.00    +0.000 C 
ATOM      7  C   UNL     1       1.884   5.111  20.799  0.00  0.00    +0.000 C 
ATOM      8  C   UNL     1       1.770   6.561  20.287  0.00  0.00    +0.000 C 
ATOM      9  C   UNL     1       2.293   6.829  18.862  0.00  0.00    +0.000 C 
ATOM     10  C   UNL     1       3.816   7.007  18.761  0.00  0.00    +0.000 C 
ATOM     11  C   UNL     1       4.445   6.668  17.396  0.00  0.00    +0.000 C 
ATOM     12  C   UNL     1       4.183   5.258  16.838  0.00  0.00    +0.000 C 
ENDROOT
BRANCH   1  13
ATOM     13  O   UNL     1       6.140   4.003  16.394  0.00  0.00    +0.000 OA
ATOM     14  C   UNL     1       5.737   4.116  15.035  0.00  0.00    +0.000 C 
ENDBRANCH   1  13
BRANCH   1  15
ATOM     15  O   UNL     1       5.675   4.386  18.618  0.00  0.00    +0.000 OA
BRANCH  15  17
ATOM     16  C   UNL     1       7.521   5.632  19.136  0.00  0.00    +0.000 C 
ATOM     17  O   UNL     1       7.094   4.477  18.426  0.00  0.00    +0.000 OA
ENDBRANCH  15  17
ENDBRANCH   1  15
TORSDOF 3
ENDMDL
MODEL 3
REMARK VINA RESULT:      -5.5      1.103      1.457
REMARK  Name = 
REMARK  5 active torsions:
REMARK  status: ('A' for Active; 'I' for Inactive)
REMARK    1  A    between atoms: C_1  and  O_2
REMARK    2  A    between atoms: O_2  and  O_3
REMARK    3  A    between atoms: O_3  and  C_4
REMARK    4  A    between atoms: C_4  and  O_5
REMARK    5  A    between atoms: O_5  and  C_6
REMARK                            x       y       z     vdW  Elec       q    Type
REMARK                         _______ _______ _______ _____ _____    ______ ____
ROOT
ATOM      1  C   UNL     1       5.083   5.088  17.307  0.00  0.00    +0.000 C 
ATOM      2  C   UNL     1       4.775   3.643  16.761  0.00  0.00    +0.000 C 
ATOM      3  C   UNL     1       3.501   2.888  17.217  0.00  0.00    +0.000 C 
ATOM      4  C   UNL     1       3.654   1.981  18.439  0.00  0.00    +0.000 C 
ATOM      5  C   UNL     1       2.402   1.780  19.321  0.00  0.00    +0.000 C 
ATOM      6  C   UNL     1       1.475   2.977  19.628  0.00  0.00    +0.000 C 
ATOM      7  C   UNL     1       1.958   3.921  20.736  0.00  0.00    +0.000 C 
ATOM      8  C   UNL     1       1.365   5.344  20.709  0.00  0.00    +0.000 C 
ATOM      9  C   UNL     1       1.692   6.202  19.471  0.00  0.00    +0.000 C 
ATOM     10  C   UNL     1       3.074   6.875  19.504  0.00  0.00    +0.000 C 
ATOM     11  C   UNL     1       3.696   7.203  18.134  0.00  0.00    +0.000 C 
ATOM     12  C   UNL     1       3.858   6.038  17.144  0.00  0.00    +0.000 C 
ENDROOT
BRANCH   1  13
ATOM     13  O   UNL     1       6.081   5.676  16.415  0.00  0.00    +0.000 OA
ATOM     14  C   UNL     1       6.176   5.062  15.136  0.00  0.00    +0.000 C 
ENDBRANCH   1  13
BRANCH   1  15
ATOM     15  O   UNL     1       5.650   5.165  18.620  0.00  0.00    +0.000 OA
BRANCH  15  17
ATOM     16  C   UNL     1       7.778   5.683  19.277  0.00  0.00    +0.000 C 
ATOM     17  O   UNL     1       7.013   4.716  18.570  0.00  0.00    +0.000 OA
ENDBRANCH  15  17
ENDBRANCH   1  15
TORSDOF 3
ENDMDL
MODEL 4
REMARK VINA RESULT:      -5.1      5.449      7.737
REMARK  Name = 
REMARK  5 active torsions:
REMARK  status: ('A' for Active; 'I' for Inactive)
REMARK    1  A    between atoms: C_1  and  O_2
REMARK    2  A    between atoms: O_2  and  O_3
REMARK    3  A    between atoms: O_3  and  C_4
REMARK    4  A    between atoms: C_4  and  O_5
REMARK    5  A    between atoms: O_5  and  C_6
REMARK                            x       y       z     vdW  Elec       q    Type
REMARK                         _______ _______ _______ _____ _____    ______ ____
ROOT
ATOM      1  C   UNL     1       1.033  10.077  18.899  0.00  0.00    +0.000 C 
ATOM      2  C   UNL     1       1.221   8.823  19.834  0.00  0.00    +0.000 C 
ATOM      3  C   UNL     1       0.379   8.675  21.126  0.00  0.00    +0.000 C 
ATOM      4  C   UNL     1       0.995   9.246  22.404  0.00  0.00    +0.000 C 
ATOM      5  C   UNL     1       0.016   9.752  23.487  0.00  0.00    +0.000 C 
ATOM      6  C   UNL     1      -1.246  10.542  23.077  0.00  0.00    +0.000 C 
ATOM      7  C   UNL     1      -1.022  12.026  22.754  0.00  0.00    +0.000 C 
ATOM      8  C   UNL     1      -2.099  12.688  21.871  0.00  0.00    +0.000 C 
ATOM      9  C   UNL     1      -2.257  12.129  20.444  0.00  0.00    +0.000 C 
ATOM     10  C   UNL     1      -1.229  12.657  19.431  0.00  0.00    +0.000 C 
ATOM     11  C   UNL     1      -0.934  11.739  18.229  0.00  0.00    +0.000 C 
ATOM     12  C   UNL     1      -0.466  10.308  18.542  0.00  0.00    +0.000 C 
ENDROOT
BRANCH   1  13
ATOM     13  O   UNL     1       1.633   9.738  17.609  0.00  0.00    +0.000 OA
ATOM     14  C   UNL     1       2.333   8.501  17.581  0.00  0.00    +0.000 C 
ENDBRANCH   1  13
BRANCH   1  15
ATOM     15  O   UNL     1       1.678  11.285  19.317  0.00  0.00    +0.000 OA
BRANCH  15  17
ATOM     16  C   UNL     1       2.457  13.228  18.396  0.00  0.00    +0.000 C 
ATOM     17  O   UNL     1       2.435  11.817  18.220  0.00  0.00    +0.000 OA
ENDBRANCH  15  17
ENDBRANCH   1  15
TORSDOF 3
ENDMDL
MODEL 5
REMARK VINA RESULT:      -4.8      9.875     12.163
REMARK  Name = 
REMARK  5 active torsions:
REMARK  status: ('A' for Active; 'I' for Inactive)
REMARK    1  A    between atoms: C_1  and  O_2
REMARK    2  A    between atoms: O_2  and  O_3
REMARK    3  A    between atoms: O_3  and  C_4
REMARK    4  A    between atoms: C_4  and  O_5
REMARK    5  A    between atoms: O_5  and  C_6
REMARK                            x       y       z     vdW  Elec       q    Type
REMARK                         _______ _______ _______ _____ _____    ______ ____
ROOT
ATOM      1  C   UNL     1      10.010  15.757  18.163  0.00  0.00    +0.000 C 
ATOM      2  C   UNL     1       9.946  16.375  19.611  0.00  0.00    +0.000 C 
ATOM      3  C   UNL     1      10.130  15.472  20.857  0.00  0.00    +0.000 C 
ATOM      4  C   UNL     1       8.852  14.888  21.462  0.00  0.00    +0.000 C 
ATOM      5  C   UNL     1       8.979  13.527  22.182  0.00  0.00    +0.000 C 
ATOM      6  C   UNL     1       9.869  12.417  21.581  0.00  0.00    +0.000 C 
ATOM      7  C   UNL     1       9.243  11.616  20.432  0.00  0.00    +0.000 C 
ATOM      8  C   UNL     1      10.237  10.896  19.499  0.00  0.00    +0.000 C 
ATOM      9  C   UNL     1      11.203  11.793  18.700  0.00  0.00    +0.000 C 
ATOM     10  C   UNL     1      10.598  12.414  17.430  0.00  0.00    +0.000 C 
ATOM     11  C   UNL     1      11.240  13.731  16.953  0.00  0.00    +0.000 C 
ATOM     12  C   UNL     1      11.289  14.889  17.963  0.00  0.00    +0.000 C 
ENDROOT
BRANCH   1  13
ATOM     13  O   UNL     1      10.213  16.868  17.235  0.00  0.00    +0.000 OA
ATOM     14  C   UNL     1      11.462  17.536  17.366  0.00  0.00    +0.000 C 
ENDBRANCH   1  13
BRANCH   1  15
ATOM     15  O   UNL     1       8.829  15.087  17.705  0.00  0.00    +0.000 OA
BRANCH  15  17
ATOM     16  C   UNL     1       6.564  14.975  17.993  0.00  0.00    +0.000 C 
ATOM     17  O   UNL     1       7.677  15.854  18.080  0.00  0.00    +0.000 OA
ENDBRANCH  15  17
ENDBRANCH   1  15
TORSDOF 3
ENDMDL
MODEL 6
REMARK VINA RESULT:      -4.8      2.239      4.721
REMARK  Name = 
REMARK  5 active torsions:
REMARK  status: ('A' for Active; 'I' for Inactive)
REMARK    1  A    between atoms: C_1  and  O_2
REMARK    2  A    between atoms: O_2  and  O_3
REMARK    3  A    between atoms: O_3  and  C_4
REMARK    4  A    between atoms: C_4  and  O_5
REMARK    5  A    between atoms: O_5  and  C_6
REMARK                            x       y       z     vdW  Elec       q    Type
REMARK                         _______ _______ _______ _____ _____    ______ ____
ROOT
ATOM      1  C   UNL     1       3.589   3.383  19.070  0.00  0.00    +0.000 C 
ATOM      2  C   UNL     1       4.913   3.601  18.244  0.00  0.00    +0.000 C 
ATOM      3  C   UNL     1       5.358   5.029  17.840  0.00  0.00    +0.000 C 
ATOM      4  C   UNL     1       4.876   5.527  16.477  0.00  0.00    +0.000 C 
ATOM      5  C   UNL     1       4.674   7.051  16.320  0.00  0.00    +0.000 C 
ATOM      6  C   UNL     1       4.038   7.866  17.467  0.00  0.00    +0.000 C 
ATOM      7  C   UNL     1       2.508   7.792  17.561  0.00  0.00    +0.000 C 
ATOM      8  C   UNL     1       1.905   8.138  18.938  0.00  0.00    +0.000 C 
ATOM      9  C   UNL     1       2.286   7.210  20.108  0.00  0.00    +0.000 C 
ATOM     10  C   UNL     1       1.477   5.905  20.181  0.00  0.00    +0.000 C 
ATOM     11  C   UNL     1       2.170   4.720  20.881  0.00  0.00    +0.000 C 
ATOM     12  C   UNL     1       3.543   4.293  20.334  0.00  0.00    +0.000 C 
ENDROOT
BRANCH   1  13
ATOM     13  O   UNL     1       3.657   2.035  19.633  0.00  0.00    +0.000 OA
ATOM     14  C   UNL     1       4.743   1.812  20.523  0.00  0.00    +0.000 C 
ENDBRANCH   1  13
BRANCH   1  15
ATOM     15  O   UNL     1       2.363   3.428  18.330  0.00  0.00    +0.000 OA
BRANCH  15  17
ATOM     16  C   UNL     1       0.477   2.235  18.827  0.00  0.00    +0.000 C 
ATOM     17  O   UNL     1       1.789   2.114  18.292  0.00  0.00    +0.000 OA
ENDBRANCH  15  17
ENDBRANCH   1  15
TORSDOF 3
ENDMDL
MODEL 7
REMARK VINA RESULT:      -4.7     10.409     12.617
REMARK  Name = 
REMARK  5 active torsions:
REMARK  status: ('A' for Active; 'I' for Inactive)
REMARK    1  A    between atoms: C_1  and  O_2
REMARK    2  A    between atoms: O_2  and  O_3
REMARK    3  A    between atoms: O_3  and  C_4
REMARK    4  A    between atoms: C_4  and  O_5
REMARK    5  A    between atoms: O_5  and  C_6
REMARK                            x       y       z     vdW  Elec       q    Type
REMARK                         _______ _______ _______ _____ _____    ______ ____
ROOT
ATOM      1  C   UNL     1      10.031  16.309  18.817  0.00  0.00    +0.000 C 
ATOM      2  C   UNL     1       9.935  16.215  20.387  0.00  0.00    +0.000 C 
ATOM      3  C   UNL     1      10.367  14.922  21.123  0.00  0.00    +0.000 C 
ATOM      4  C   UNL     1       9.268  13.888  21.373  0.00  0.00    +0.000 C 
ATOM      5  C   UNL     1       9.704  12.407  21.436  0.00  0.00    +0.000 C 
ATOM      6  C   UNL     1      10.757  11.871  20.441  0.00  0.00    +0.000 C 
ATOM      7  C   UNL     1      10.232  11.534  19.039  0.00  0.00    +0.000 C 
ATOM      8  C   UNL     1      11.291  11.506  17.918  0.00  0.00    +0.000 C 
ATOM      9  C   UNL     1      12.011  12.835  17.618  0.00  0.00    +0.000 C 
ATOM     10  C   UNL     1      11.220  13.805  16.725  0.00  0.00    +0.000 C 
ATOM     11  C   UNL     1      11.561  15.299  16.887  0.00  0.00    +0.000 C 
ATOM     12  C   UNL     1      11.442  15.892  18.301  0.00  0.00    +0.000 C 
ENDROOT
BRANCH   1  13
ATOM     13  O   UNL     1       9.956  17.727  18.470  0.00  0.00    +0.000 OA
ATOM     14  C   UNL     1      11.094  18.495  18.840  0.00  0.00    +0.000 C 
ENDBRANCH   1  13
BRANCH   1  15
ATOM     15  O   UNL     1       8.981  15.677  18.076  0.00  0.00    +0.000 OA
BRANCH  15  17
ATOM     16  C   UNL     1       6.831  14.926  18.281  0.00  0.00    +0.000 C 
ATOM     17  O   UNL     1       7.727  15.937  18.724  0.00  0.00    +0.000 OA
ENDBRANCH  15  17
ENDBRANCH   1  15
TORSDOF 3
ENDMDL
MODEL 8
REMARK VINA RESULT:      -4.7      1.595      2.612
REMARK  Name = 
REMARK  5 active torsions:
REMARK  status: ('A' for Active; 'I' for Inactive)
REMARK    1  A    between atoms: C_1  and  O_2
REMARK    2  A    between atoms: O_2  and  O_3
REMARK    3  A    between atoms: O_3  and  C_4
REMARK    4  A    between atoms: C_4  and  O_5
REMARK    5  A    between atoms: O_5  and  C_6
REMARK                            x       y       z     vdW  Elec       q    Type
REMARK                         _______ _______ _______ _____ _____    ______ ____
ROOT
ATOM      1  C   UNL     1       4.788   3.808  17.458  0.00  0.00    +0.000 C 
ATOM      2  C   UNL     1       3.832   2.619  17.068  0.00  0.00    +0.000 C 
ATOM      3  C   UNL     1       2.356   2.613  17.539  0.00  0.00    +0.000 C 
ATOM      4  C   UNL     1       2.072   1.905  18.865  0.00  0.00    +0.000 C 
ATOM      5  C   UNL     1       0.879   2.428  19.695  0.00  0.00    +0.000 C 
ATOM      6  C   UNL     1       0.628   3.948  19.810  0.00  0.00    +0.000 C 
ATOM      7  C   UNL     1       1.507   4.689  20.826  0.00  0.00    +0.000 C 
ATOM      8  C   UNL     1       1.653   6.208  20.601  0.00  0.00    +0.000 C 
ATOM      9  C   UNL     1       2.337   6.646  19.291  0.00  0.00    +0.000 C 
ATOM     10  C   UNL     1       3.873   6.592  19.321  0.00  0.00    +0.000 C 
ATOM     11  C   UNL     1       4.567   6.413  17.957  0.00  0.00    +0.000 C 
ATOM     12  C   UNL     1       4.154   5.191  17.119  0.00  0.00    +0.000 C 
ENDROOT
BRANCH   1  13
ATOM     13  O   UNL     1       5.939   3.741  16.559  0.00  0.00    +0.000 OA
ATOM     14  C   UNL     1       5.665   4.090  15.208  0.00  0.00    +0.000 C 
ENDBRANCH   1  13
BRANCH   1  15
ATOM     15  O   UNL     1       5.334   3.778  18.782  0.00  0.00    +0.000 OA
BRANCH  15  17
ATOM     16  C   UNL     1       4.621   2.577  20.592  0.00  0.00    +0.000 C 
ATOM     17  O   UNL     1       5.218   2.448  19.309  0.00  0.00    +0.000 OA
ENDBRANCH  15  17
ENDBRANCH   1  15
TORSDOF 3
ENDMDL
MODEL 9
REMARK VINA RESULT:      -4.6      6.189      8.698
REMARK  Name = 
REMARK  5 active torsions:
REMARK  status: ('A' for Active; 'I' for Inactive)
REMARK    1  A    between atoms: C_1  and  O_2
REMARK    2  A    between atoms: O_2  and  O_3
REMARK    3  A    between atoms: O_3  and  C_4
REMARK    4  A    between atoms: C_4  and  O_5
REMARK    5  A    between atoms: O_5  and  C_6
REMARK                            x       y       z     vdW  Elec       q    Type
REMARK                         _______ _______ _______ _____ _____    ______ ____
ROOT
ATOM      1  C   UNL     1      -0.334  12.513  19.166  0.00  0.00    +0.000 C 
ATOM      2  C   UNL     1      -0.658  13.219  20.537  0.00  0.00    +0.000 C 
ATOM      3  C   UNL     1      -0.366  12.499  21.877  0.00  0.00    +0.000 C 
ATOM      4  C   UNL     1      -1.512  11.674  22.465  0.00  0.00    +0.000 C 
ATOM      5  C   UNL     1      -1.123  10.453  23.328  0.00  0.00    +0.000 C 
ATOM      6  C   UNL     1       0.050   9.547  22.896  0.00  0.00    +0.000 C 
ATOM      7  C   UNL     1      -0.273   8.521  21.802  0.00  0.00    +0.000 C 
ATOM      8  C   UNL     1       0.935   7.988  21.005  0.00  0.00    +0.000 C 
ATOM      9  C   UNL     1       1.720   9.022  20.174  0.00  0.00    +0.000 C 
ATOM     10  C   UNL     1       1.089   9.365  18.815  0.00  0.00    +0.000 C 
ATOM     11  C   UNL     1       1.435  10.752  18.242  0.00  0.00    +0.000 C 
ATOM     12  C   UNL     1       1.126  11.971  19.129  0.00  0.00    +0.000 C 
ENDROOT
BRANCH   1  13
ATOM     13  O   UNL     1      -0.327  13.556  18.142  0.00  0.00    +0.000 OA
ATOM     14  C   UNL     1      -0.210  14.883  18.639  0.00  0.00    +0.000 C 
ENDBRANCH   1  13
BRANCH   1  15
ATOM     15  O   UNL     1      -1.281  11.538  18.713  0.00  0.00    +0.000 OA
BRANCH  15  17
ATOM     16  C   UNL     1      -2.432  10.766  16.894  0.00  0.00    +0.000 C 
ATOM     17  O   UNL     1      -1.731  11.895  17.398  0.00  0.00    +0.000 OA
ENDBRANCH  15  17
ENDBRANCH   1  15
TORSDOF 3
ENDMDL
