MODEL 1
REMARK VINA RESULT:      -5.9      0.000      0.000
REMARK  Name = 
REMARK  2 active torsions:
REMARK  status: ('A' for Active; 'I' for Inactive)
REMARK    1  A    between atoms: C_1  and  O_2
REMARK    2  A    between atoms: O_2  and  C_3
REMARK                            x       y       z     vdW  Elec       q    Type
REMARK                         _______ _______ _______ _____ _____    ______ ____
ROOT
ATOM      1  C   UNL     1       6.384   5.872  16.695  0.00  0.00    +0.000 A 
ATOM      2  C   UNL     1       6.291   4.530  16.281  0.00  0.00    +0.000 A 
ATOM      3  C   UNL     1       5.110   3.808  16.474  0.00  0.00    +0.000 A 
ATOM      4  C   UNL     1       4.051   4.458  17.079  0.00  0.00    +0.000 A 
ATOM      5  C   UNL     1       4.116   5.781  17.494  0.00  0.00    +0.000 A 
ATOM      6  C   UNL     1       5.285   6.501  17.303  0.00  0.00    +0.000 A 
ATOM      7  C   UNL     1       2.839   6.248  18.112  0.00  0.00    +0.000 C 
ATOM      8  C   UNL     1       1.917   5.015  18.070  0.00  0.00    +0.000 C 
ATOM      9  C   UNL     1       2.730   3.938  17.396  0.00  0.00    +0.000 C 
ATOM     10  O   UNL     1       2.365   2.802  17.151  0.00  0.00    +0.000 OA
ENDROOT
BRANCH   1  12
ATOM     11  C   UNL     1       7.683   7.671  17.552  0.00  0.00    +0.000 C 
ATOM     12  O   UNL     1       7.489   6.670  16.558  0.00  0.00    +0.000 OA
ENDBRANCH   1  12
TORSDOF 1
ENDMDL
MODEL 2
REMARK VINA RESULT:      -5.8      2.054      2.727
REMARK  Name = 
REMARK  2 active torsions:
REMARK  status: ('A' for Active; 'I' for Inactive)
REMARK    1  A    between atoms: C_1  and  O_2
REMARK    2  A    between atoms: O_2  and  C_3
REMARK                            x       y       z     vdW  Elec       q    Type
REMARK                         _______ _______ _______ _____ _____    ______ ____
ROOT
ATOM      1  C   UNL     1       4.675   4.845  18.023  0.00  0.00    +0.000 A 
ATOM      2  C   UNL     1       4.018   4.105  17.024  0.00  0.00    +0.000 A 
ATOM      3  C   UNL     1       2.813   3.451  17.300  0.00  0.00    +0.000 A 
ATOM      4  C   UNL     1       2.301   3.562  18.578  0.00  0.00    +0.000 A 
ATOM      5  C   UNL     1       2.928   4.288  19.582  0.00  0.00    +0.000 A 
ATOM      6  C   UNL     1       4.122   4.939  19.311  0.00  0.00    +0.000 A 
ATOM      7  C   UNL     1       2.169   4.255  20.868  0.00  0.00    +0.000 C 
ATOM      8  C   UNL     1       0.948   3.366  20.572  0.00  0.00    +0.000 C 
ATOM      9  C   UNL     1       1.083   2.981  19.120  0.00  0.00    +0.000 C 
ATOM     10  O   UNL     1       0.311   2.290  18.480  0.00  0.00    +0.000 OA
ENDROOT
BRANCH   1  12
ATOM     11  C   UNL     1       7.042   4.735  17.816  0.00  0.00    +0.000 C 
ATOM     12  O   UNL     1       5.856   5.521  17.864  0.00  0.00    +0.000 OA
ENDBRANCH   1  12
TORSDOF 1
ENDMDL
MODEL 3
REMARK VINA RESULT:      -5.7      3.414      4.329
REMARK  Name = 
REMARK  2 active torsions:
REMARK  status: ('A' for Active; 'I' for Inactive)
REMARK    1  A    between atoms: C_1  and  O_2
REMARK    2  A    between atoms: O_2  and  C_3
REMARK                            x       y       z     vdW  Elec       q    Type
REMARK                         _______ _______ _______ _____ _____    ______ ____
ROOT
ATOM      1  C   UNL     1       2.533   6.734  18.607  0.00  0.00    +0.000 A 
ATOM      2  C   UNL     1       2.236   6.746  19.982  0.00  0.00    +0.000 A 
ATOM      3  C   UNL     1       1.841   5.574  20.634  0.00  0.00    +0.000 A 
ATOM      4  C   UNL     1       1.758   4.418  19.882  0.00  0.00    +0.000 A 
ATOM      5  C   UNL     1       2.049   4.378  18.525  0.00  0.00    +0.000 A 
ATOM      6  C   UNL     1       2.441   5.538  17.876  0.00  0.00    +0.000 A 
ATOM      7  C   UNL     1       1.888   3.010  17.947  0.00  0.00    +0.000 C 
ATOM      8  C   UNL     1       1.415   2.146  19.130  0.00  0.00    +0.000 C 
ATOM      9  C   UNL     1       1.372   3.083  20.311  0.00  0.00    +0.000 C 
ATOM     10  O   UNL     1       1.061   2.795  21.453  0.00  0.00    +0.000 OA
ENDROOT
BRANCH   1  12
ATOM     11  C   UNL     1       2.042   8.937  17.855  0.00  0.00    +0.000 C 
ATOM     12  O   UNL     1       2.925   7.820  17.870  0.00  0.00    +0.000 OA
ENDBRANCH   1  12
TORSDOF 1
ENDMDL
MODEL 4
REMARK VINA RESULT:      -5.7      1.131      4.860
REMARK  Name = 
REMARK  2 active torsions:
REMARK  status: ('A' for Active; 'I' for Inactive)
REMARK    1  A    between atoms: C_1  and  O_2
REMARK    2  A    between atoms: O_2  and  C_3
REMARK                            x       y       z     vdW  Elec       q    Type
REMARK                         _______ _______ _______ _____ _____    ______ ____
ROOT
ATOM      1  C   UNL     1       2.313   4.337  17.711  0.00  0.00    +0.000 A 
ATOM      2  C   UNL     1       2.493   5.681  18.085  0.00  0.00    +0.000 A 
ATOM      3  C   UNL     1       3.675   6.356  17.766  0.00  0.00    +0.000 A 
ATOM      4  C   UNL     1       4.646   5.657  17.075  0.00  0.00    +0.000 A 
ATOM      5  C   UNL     1       4.494   4.332  16.691  0.00  0.00    +0.000 A 
ATOM      6  C   UNL     1       3.322   3.660  17.005  0.00  0.00    +0.000 A 
ATOM      7  C   UNL     1       5.684   3.811  15.953  0.00  0.00    +0.000 C 
ATOM      8  C   UNL     1       6.670   4.993  15.930  0.00  0.00    +0.000 C 
ATOM      9  C   UNL     1       5.952   6.119  16.631  0.00  0.00    +0.000 C 
ATOM     10  O   UNL     1       6.379   7.245  16.817  0.00  0.00    +0.000 OA
ENDROOT
BRANCH   1  12
ATOM     11  C   UNL     1       1.413   2.337  18.631  0.00  0.00    +0.000 C 
ATOM     12  O   UNL     1       1.201   3.581  17.973  0.00  0.00    +0.000 OA
ENDBRANCH   1  12
TORSDOF 1
ENDMDL
MODEL 5
REMARK VINA RESULT:      -5.7      2.098      2.817
REMARK  Name = 
REMARK  2 active torsions:
REMARK  status: ('A' for Active; 'I' for Inactive)
REMARK    1  A    between atoms: C_1  and  O_2
REMARK    2  A    between atoms: O_2  and  C_3
REMARK                            x       y       z     vdW  Elec       q    Type
REMARK                         _______ _______ _______ _____ _____    ______ ____
ROOT
ATOM      1  C   UNL     1       5.486   4.954  19.133  0.00  0.00    +0.000 A 
ATOM      2  C   UNL     1       4.768   5.868  18.340  0.00  0.00    +0.000 A 
ATOM      3  C   UNL     1       3.500   5.540  17.850  0.00  0.00    +0.000 A 
ATOM      4  C   UNL     1       2.988   4.298  18.174  0.00  0.00    +0.000 A 
ATOM      5  C   UNL     1       3.675   3.380  18.956  0.00  0.00    +0.000 A 
ATOM      6  C   UNL     1       4.932   3.702  19.445  0.00  0.00    +0.000 A 
ATOM      7  C   UNL     1       2.903   2.117  19.164  0.00  0.00    +0.000 C 
ATOM      8  C   UNL     1       1.601   2.328  18.370  0.00  0.00    +0.000 C 
ATOM      9  C   UNL     1       1.711   3.716  17.792  0.00  0.00    +0.000 C 
ATOM     10  O   UNL     1       0.880   4.282  17.105  0.00  0.00    +0.000 OA
ENDROOT
BRANCH   1  12
ATOM     11  C   UNL     1       7.688   5.797  18.814  0.00  0.00    +0.000 C 
ATOM     12  O   UNL     1       6.732   5.170  19.662  0.00  0.00    +0.000 OA
ENDBRANCH   1  12
TORSDOF 1
ENDMDL
MODEL 6
REMARK VINA RESULT:      -5.6      1.716      4.662
REMARK  Name = 
REMARK  2 active torsions:
REMARK  status: ('A' for Active; 'I' for Inactive)
REMARK    1  A    between atoms: C_1  and  O_2
REMARK    2  A    between atoms: O_2  and  C_3
REMARK                            x       y       z     vdW  Elec       q    Type
REMARK                         _______ _______ _______ _____ _____    ______ ____
ROOT
ATOM      1  C   UNL     1       3.777   3.489  18.434  0.00  0.00    +0.000 A 
ATOM      2  C   UNL     1       3.878   3.627  17.037  0.00  0.00    +0.000 A 
ATOM      3  C   UNL     1       4.923   4.362  16.469  0.00  0.00    +0.000 A 
ATOM      4  C   UNL     1       5.842   4.939  17.325  0.00  0.00    +0.000 A 
ATOM      5  C   UNL     1       5.767   4.816  18.705  0.00  0.00    +0.000 A 
ATOM      6  C   UNL     1       4.732   4.087  19.272  0.00  0.00    +0.000 A 
ATOM      7  C   UNL     1       6.880   5.527  19.403  0.00  0.00    +0.000 C 
ATOM      8  C   UNL     1       7.697   6.170  18.267  0.00  0.00    +0.000 C 
ATOM      9  C   UNL     1       7.004   5.748  16.995  0.00  0.00    +0.000 C 
ATOM     10  O   UNL     1       7.340   6.032  15.860  0.00  0.00    +0.000 OA
ENDROOT
BRANCH   1  12
ATOM     11  C   UNL     1       1.578   2.583  18.391  0.00  0.00    +0.000 C 
ATOM     12  O   UNL     1       2.797   2.796  19.095  0.00  0.00    +0.000 OA
ENDBRANCH   1  12
TORSDOF 1
ENDMDL
MODEL 7
REMARK VINA RESULT:      -5.6      3.425      4.525
REMARK  Name = 
REMARK  2 active torsions:
REMARK  status: ('A' for Active; 'I' for Inactive)
REMARK    1  A    between atoms: C_1  and  O_2
REMARK    2  A    between atoms: O_2  and  C_3
REMARK                            x       y       z     vdW  Elec       q    Type
REMARK                         _______ _______ _______ _____ _____    ______ ____
ROOT
ATOM      1  C   UNL     1       2.093   6.907  19.769  0.00  0.00    +0.000 A 
ATOM      2  C   UNL     1       2.497   6.674  18.441  0.00  0.00    +0.000 A 
ATOM      3  C   UNL     1       2.476   5.382  17.908  0.00  0.00    +0.000 A 
ATOM      4  C   UNL     1       2.047   4.356  18.729  0.00  0.00    +0.000 A 
ATOM      5  C   UNL     1       1.641   4.559  20.040  0.00  0.00    +0.000 A 
ATOM      6  C   UNL     1       1.659   5.839  20.572  0.00  0.00    +0.000 A 
ATOM      7  C   UNL     1       1.220   3.291  20.710  0.00  0.00    +0.000 C 
ATOM      8  C   UNL     1       1.437   2.202  19.643  0.00  0.00    +0.000 C 
ATOM      9  C   UNL     1       1.937   2.938  18.425  0.00  0.00    +0.000 C 
ATOM     10  O   UNL     1       2.219   2.445  17.347  0.00  0.00    +0.000 OA
ENDROOT
BRANCH   1  12
ATOM     11  C   UNL     1       1.065   8.331  21.372  0.00  0.00    +0.000 C 
ATOM     12  O   UNL     1       2.076   8.127  20.391  0.00  0.00    +0.000 OA
ENDBRANCH   1  12
TORSDOF 1
ENDMDL
MODEL 8
REMARK VINA RESULT:      -5.6      1.892      4.884
REMARK  Name = 
REMARK  2 active torsions:
REMARK  status: ('A' for Active; 'I' for Inactive)
REMARK    1  A    between atoms: C_1  and  O_2
REMARK    2  A    between atoms: O_2  and  C_3
REMARK                            x       y       z     vdW  Elec       q    Type
REMARK                         _______ _______ _______ _____ _____    ______ ____
ROOT
ATOM      1  C   UNL     1       2.778   3.629  17.975  0.00  0.00    +0.000 A 
ATOM      2  C   UNL     1       3.471   3.792  19.189  0.00  0.00    +0.000 A 
ATOM      3  C   UNL     1       4.833   4.108  19.192  0.00  0.00    +0.000 A 
ATOM      4  C   UNL     1       5.461   4.253  17.970  0.00  0.00    +0.000 A 
ATOM      5  C   UNL     1       4.800   4.100  16.759  0.00  0.00    +0.000 A 
ATOM      6  C   UNL     1       3.449   3.788  16.752  0.00  0.00    +0.000 A 
ATOM      7  C   UNL     1       5.701   4.314  15.586  0.00  0.00    +0.000 C 
ATOM      8  C   UNL     1       7.079   4.606  16.208  0.00  0.00    +0.000 C 
ATOM      9  C   UNL     1       6.855   4.571  17.699  0.00  0.00    +0.000 C 
ATOM     10  O   UNL     1       7.692   4.766  18.561  0.00  0.00    +0.000 OA
ENDROOT
BRANCH   1  12
ATOM     11  C   UNL     1       0.891   2.492  18.872  0.00  0.00    +0.000 C 
ATOM     12  O   UNL     1       1.449   3.318  17.856  0.00  0.00    +0.000 OA
ENDBRANCH   1  12
TORSDOF 1
ENDMDL
MODEL 9
REMARK VINA RESULT:      -5.6      1.767      3.019
REMARK  Name = 
REMARK  2 active torsions:
REMARK  status: ('A' for Active; 'I' for Inactive)
REMARK    1  A    between atoms: C_1  and  O_2
REMARK    2  A    between atoms: O_2  and  C_3
REMARK                            x       y       z     vdW  Elec       q    Type
REMARK                         _______ _______ _______ _____ _____    ______ ____
ROOT
ATOM      1  C   UNL     1       4.449   5.381  16.970  0.00  0.00    +0.000 A 
ATOM      2  C   UNL     1       3.812   6.242  17.882  0.00  0.00    +0.000 A 
ATOM      3  C   UNL     1       2.789   5.768  18.710  0.00  0.00    +0.000 A 
ATOM      4  C   UNL     1       2.437   4.437  18.598  0.00  0.00    +0.000 A 
ATOM      5  C   UNL     1       3.051   3.566  17.709  0.00  0.00    +0.000 A 
ATOM      6  C   UNL     1       4.066   4.032  16.887  0.00  0.00    +0.000 A 
ATOM      7  C   UNL     1       2.492   2.183  17.786  0.00  0.00    +0.000 C 
ATOM      8  C   UNL     1       1.384   2.275  18.852  0.00  0.00    +0.000 C 
ATOM      9  C   UNL     1       1.415   3.705  19.331  0.00  0.00    +0.000 C 
ATOM     10  O   UNL     1       0.704   4.197  20.188  0.00  0.00    +0.000 OA
ENDROOT
BRANCH   1  12
ATOM     11  C   UNL     1       6.614   4.910  16.105  0.00  0.00    +0.000 C 
ATOM     12  O   UNL     1       5.456   5.737  16.112  0.00  0.00    +0.000 OA
ENDBRANCH   1  12
TORSDOF 1
ENDMDL
