MODEL 1
REMARK VINA RESULT:      -6.1      0.000      0.000
REMARK  Name = 
REMARK  9 active torsions:
REMARK  status: ('A' for Active; 'I' for Inactive)
REMARK    1  A    between atoms: C_1  and  C_2
REMARK    2  A    between atoms: C_2  and  O_3
REMARK    3  A    between atoms: O_3  and  C_4
REMARK    4  A    between atoms: C_4  and  C_5
REMARK    5  A    between atoms: C_5  and  C_6
REMARK    6  A    between atoms: C_6  and  N_7
REMARK    7  A    between atoms: C_8  and  S_9
REMARK    8  A    between atoms: N_13  and  C_14
REMARK    9  A    between atoms: C_14  and  C_15
REMARK                            x       y       z     vdW  Elec       q    Type
REMARK                         _______ _______ _______ _____ _____    ______ ____
ROOT
ATOM      1  N   UNL     1       5.461   3.994  15.162  0.00  0.00    +0.000 NA
ATOM      2  C   UNL     1       5.714   4.888  16.048  0.00  0.00    +0.000 C 
ATOM      3  N   UNL     1       4.830   5.188  17.073  0.00  0.00    +0.000 N 
ATOM      4  C   UNL     1       4.752   6.492  17.741  0.00  0.00    +0.000 C 
ATOM      5  C   UNL     1       3.293   6.993  17.821  0.00  0.00    +0.000 C 
ATOM      6  N   UNL     1       2.325   6.035  18.408  0.00  0.00    +0.000 NA
ATOM      7  C   UNL     1       2.457   4.763  17.649  0.00  0.00    +0.000 C 
ATOM      8  C   UNL     1       3.883   4.183  17.593  0.00  0.00    +0.000 C 
ENDROOT
BRANCH   2   9
ATOM      9  S   UNL     1       7.234   5.845  16.081  0.00  0.00    +0.000 S 
ATOM     10  H   UNL     1       7.308   6.145  14.784  0.00  0.00    +0.000 HD
ENDBRANCH   2   9
BRANCH   1  11
ATOM     11  C   UNL     1       6.378   3.724  14.050  0.00  0.00    +0.000 C 
BRANCH  11  12
ATOM     12  C   UNL     1       5.654   3.813  12.710  0.00  0.00    +0.000 C 
BRANCH  12  13
ATOM     13  C   UNL     1       5.796   2.548  11.865  0.00  0.00    +0.000 C 
BRANCH  13  14
ATOM     14  O   UNL     1       4.619   2.395  11.075  0.00  0.00    +0.000 OA
BRANCH  14  16
ATOM     15  C   UNL     1       3.103   3.739   9.842  0.00  0.00    +0.000 C 
ATOM     16  C   UNL     1       3.729   3.498  11.202  0.00  0.00    +0.000 C 
ENDBRANCH  14  16
ENDBRANCH  13  14
ENDBRANCH  12  13
ENDBRANCH  11  12
ENDBRANCH   1  11
BRANCH   6  17
ATOM     17  C   UNL     1       2.588   5.888  19.853  0.00  0.00    +0.000 C 
BRANCH  17  18
ATOM     18  C   UNL     1       2.133   4.588  20.417  0.00  0.00    +0.000 A 
ATOM     19  C   UNL     1       0.904   3.976  20.550  0.00  0.00    +0.000 A 
ATOM     20  C   UNL     1       1.138   2.748  21.209  0.00  0.00    +0.000 A 
ATOM     21  C   UNL     1       2.491   2.684  21.439  0.00  0.00    +0.000 A 
ATOM     22  O   UNL     1       3.106   3.794  20.960  0.00  0.00    +0.000 OA
ENDBRANCH  17  18
ENDBRANCH   6  17
TORSDOF 8
ENDMDL
MODEL 2
REMARK VINA RESULT:      -5.9      1.307      1.791
REMARK  Name = 
REMARK  9 active torsions:
REMARK  status: ('A' for Active; 'I' for Inactive)
REMARK    1  A    between atoms: C_1  and  C_2
REMARK    2  A    between atoms: C_2  and  O_3
REMARK    3  A    between atoms: O_3  and  C_4
REMARK    4  A    between atoms: C_4  and  C_5
REMARK    5  A    between atoms: C_5  and  C_6
REMARK    6  A    between atoms: C_6  and  N_7
REMARK    7  A    between atoms: C_8  and  S_9
REMARK    8  A    between atoms: N_13  and  C_14
REMARK    9  A    between atoms: C_14  and  C_15
REMARK                            x       y       z     vdW  Elec       q    Type
REMARK                         _______ _______ _______ _____ _____    ______ ____
ROOT
ATOM      1  N   UNL     1       5.468   3.744  13.626  0.00  0.00    +0.000 NA
ATOM      2  C   UNL     1       6.057   4.483  14.495  0.00  0.00    +0.000 C 
ATOM      3  N   UNL     1       5.551   4.676  15.771  0.00  0.00    +0.000 N 
ATOM      4  C   UNL     1       5.800   5.870  16.586  0.00  0.00    +0.000 C 
ATOM      5  C   UNL     1       4.486   6.431  17.173  0.00  0.00    +0.000 C 
ATOM      6  N   UNL     1       3.649   5.451  17.905  0.00  0.00    +0.000 NA
ATOM      7  C   UNL     1       3.426   4.299  16.991  0.00  0.00    +0.000 C 
ATOM      8  C   UNL     1       4.709   3.658  16.428  0.00  0.00    +0.000 C 
ENDROOT
BRANCH   2   9
ATOM      9  S   UNL     1       7.603   5.341  14.177  0.00  0.00    +0.000 S 
ATOM     10  H   UNL     1       7.917   4.762  13.018  0.00  0.00    +0.000 HD
ENDBRANCH   2   9
BRANCH   1  11
ATOM     11  C   UNL     1       5.983   3.592  12.262  0.00  0.00    +0.000 C 
BRANCH  11  12
ATOM     12  C   UNL     1       5.137   2.603  11.464  0.00  0.00    +0.000 C 
BRANCH  12  13
ATOM     13  C   UNL     1       3.681   3.040  11.317  0.00  0.00    +0.000 C 
BRANCH  13  14
ATOM     14  O   UNL     1       3.630   4.168  10.446  0.00  0.00    +0.000 OA
BRANCH  14  16
ATOM     15  C   UNL     1       2.141   5.169   8.896  0.00  0.00    +0.000 C 
ATOM     16  C   UNL     1       2.899   3.905   9.254  0.00  0.00    +0.000 C 
ENDBRANCH  14  16
ENDBRANCH  13  14
ENDBRANCH  12  13
ENDBRANCH  11  12
ENDBRANCH   1  11
BRANCH   6  17
ATOM     17  C   UNL     1       4.314   5.079  19.170  0.00  0.00    +0.000 C 
BRANCH  17  18
ATOM     18  C   UNL     1       3.503   4.176  20.031  0.00  0.00    +0.000 A 
ATOM     19  C   UNL     1       3.594   2.845  20.382  0.00  0.00    +0.000 A 
ATOM     20  C   UNL     1       2.485   2.575  21.215  0.00  0.00    +0.000 A 
ATOM     21  C   UNL     1       1.785   3.753  21.323  0.00  0.00    +0.000 A 
ATOM     22  O   UNL     1       2.396   4.733  20.612  0.00  0.00    +0.000 OA
ENDBRANCH  17  18
ENDBRANCH   6  17
TORSDOF 8
ENDMDL
MODEL 3
REMARK VINA RESULT:      -5.7      4.275      8.857
REMARK  Name = 
REMARK  9 active torsions:
REMARK  status: ('A' for Active; 'I' for Inactive)
REMARK    1  A    between atoms: C_1  and  C_2
REMARK    2  A    between atoms: C_2  and  O_3
REMARK    3  A    between atoms: O_3  and  C_4
REMARK    4  A    between atoms: C_4  and  C_5
REMARK    5  A    between atoms: C_5  and  C_6
REMARK    6  A    between atoms: C_6  and  N_7
REMARK    7  A    between atoms: C_8  and  S_9
REMARK    8  A    between atoms: N_13  and  C_14
REMARK    9  A    between atoms: C_14  and  C_15
REMARK                            x       y       z     vdW  Elec       q    Type
REMARK                         _______ _______ _______ _____ _____    ______ ____
ROOT
ATOM      1  N   UNL     1       1.514   8.232  20.568  0.00  0.00    +0.000 NA
ATOM      2  C   UNL     1       1.855   8.223  19.330  0.00  0.00    +0.000 C 
ATOM      3  N   UNL     1       2.594   7.191  18.772  0.00  0.00    +0.000 N 
ATOM      4  C   UNL     1       3.476   7.343  17.609  0.00  0.00    +0.000 C 
ATOM      5  C   UNL     1       4.863   6.717  17.875  0.00  0.00    +0.000 C 
ATOM      6  N   UNL     1       4.846   5.314  18.350  0.00  0.00    +0.000 NA
ATOM      7  C   UNL     1       3.955   5.268  19.542  0.00  0.00    +0.000 C 
ATOM      8  C   UNL     1       2.535   5.820  19.314  0.00  0.00    +0.000 C 
ENDROOT
BRANCH   2   9
ATOM      9  S   UNL     1       1.412   9.522  18.173  0.00  0.00    +0.000 S 
ATOM     10  H   UNL     1       2.062  10.533  18.750  0.00  0.00    +0.000 HD
ENDBRANCH   2   9
BRANCH   1  11
ATOM     11  C   UNL     1       0.781   9.355  21.161  0.00  0.00    +0.000 C 
BRANCH  11  12
ATOM     12  C   UNL     1      -0.256   8.861  22.167  0.00  0.00    +0.000 C 
BRANCH  12  13
ATOM     13  C   UNL     1      -0.646   9.920  23.196  0.00  0.00    +0.000 C 
BRANCH  13  14
ATOM     14  O   UNL     1      -0.123  11.178  22.775  0.00  0.00    +0.000 OA
BRANCH  14  16
ATOM     15  C   UNL     1      -1.439  12.470  21.285  0.00  0.00    +0.000 C 
ATOM     16  C   UNL     1      -1.115  12.198  22.741  0.00  0.00    +0.000 C 
ENDBRANCH  14  16
ENDBRANCH  13  14
ENDBRANCH  12  13
ENDBRANCH  11  12
ENDBRANCH   1  11
BRANCH   6  17
ATOM     17  C   UNL     1       4.409   4.425  17.255  0.00  0.00    +0.000 C 
BRANCH  17  18
ATOM     18  C   UNL     1       5.299   4.458  16.063  0.00  0.00    +0.000 A 
ATOM     19  C   UNL     1       5.083   4.413  14.701  0.00  0.00    +0.000 A 
ATOM     20  C   UNL     1       6.358   4.450  14.093  0.00  0.00    +0.000 A 
ATOM     21  C   UNL     1       7.274   4.515  15.116  0.00  0.00    +0.000 A 
ATOM     22  O   UNL     1       6.642   4.525  16.317  0.00  0.00    +0.000 OA
ENDBRANCH  17  18
ENDBRANCH   6  17
TORSDOF 8
ENDMDL
MODEL 4
REMARK VINA RESULT:      -5.6      4.693      7.558
REMARK  Name = 
REMARK  9 active torsions:
REMARK  status: ('A' for Active; 'I' for Inactive)
REMARK    1  A    between atoms: C_1  and  C_2
REMARK    2  A    between atoms: C_2  and  O_3
REMARK    3  A    between atoms: O_3  and  C_4
REMARK    4  A    between atoms: C_4  and  C_5
REMARK    5  A    between atoms: C_5  and  C_6
REMARK    6  A    between atoms: C_6  and  N_7
REMARK    7  A    between atoms: C_8  and  S_9
REMARK    8  A    between atoms: N_13  and  C_14
REMARK    9  A    between atoms: C_14  and  C_15
REMARK                            x       y       z     vdW  Elec       q    Type
REMARK                         _______ _______ _______ _____ _____    ______ ____
ROOT
ATOM      1  N   UNL     1       1.187   9.374  18.645  0.00  0.00    +0.000 NA
ATOM      2  C   UNL     1       1.407   8.609  19.653  0.00  0.00    +0.000 C 
ATOM      3  N   UNL     1       2.175   7.459  19.558  0.00  0.00    +0.000 N 
ATOM      4  C   UNL     1       2.019   6.288  20.429  0.00  0.00    +0.000 C 
ATOM      5  C   UNL     1       1.946   4.984  19.604  0.00  0.00    +0.000 C 
ATOM      6  N   UNL     1       3.050   4.784  18.635  0.00  0.00    +0.000 NA
ATOM      7  C   UNL     1       3.107   6.002  17.783  0.00  0.00    +0.000 C 
ATOM      8  C   UNL     1       3.248   7.329  18.553  0.00  0.00    +0.000 C 
ENDROOT
BRANCH   2   9
ATOM      9  S   UNL     1       0.766   8.935  21.299  0.00  0.00    +0.000 S 
ATOM     10  H   UNL     1       1.041  10.238  21.365  0.00  0.00    +0.000 HD
ENDBRANCH   2   9
BRANCH   1  11
ATOM     11  C   UNL     1       0.327  10.557  18.744  0.00  0.00    +0.000 C 
BRANCH  11  12
ATOM     12  C   UNL     1      -1.025  10.309  18.081  0.00  0.00    +0.000 C 
BRANCH  12  13
ATOM     13  C   UNL     1      -1.801  11.594  17.797  0.00  0.00    +0.000 C 
BRANCH  13  14
ATOM     14  O   UNL     1      -2.855  11.296  16.884  0.00  0.00    +0.000 OA
BRANCH  14  16
ATOM     15  C   UNL     1      -3.015  10.177  14.799  0.00  0.00    +0.000 C 
ATOM     16  C   UNL     1      -2.705  10.018  16.275  0.00  0.00    +0.000 C 
ENDBRANCH  14  16
ENDBRANCH  13  14
ENDBRANCH  12  13
ENDBRANCH  11  12
ENDBRANCH   1  11
BRANCH   6  17
ATOM     17  C   UNL     1       4.306   4.515  19.363  0.00  0.00    +0.000 C 
BRANCH  17  18
ATOM     18  C   UNL     1       5.531   4.729  18.545  0.00  0.00    +0.000 A 
ATOM     19  C   UNL     1       6.682   5.470  18.715  0.00  0.00    +0.000 A 
ATOM     20  C   UNL     1       7.457   5.276  17.549  0.00  0.00    +0.000 A 
ATOM     21  C   UNL     1       6.737   4.431  16.740  0.00  0.00    +0.000 A 
ATOM     22  O   UNL     1       5.567   4.089  17.336  0.00  0.00    +0.000 OA
ENDBRANCH  17  18
ENDBRANCH   6  17
TORSDOF 8
ENDMDL
MODEL 5
REMARK VINA RESULT:      -5.6      2.673      8.017
REMARK  Name = 
REMARK  9 active torsions:
REMARK  status: ('A' for Active; 'I' for Inactive)
REMARK    1  A    between atoms: C_1  and  C_2
REMARK    2  A    between atoms: C_2  and  O_3
REMARK    3  A    between atoms: O_3  and  C_4
REMARK    4  A    between atoms: C_4  and  C_5
REMARK    5  A    between atoms: C_5  and  C_6
REMARK    6  A    between atoms: C_6  and  N_7
REMARK    7  A    between atoms: C_8  and  S_9
REMARK    8  A    between atoms: N_13  and  C_14
REMARK    9  A    between atoms: C_14  and  C_15
REMARK                            x       y       z     vdW  Elec       q    Type
REMARK                         _______ _______ _______ _____ _____    ______ ____
ROOT
ATOM      1  N   UNL     1       3.453   4.975  19.795  0.00  0.00    +0.000 NA
ATOM      2  C   UNL     1       3.470   4.428  18.634  0.00  0.00    +0.000 C 
ATOM      3  N   UNL     1       4.538   4.573  17.761  0.00  0.00    +0.000 N 
ATOM      4  C   UNL     1       4.426   4.495  16.300  0.00  0.00    +0.000 C 
ATOM      5  C   UNL     1       5.135   5.687  15.621  0.00  0.00    +0.000 C 
ATOM      6  N   UNL     1       6.539   5.911  16.036  0.00  0.00    +0.000 NA
ATOM      7  C   UNL     1       6.544   6.008  17.521  0.00  0.00    +0.000 C 
ATOM      8  C   UNL     1       5.908   4.811  18.253  0.00  0.00    +0.000 C 
ENDROOT
BRANCH   2   9
ATOM      9  S   UNL     1       2.135   3.406  18.002  0.00  0.00    +0.000 S 
ATOM     10  H   UNL     1       1.645   4.255  17.098  0.00  0.00    +0.000 HD
ENDBRANCH   2   9
BRANCH   1  11
ATOM     11  C   UNL     1       2.295   4.862  20.688  0.00  0.00    +0.000 C 
BRANCH  11  12
ATOM     12  C   UNL     1       1.609   6.213  20.869  0.00  0.00    +0.000 C 
BRANCH  12  13
ATOM     13  C   UNL     1       2.113   7.278  19.898  0.00  0.00    +0.000 C 
BRANCH  13  14
ATOM     14  O   UNL     1       1.552   8.535  20.271  0.00  0.00    +0.000 OA
BRANCH  14  16
ATOM     15  C   UNL     1      -0.155   9.600  21.527  0.00  0.00    +0.000 C 
ATOM     16  C   UNL     1       0.867   8.479  21.517  0.00  0.00    +0.000 C 
ENDBRANCH  14  16
ENDBRANCH  13  14
ENDBRANCH  12  13
ENDBRANCH  11  12
ENDBRANCH   1  11
BRANCH   6  17
ATOM     17  C   UNL     1       7.390   4.823  15.515  0.00  0.00    +0.000 C 
BRANCH  17  18
ATOM     18  C   UNL     1       7.251   4.601  14.050  0.00  0.00    +0.000 A 
ATOM     19  C   UNL     1       7.751   5.233  12.931  0.00  0.00    +0.000 A 
ATOM     20  C   UNL     1       7.214   4.552  11.814  0.00  0.00    +0.000 A 
ATOM     21  C   UNL     1       6.422   3.548  12.317  0.00  0.00    +0.000 A 
ATOM     22  O   UNL     1       6.439   3.566  13.673  0.00  0.00    +0.000 OA
ENDBRANCH  17  18
ENDBRANCH   6  17
TORSDOF 8
ENDMDL
MODEL 6
REMARK VINA RESULT:      -5.5      1.220      1.524
REMARK  Name = 
REMARK  9 active torsions:
REMARK  status: ('A' for Active; 'I' for Inactive)
REMARK    1  A    between atoms: C_1  and  C_2
REMARK    2  A    between atoms: C_2  and  O_3
REMARK    3  A    between atoms: O_3  and  C_4
REMARK    4  A    between atoms: C_4  and  C_5
REMARK    5  A    between atoms: C_5  and  C_6
REMARK    6  A    between atoms: C_6  and  N_7
REMARK    7  A    between atoms: C_8  and  S_9
REMARK    8  A    between atoms: N_13  and  C_14
REMARK    9  A    between atoms: C_14  and  C_15
REMARK                            x       y       z     vdW  Elec       q    Type
REMARK                         _______ _______ _______ _____ _____    ______ ____
ROOT
ATOM      1  N   UNL     1       6.317   4.891  16.197  0.00  0.00    +0.000 NA
ATOM      2  C   UNL     1       6.111   5.852  17.024  0.00  0.00    +0.000 C 
ATOM      3  N   UNL     1       4.970   5.924  17.809  0.00  0.00    +0.000 N 
ATOM      4  C   UNL     1       4.393   7.175  18.314  0.00  0.00    +0.000 C 
ATOM      5  C   UNL     1       2.875   7.240  18.040  0.00  0.00    +0.000 C 
ATOM      6  N   UNL     1       2.095   6.069  18.505  0.00  0.00    +0.000 NA
ATOM      7  C   UNL     1       2.734   4.860  17.919  0.00  0.00    +0.000 C 
ATOM      8  C   UNL     1       4.238   4.709  18.217  0.00  0.00    +0.000 C 
ENDROOT
BRANCH   2   9
ATOM      9  S   UNL     1       7.267   7.203  17.277  0.00  0.00    +0.000 S 
ATOM     10  H   UNL     1       8.403   6.512  17.186  0.00  0.00    +0.000 HD
ENDBRANCH   2   9
BRANCH   1  11
ATOM     11  C   UNL     1       7.500   4.854  15.332  0.00  0.00    +0.000 C 
BRANCH  11  12
ATOM     12  C   UNL     1       7.101   4.855  13.859  0.00  0.00    +0.000 C 
BRANCH  12  13
ATOM     13  C   UNL     1       6.146   3.720  13.495  0.00  0.00    +0.000 C 
BRANCH  13  14
ATOM     14  O   UNL     1       6.110   3.594  12.074  0.00  0.00    +0.000 OA
BRANCH  14  16
ATOM     15  C   UNL     1       3.992   3.180  11.091  0.00  0.00    +0.000 C 
ATOM     16  C   UNL     1       5.254   2.543  11.641  0.00  0.00    +0.000 C 
ENDBRANCH  14  16
ENDBRANCH  13  14
ENDBRANCH  12  13
ENDBRANCH  11  12
ENDBRANCH   1  11
BRANCH   6  17
ATOM     17  C   UNL     1       2.053   6.055  19.981  0.00  0.00    +0.000 C 
BRANCH  17  18
ATOM     18  C   UNL     1       1.861   4.699  20.563  0.00  0.00    +0.000 A 
ATOM     19  C   UNL     1       2.511   3.972  21.539  0.00  0.00    +0.000 A 
ATOM     20  C   UNL     1       1.858   2.721  21.606  0.00  0.00    +0.000 A 
ATOM     21  C   UNL     1       0.852   2.758  20.671  0.00  0.00    +0.000 A 
ATOM     22  O   UNL     1       0.842   3.955  20.034  0.00  0.00    +0.000 OA
ENDBRANCH  17  18
ENDBRANCH   6  17
TORSDOF 8
ENDMDL
MODEL 7
REMARK VINA RESULT:      -5.5      4.236      6.570
REMARK  Name = 
REMARK  9 active torsions:
REMARK  status: ('A' for Active; 'I' for Inactive)
REMARK    1  A    between atoms: C_1  and  C_2
REMARK    2  A    between atoms: C_2  and  O_3
REMARK    3  A    between atoms: O_3  and  C_4
REMARK    4  A    between atoms: C_4  and  C_5
REMARK    5  A    between atoms: C_5  and  C_6
REMARK    6  A    between atoms: C_6  and  N_7
REMARK    7  A    between atoms: C_8  and  S_9
REMARK    8  A    between atoms: N_13  and  C_14
REMARK    9  A    between atoms: C_14  and  C_15
REMARK                            x       y       z     vdW  Elec       q    Type
REMARK                         _______ _______ _______ _____ _____    ______ ____
ROOT
ATOM      1  N   UNL     1       6.971   7.928  17.472  0.00  0.00    +0.000 NA
ATOM      2  C   UNL     1       6.639   6.770  17.916  0.00  0.00    +0.000 C 
ATOM      3  N   UNL     1       5.320   6.346  17.967  0.00  0.00    +0.000 N 
ATOM      4  C   UNL     1       4.806   5.359  18.924  0.00  0.00    +0.000 C 
ATOM      5  C   UNL     1       3.516   5.863  19.607  0.00  0.00    +0.000 C 
ATOM      6  N   UNL     1       2.447   6.319  18.688  0.00  0.00    +0.000 NA
ATOM      7  C   UNL     1       3.054   7.333  17.784  0.00  0.00    +0.000 C 
ATOM      8  C   UNL     1       4.308   6.861  17.024  0.00  0.00    +0.000 C 
ENDROOT
BRANCH   2   9
ATOM      9  S   UNL     1       7.826   5.561  18.509  0.00  0.00    +0.000 S 
ATOM     10  H   UNL     1       7.730   4.682  17.511  0.00  0.00    +0.000 HD
ENDBRANCH   2   9
BRANCH   1  11
ATOM     11  C   UNL     1       8.363   8.388  17.475  0.00  0.00    +0.000 C 
BRANCH  11  12
ATOM     12  C   UNL     1       8.627   9.327  18.649  0.00  0.00    +0.000 C 
BRANCH  12  13
ATOM     13  C   UNL     1       9.118  10.708  18.216  0.00  0.00    +0.000 C 
BRANCH  13  14
ATOM     14  O   UNL     1       9.544  11.422  19.375  0.00  0.00    +0.000 OA
BRANCH  14  16
ATOM     15  C   UNL     1      11.905  11.649  19.363  0.00  0.00    +0.000 C 
ATOM     16  C   UNL     1      10.587  12.348  19.092  0.00  0.00    +0.000 C 
ENDBRANCH  14  16
ENDBRANCH  13  14
ENDBRANCH  12  13
ENDBRANCH  11  12
ENDBRANCH   1  11
BRANCH   6  17
ATOM     17  C   UNL     1       1.879   5.159  17.973  0.00  0.00    +0.000 C 
BRANCH  17  18
ATOM     18  C   UNL     1       1.634   3.978  18.844  0.00  0.00    +0.000 A 
ATOM     19  C   UNL     1       0.919   3.774  20.007  0.00  0.00    +0.000 A 
ATOM     20  C   UNL     1       1.110   2.419  20.360  0.00  0.00    +0.000 A 
ATOM     21  C   UNL     1       1.926   1.878  19.396  0.00  0.00    +0.000 A 
ATOM     22  O   UNL     1       2.248   2.814  18.468  0.00  0.00    +0.000 OA
ENDBRANCH  17  18
ENDBRANCH   6  17
TORSDOF 8
ENDMDL
MODEL 8
REMARK VINA RESULT:      -5.5      2.393      7.056
REMARK  Name = 
REMARK  9 active torsions:
REMARK  status: ('A' for Active; 'I' for Inactive)
REMARK    1  A    between atoms: C_1  and  C_2
REMARK    2  A    between atoms: C_2  and  O_3
REMARK    3  A    between atoms: O_3  and  C_4
REMARK    4  A    between atoms: C_4  and  C_5
REMARK    5  A    between atoms: C_5  and  C_6
REMARK    6  A    between atoms: C_6  and  N_7
REMARK    7  A    between atoms: C_8  and  S_9
REMARK    8  A    between atoms: N_13  and  C_14
REMARK    9  A    between atoms: C_14  and  C_15
REMARK                            x       y       z     vdW  Elec       q    Type
REMARK                         _______ _______ _______ _____ _____    ______ ____
ROOT
ATOM      1  N   UNL     1       2.931   4.685  19.880  0.00  0.00    +0.000 NA
ATOM      2  C   UNL     1       3.066   5.775  19.216  0.00  0.00    +0.000 C 
ATOM      3  N   UNL     1       3.850   5.858  18.076  0.00  0.00    +0.000 N 
ATOM      4  C   UNL     1       4.502   7.087  17.610  0.00  0.00    +0.000 C 
ATOM      5  C   UNL     1       5.991   6.839  17.281  0.00  0.00    +0.000 C 
ATOM      6  N   UNL     1       6.257   5.712  16.357  0.00  0.00    +0.000 NA
ATOM      7  C   UNL     1       5.587   4.513  16.928  0.00  0.00    +0.000 C 
ATOM      8  C   UNL     1       4.083   4.683  17.214  0.00  0.00    +0.000 C 
ENDROOT
BRANCH   2   9
ATOM      9  S   UNL     1       2.255   7.313  19.666  0.00  0.00    +0.000 S 
ATOM     10  H   UNL     1       0.998   6.871  19.707  0.00  0.00    +0.000 HD
ENDBRANCH   2   9
BRANCH   1  11
ATOM     11  C   UNL     1       2.144   4.622  21.116  0.00  0.00    +0.000 C 
BRANCH  11  12
ATOM     12  C   UNL     1       1.372   3.309  21.208  0.00  0.00    +0.000 C 
BRANCH  12  13
ATOM     13  C   UNL     1       0.748   2.884  19.880  0.00  0.00    +0.000 C 
BRANCH  13  14
ATOM     14  O   UNL     1       1.405   1.702  19.426  0.00  0.00    +0.000 OA
BRANCH  14  16
ATOM     15  C   UNL     1       3.568   1.426  18.495  0.00  0.00    +0.000 C 
ATOM     16  C   UNL     1       2.157   1.918  18.238  0.00  0.00    +0.000 C 
ENDBRANCH  14  16
ENDBRANCH  13  14
ENDBRANCH  12  13
ENDBRANCH  11  12
ENDBRANCH   1  11
BRANCH   6  17
ATOM     17  C   UNL     1       5.787   6.059  15.001  0.00  0.00    +0.000 C 
BRANCH  17  18
ATOM     18  C   UNL     1       6.137   5.049  13.966  0.00  0.00    +0.000 A 
ATOM     19  C   UNL     1       5.541   3.889  13.516  0.00  0.00    +0.000 A 
ATOM     20  C   UNL     1       6.399   3.359  12.525  0.00  0.00    +0.000 A 
ATOM     21  C   UNL     1       7.463   4.223  12.431  0.00  0.00    +0.000 A 
ATOM     22  O   UNL     1       7.313   5.255  13.298  0.00  0.00    +0.000 OA
ENDBRANCH  17  18
ENDBRANCH   6  17
TORSDOF 8
ENDMDL
MODEL 9
REMARK VINA RESULT:      -5.5      4.571      8.664
REMARK  Name = 
REMARK  9 active torsions:
REMARK  status: ('A' for Active; 'I' for Inactive)
REMARK    1  A    between atoms: C_1  and  C_2
REMARK    2  A    between atoms: C_2  and  O_3
REMARK    3  A    between atoms: O_3  and  C_4
REMARK    4  A    between atoms: C_4  and  C_5
REMARK    5  A    between atoms: C_5  and  C_6
REMARK    6  A    between atoms: C_6  and  N_7
REMARK    7  A    between atoms: C_8  and  S_9
REMARK    8  A    between atoms: N_13  and  C_14
REMARK    9  A    between atoms: C_14  and  C_15
REMARK                            x       y       z     vdW  Elec       q    Type
REMARK                         _______ _______ _______ _____ _____    ______ ____
ROOT
ATOM      1  N   UNL     1       1.485   8.629  20.803  0.00  0.00    +0.000 NA
ATOM      2  C   UNL     1       1.631   8.589  19.528  0.00  0.00    +0.000 C 
ATOM      3  N   UNL     1       2.305   7.559  18.890  0.00  0.00    +0.000 N 
ATOM      4  C   UNL     1       2.993   7.696  17.602  0.00  0.00    +0.000 C 
ATOM      5  C   UNL     1       4.422   7.112  17.666  0.00  0.00    +0.000 C 
ATOM      6  N   UNL     1       4.518   5.724  18.176  0.00  0.00    +0.000 NA
ATOM      7  C   UNL     1       3.823   5.694  19.492  0.00  0.00    +0.000 C 
ATOM      8  C   UNL     1       2.370   6.204  19.472  0.00  0.00    +0.000 C 
ENDROOT
BRANCH   2   9
ATOM      9  S   UNL     1       0.978   9.841  18.419  0.00  0.00    +0.000 S 
ATOM     10  H   UNL     1       1.990   9.886  17.552  0.00  0.00    +0.000 HD
ENDBRANCH   2   9
BRANCH   1  11
ATOM     11  C   UNL     1       0.820   9.751  21.472  0.00  0.00    +0.000 C 
BRANCH  11  12
ATOM     12  C   UNL     1      -0.238   9.254  22.454  0.00  0.00    +0.000 C 
BRANCH  12  13
ATOM     13  C   UNL     1      -0.860  10.375  23.285  0.00  0.00    +0.000 C 
BRANCH  13  14
ATOM     14  O   UNL     1      -0.409  11.626  22.771  0.00  0.00    +0.000 OA
BRANCH  14  16
ATOM     15  C   UNL     1      -2.719  12.105  23.014  0.00  0.00    +0.000 C 
ATOM     16  C   UNL     1      -1.319  12.687  23.041  0.00  0.00    +0.000 C 
ENDBRANCH  14  16
ENDBRANCH  13  14
ENDBRANCH  12  13
ENDBRANCH  11  12
ENDBRANCH   1  11
BRANCH   6  17
ATOM     17  C   UNL     1       3.943   4.792  17.186  0.00  0.00    +0.000 C 
BRANCH  17  18
ATOM     18  C   UNL     1       3.392   3.545  17.784  0.00  0.00    +0.000 A 
ATOM     19  C   UNL     1       3.943   2.490  18.481  0.00  0.00    +0.000 A 
ATOM     20  C   UNL     1       2.884   1.592  18.746  0.00  0.00    +0.000 A 
ATOM     21  C   UNL     1       1.755   2.150  18.197  0.00  0.00    +0.000 A 
ATOM     22  O   UNL     1       2.051   3.338  17.613  0.00  0.00    +0.000 OA
ENDBRANCH  17  18
ENDBRANCH   6  17
TORSDOF 8
ENDMDL
