MODEL 1
REMARK VINA RESULT:      -7.4      0.000      0.000
REMARK  Name = 
REMARK  2 active torsions:
REMARK  status: ('A' for Active; 'I' for Inactive)
REMARK    1  A    between atoms: C_2  and  C_3
REMARK    2  A    between atoms: C_8  and  C_9
REMARK                            x       y       z     vdW  Elec       q    Type
REMARK                         _______ _______ _______ _____ _____    ______ ____
ROOT
ATOM      1  C   UNL     1       4.983   5.867  16.341  0.00  0.00    +0.000 C 
ATOM      2  O   UNL     1       5.432   6.928  15.927  0.00  0.00    +0.000 OA
ATOM      3  N   UNL     1       5.176   4.625  15.775  0.00  0.00    +0.000 N 
ATOM      4  C   UNL     1       5.877   4.452  14.578  0.00  0.00    +0.000 A 
ATOM      5  C   UNL     1       7.093   5.084  14.333  0.00  0.00    +0.000 A 
ATOM      6  C   UNL     1       7.707   4.898  13.097  0.00  0.00    +0.000 A 
ATOM      7  C   UNL     1       7.069   4.122  12.138  0.00  0.00    +0.000 A 
ATOM      8  C   UNL     1       5.870   3.525  12.488  0.00  0.00    +0.000 A 
ATOM      9 CL   UNL     1       4.978   2.609  11.344  0.00  0.00    +0.000 Cl
ATOM     10  N   UNL     1       5.282   3.628  13.697  0.00  0.00    +0.000 NA
ATOM     11  H   UNL     1       4.446   3.935  15.899  0.00  0.00    +0.000 HD
ENDROOT
BRANCH   1  17
ATOM     12  C   UNL     1       3.088   4.825  19.454  0.00  0.00    +0.000 A 
ATOM     13  C   UNL     1       2.413   6.010  19.758  0.00  0.00    +0.000 A 
ATOM     14  C   UNL     1       2.575   7.123  18.940  0.00  0.00    +0.000 A 
ATOM     15  F   UNL     1       1.930   8.258  19.240  0.00  0.00    +0.000 F 
ATOM     16  C   UNL     1       3.400   7.078  17.823  0.00  0.00    +0.000 A 
ATOM     17  C   UNL     1       4.065   5.890  17.511  0.00  0.00    +0.000 A 
ATOM     18  C   UNL     1       3.914   4.759  18.321  0.00  0.00    +0.000 A 
BRANCH  12  20
ATOM     19  N   UNL     1       2.837   2.759  20.998  0.00  0.00    +0.000 NA
ATOM     20  C   UNL     1       2.948   3.679  20.305  0.00  0.00    +0.000 C 
ENDBRANCH  12  20
ENDBRANCH   1  17
TORSDOF 2
ENDMDL
MODEL 2
REMARK VINA RESULT:      -7.3      4.024      5.361
REMARK  Name = 
REMARK  2 active torsions:
REMARK  status: ('A' for Active; 'I' for Inactive)
REMARK    1  A    between atoms: C_2  and  C_3
REMARK    2  A    between atoms: C_8  and  C_9
REMARK                            x       y       z     vdW  Elec       q    Type
REMARK                         _______ _______ _______ _____ _____    ______ ____
ROOT
ATOM      1  C   UNL     1       2.111   8.329  18.264  0.00  0.00    +0.000 C 
ATOM      2  O   UNL     1       2.471   8.747  17.171  0.00  0.00    +0.000 OA
ATOM      3  N   UNL     1       2.440   7.110  18.818  0.00  0.00    +0.000 N 
ATOM      4  C   UNL     1       3.192   6.156  18.126  0.00  0.00    +0.000 A 
ATOM      5  C   UNL     1       4.349   6.488  17.428  0.00  0.00    +0.000 A 
ATOM      6  C   UNL     1       5.018   5.487  16.726  0.00  0.00    +0.000 A 
ATOM      7  C   UNL     1       4.487   4.204  16.713  0.00  0.00    +0.000 A 
ATOM      8  C   UNL     1       3.339   3.976  17.453  0.00  0.00    +0.000 A 
ATOM      9 CL   UNL     1       2.576   2.440  17.438  0.00  0.00    +0.000 Cl
ATOM     10  N   UNL     1       2.706   4.904  18.199  0.00  0.00    +0.000 NA
ATOM     11  H   UNL     1       1.775   6.692  19.455  0.00  0.00    +0.000 HD
ENDROOT
BRANCH   1  17
ATOM     12  C   UNL     1       0.240   9.850  21.189  0.00  0.00    +0.000 A 
ATOM     13  C   UNL     1      -0.570  10.777  20.527  0.00  0.00    +0.000 A 
ATOM     14  C   UNL     1      -0.504  10.882  19.142  0.00  0.00    +0.000 A 
ATOM     15  F   UNL     1      -1.278  11.777  18.515  0.00  0.00    +0.000 F 
ATOM     16  C   UNL     1       0.358  10.083  18.402  0.00  0.00    +0.000 A 
ATOM     17  C   UNL     1       1.159   9.146  19.061  0.00  0.00    +0.000 A 
ATOM     18  C   UNL     1       1.106   9.024  20.454  0.00  0.00    +0.000 A 
BRANCH  12  20
ATOM     19  N   UNL     1       0.168   9.676  23.773  0.00  0.00    +0.000 NA
ATOM     20  C   UNL     1       0.199   9.750  22.619  0.00  0.00    +0.000 C 
ENDBRANCH  12  20
ENDBRANCH   1  17
TORSDOF 2
ENDMDL
MODEL 3
REMARK VINA RESULT:      -7.3      1.960      2.412
REMARK  Name = 
REMARK  2 active torsions:
REMARK  status: ('A' for Active; 'I' for Inactive)
REMARK    1  A    between atoms: C_2  and  C_3
REMARK    2  A    between atoms: C_8  and  C_9
REMARK                            x       y       z     vdW  Elec       q    Type
REMARK                         _______ _______ _______ _____ _____    ______ ____
ROOT
ATOM      1  C   UNL     1       5.227   5.601  16.226  0.00  0.00    +0.000 C 
ATOM      2  O   UNL     1       5.356   6.715  15.733  0.00  0.00    +0.000 OA
ATOM      3  N   UNL     1       5.662   4.414  15.679  0.00  0.00    +0.000 N 
ATOM      4  C   UNL     1       6.258   4.349  14.416  0.00  0.00    +0.000 A 
ATOM      5  C   UNL     1       7.248   5.242  14.016  0.00  0.00    +0.000 A 
ATOM      6  C   UNL     1       7.760   5.141  12.725  0.00  0.00    +0.000 A 
ATOM      7  C   UNL     1       7.238   4.181  11.867  0.00  0.00    +0.000 A 
ATOM      8  C   UNL     1       6.266   3.332  12.368  0.00  0.00    +0.000 A 
ATOM      9 CL   UNL     1       5.516   2.164  11.360  0.00  0.00    +0.000 Cl
ATOM     10  N   UNL     1       5.798   3.357  13.632  0.00  0.00    +0.000 NA
ATOM     11  H   UNL     1       5.142   3.576  15.905  0.00  0.00    +0.000 HD
ENDROOT
BRANCH   1  17
ATOM     12  C   UNL     1       2.969   6.381  19.169  0.00  0.00    +0.000 A 
ATOM     13  C   UNL     1       2.940   5.140  19.812  0.00  0.00    +0.000 A 
ATOM     14  C   UNL     1       3.665   4.077  19.287  0.00  0.00    +0.000 A 
ATOM     15  F   UNL     1       3.628   2.889  19.904  0.00  0.00    +0.000 F 
ATOM     16  C   UNL     1       4.417   4.224  18.128  0.00  0.00    +0.000 A 
ATOM     17  C   UNL     1       4.457   5.467  17.491  0.00  0.00    +0.000 A 
ATOM     18  C   UNL     1       3.735   6.550  18.006  0.00  0.00    +0.000 A 
BRANCH  12  20
ATOM     19  N   UNL     1       1.583   8.362  20.102  0.00  0.00    +0.000 NA
ATOM     20  C   UNL     1       2.204   7.478  19.688  0.00  0.00    +0.000 C 
ENDBRANCH  12  20
ENDBRANCH   1  17
TORSDOF 2
ENDMDL
MODEL 4
REMARK VINA RESULT:      -7.2      4.838      7.944
REMARK  Name = 
REMARK  2 active torsions:
REMARK  status: ('A' for Active; 'I' for Inactive)
REMARK    1  A    between atoms: C_2  and  C_3
REMARK    2  A    between atoms: C_8  and  C_9
REMARK                            x       y       z     vdW  Elec       q    Type
REMARK                         _______ _______ _______ _____ _____    ______ ____
ROOT
ATOM      1  C   UNL     1       2.186   6.488  19.770  0.00  0.00    +0.000 C 
ATOM      2  O   UNL     1       1.656   5.867  20.683  0.00  0.00    +0.000 OA
ATOM      3  N   UNL     1       2.107   7.847  19.556  0.00  0.00    +0.000 N 
ATOM      4  C   UNL     1       1.319   8.682  20.355  0.00  0.00    +0.000 A 
ATOM      5  C   UNL     1       1.322   8.599  21.744  0.00  0.00    +0.000 A 
ATOM      6  C   UNL     1       0.475   9.435  22.467  0.00  0.00    +0.000 A 
ATOM      7  C   UNL     1      -0.371  10.294  21.779  0.00  0.00    +0.000 A 
ATOM      8  C   UNL     1      -0.285  10.311  20.397  0.00  0.00    +0.000 A 
ATOM      9 CL   UNL     1      -1.341  11.289  19.463  0.00  0.00    +0.000 Cl
ATOM     10  N   UNL     1       0.571   9.565  19.670  0.00  0.00    +0.000 NA
ATOM     11  H   UNL     1       2.174   8.176  18.602  0.00  0.00    +0.000 HD
ENDROOT
BRANCH   1  17
ATOM     12  C   UNL     1       4.853   5.419  17.297  0.00  0.00    +0.000 A 
ATOM     13  C   UNL     1       4.314   4.215  16.836  0.00  0.00    +0.000 A 
ATOM     14  C   UNL     1       3.089   3.778  17.326  0.00  0.00    +0.000 A 
ATOM     15  F   UNL     1       2.580   2.620  16.885  0.00  0.00    +0.000 F 
ATOM     16  C   UNL     1       2.389   4.517  18.271  0.00  0.00    +0.000 A 
ATOM     17  C   UNL     1       2.920   5.728  18.724  0.00  0.00    +0.000 A 
ATOM     18  C   UNL     1       4.152   6.185  18.242  0.00  0.00    +0.000 A 
BRANCH  12  20
ATOM     19  N   UNL     1       7.160   6.222  16.432  0.00  0.00    +0.000 NA
ATOM     20  C   UNL     1       6.129   5.867  16.818  0.00  0.00    +0.000 C 
ENDBRANCH  12  20
ENDBRANCH   1  17
TORSDOF 2
ENDMDL
MODEL 5
REMARK VINA RESULT:      -7.0      4.714      7.533
REMARK  Name = 
REMARK  2 active torsions:
REMARK  status: ('A' for Active; 'I' for Inactive)
REMARK    1  A    between atoms: C_2  and  C_3
REMARK    2  A    between atoms: C_8  and  C_9
REMARK                            x       y       z     vdW  Elec       q    Type
REMARK                         _______ _______ _______ _____ _____    ______ ____
ROOT
ATOM      1  C   UNL     1       2.313   7.498  18.783  0.00  0.00    +0.000 C 
ATOM      2  O   UNL     1       2.160   7.393  19.993  0.00  0.00    +0.000 OA
ATOM      3  N   UNL     1       1.794   8.490  17.980  0.00  0.00    +0.000 N 
ATOM      4  C   UNL     1       0.945   9.484  18.477  0.00  0.00    +0.000 A 
ATOM      5  C   UNL     1       1.215  10.167  19.659  0.00  0.00    +0.000 A 
ATOM      6  C   UNL     1       0.296  11.111  20.112  0.00  0.00    +0.000 A 
ATOM      7  C   UNL     1      -0.875  11.309  19.393  0.00  0.00    +0.000 A 
ATOM      8  C   UNL     1      -1.040  10.589  18.222  0.00  0.00    +0.000 A 
ATOM      9 CL   UNL     1      -2.486  10.719  17.308  0.00  0.00    +0.000 Cl
ATOM     10  N   UNL     1      -0.141   9.720  17.719  0.00  0.00    +0.000 NA
ATOM     11  H   UNL     1       1.593   8.256  17.017  0.00  0.00    +0.000 HD
ENDROOT
BRANCH   1  17
ATOM     12  C   UNL     1       5.018   5.613  16.913  0.00  0.00    +0.000 A 
ATOM     13  C   UNL     1       4.431   4.349  16.808  0.00  0.00    +0.000 A 
ATOM     14  C   UNL     1       3.162   4.135  17.334  0.00  0.00    +0.000 A 
ATOM     15  F   UNL     1       2.607   2.919  17.236  0.00  0.00    +0.000 F 
ATOM     16  C   UNL     1       2.466   5.156  17.968  0.00  0.00    +0.000 A 
ATOM     17  C   UNL     1       3.046   6.424  18.062  0.00  0.00    +0.000 A 
ATOM     18  C   UNL     1       4.322   6.660  17.537  0.00  0.00    +0.000 A 
BRANCH  12  20
ATOM     19  N   UNL     1       7.404   6.018  15.987  0.00  0.00    +0.000 NA
ATOM     20  C   UNL     1       6.337   5.838  16.398  0.00  0.00    +0.000 C 
ENDBRANCH  12  20
ENDBRANCH   1  17
TORSDOF 2
ENDMDL
MODEL 6
REMARK VINA RESULT:      -7.0      3.370      6.884
REMARK  Name = 
REMARK  2 active torsions:
REMARK  status: ('A' for Active; 'I' for Inactive)
REMARK    1  A    between atoms: C_2  and  C_3
REMARK    2  A    between atoms: C_8  and  C_9
REMARK                            x       y       z     vdW  Elec       q    Type
REMARK                         _______ _______ _______ _____ _____    ______ ____
ROOT
ATOM      1  C   UNL     1       5.634   4.624  16.389  0.00  0.00    +0.000 C 
ATOM      2  O   UNL     1       6.399   4.585  17.343  0.00  0.00    +0.000 OA
ATOM      3  N   UNL     1       4.259   4.703  16.450  0.00  0.00    +0.000 N 
ATOM      4  C   UNL     1       3.565   4.673  17.663  0.00  0.00    +0.000 A 
ATOM      5  C   UNL     1       3.956   5.433  18.761  0.00  0.00    +0.000 A 
ATOM      6  C   UNL     1       3.239   5.313  19.949  0.00  0.00    +0.000 A 
ATOM      7  C   UNL     1       2.185   4.411  20.011  0.00  0.00    +0.000 A 
ATOM      8  C   UNL     1       1.867   3.714  18.857  0.00  0.00    +0.000 A 
ATOM      9 CL   UNL     1       0.626   2.530  18.861  0.00  0.00    +0.000 Cl
ATOM     10  N   UNL     1       2.495   3.857  17.673  0.00  0.00    +0.000 NA
ATOM     11  H   UNL     1       3.733   4.289  15.692  0.00  0.00    +0.000 HD
ENDROOT
BRANCH   1  17
ATOM     12  C   UNL     1       6.131   3.544  12.790  0.00  0.00    +0.000 A 
ATOM     13  C   UNL     1       7.219   4.341  12.425  0.00  0.00    +0.000 A 
ATOM     14  C   UNL     1       7.780   5.206  13.358  0.00  0.00    +0.000 A 
ATOM     15  F   UNL     1       8.820   5.972  13.001  0.00  0.00    +0.000 F 
ATOM     16  C   UNL     1       7.276   5.294  14.649  0.00  0.00    +0.000 A 
ATOM     17  C   UNL     1       6.196   4.488  15.019  0.00  0.00    +0.000 A 
ATOM     18  C   UNL     1       5.618   3.610  14.095  0.00  0.00    +0.000 A 
BRANCH  12  20
ATOM     19  N   UNL     1       5.038   1.965  11.049  0.00  0.00    +0.000 NA
ATOM     20  C   UNL     1       5.528   2.667  11.828  0.00  0.00    +0.000 C 
ENDBRANCH  12  20
ENDBRANCH   1  17
TORSDOF 2
ENDMDL
MODEL 7
REMARK VINA RESULT:      -7.0      1.111      1.267
REMARK  Name = 
REMARK  2 active torsions:
REMARK  status: ('A' for Active; 'I' for Inactive)
REMARK    1  A    between atoms: C_2  and  C_3
REMARK    2  A    between atoms: C_8  and  C_9
REMARK                            x       y       z     vdW  Elec       q    Type
REMARK                         _______ _______ _______ _____ _____    ______ ____
ROOT
ATOM      1  C   UNL     1       4.630   5.910  17.608  0.00  0.00    +0.000 C 
ATOM      2  O   UNL     1       5.284   6.926  17.412  0.00  0.00    +0.000 OA
ATOM      3  N   UNL     1       4.700   4.744  16.877  0.00  0.00    +0.000 N 
ATOM      4  C   UNL     1       5.510   4.622  15.743  0.00  0.00    +0.000 A 
ATOM      5  C   UNL     1       6.828   5.068  15.722  0.00  0.00    +0.000 A 
ATOM      6  C   UNL     1       7.555   4.952  14.540  0.00  0.00    +0.000 A 
ATOM      7  C   UNL     1       6.929   4.437  13.412  0.00  0.00    +0.000 A 
ATOM      8  C   UNL     1       5.619   4.009  13.543  0.00  0.00    +0.000 A 
ATOM      9 CL   UNL     1       4.747   3.424  12.187  0.00  0.00    +0.000 Cl
ATOM     10  N   UNL     1       4.909   4.041  14.689  0.00  0.00    +0.000 NA
ATOM     11  H   UNL     1       3.864   4.177  16.818  0.00  0.00    +0.000 HD
ENDROOT
BRANCH   1  17
ATOM     12  C   UNL     1       2.414   4.854  20.496  0.00  0.00    +0.000 A 
ATOM     13  C   UNL     1       1.698   6.033  20.721  0.00  0.00    +0.000 A 
ATOM     14  C   UNL     1       1.938   7.145  19.922  0.00  0.00    +0.000 A 
ATOM     15  F   UNL     1       1.253   8.275  20.147  0.00  0.00    +0.000 F 
ATOM     16  C   UNL     1       2.882   7.108  18.904  0.00  0.00    +0.000 A 
ATOM     17  C   UNL     1       3.589   5.926  18.669  0.00  0.00    +0.000 A 
ATOM     18  C   UNL     1       3.360   4.794  19.461  0.00  0.00    +0.000 A 
BRANCH  12  20
ATOM     19  N   UNL     1       2.015   2.787  22.008  0.00  0.00    +0.000 NA
ATOM     20  C   UNL     1       2.193   3.708  21.330  0.00  0.00    +0.000 C 
ENDBRANCH  12  20
ENDBRANCH   1  17
TORSDOF 2
ENDMDL
MODEL 8
REMARK VINA RESULT:      -6.9      4.688      6.648
REMARK  Name = 
REMARK  2 active torsions:
REMARK  status: ('A' for Active; 'I' for Inactive)
REMARK    1  A    between atoms: C_2  and  C_3
REMARK    2  A    between atoms: C_8  and  C_9
REMARK                            x       y       z     vdW  Elec       q    Type
REMARK                         _______ _______ _______ _____ _____    ______ ____
ROOT
ATOM      1  C   UNL     1       1.931   7.865  19.783  0.00  0.00    +0.000 C 
ATOM      2  O   UNL     1       2.309   8.196  18.667  0.00  0.00    +0.000 OA
ATOM      3  N   UNL     1       2.126   6.637  20.377  0.00  0.00    +0.000 N 
ATOM      4  C   UNL     1       2.743   5.575  19.708  0.00  0.00    +0.000 A 
ATOM      5  C   UNL     1       3.912   5.740  18.972  0.00  0.00    +0.000 A 
ATOM      6  C   UNL     1       4.439   4.642  18.297  0.00  0.00    +0.000 A 
ATOM      7  C   UNL     1       3.760   3.432  18.345  0.00  0.00    +0.000 A 
ATOM      8  C   UNL     1       2.613   3.369  19.118  0.00  0.00    +0.000 A 
ATOM      9 CL   UNL     1       1.673   1.936  19.179  0.00  0.00    +0.000 Cl
ATOM     10  N   UNL     1       2.114   4.393  19.840  0.00  0.00    +0.000 NA
ATOM     11  H   UNL     1       1.434   6.324  21.044  0.00  0.00    +0.000 HD
ENDROOT
BRANCH   1  17
ATOM     12  C   UNL     1      -0.464  10.662  20.682  0.00  0.00    +0.000 A 
ATOM     13  C   UNL     1      -0.520  10.522  22.071  0.00  0.00    +0.000 A 
ATOM     14  C   UNL     1       0.231   9.530  22.693  0.00  0.00    +0.000 A 
ATOM     15  F   UNL     1       0.169   9.397  24.024  0.00  0.00    +0.000 F 
ATOM     16  C   UNL     1       1.036   8.671  21.955  0.00  0.00    +0.000 A 
ATOM     17  C   UNL     1       1.103   8.818  20.567  0.00  0.00    +0.000 A 
ATOM     18  C   UNL     1       0.356   9.811  19.924  0.00  0.00    +0.000 A 
BRANCH  12  20
ATOM     19  N   UNL     1      -1.892  12.469  19.495  0.00  0.00    +0.000 NA
ATOM     20  C   UNL     1      -1.255  11.664  20.028  0.00  0.00    +0.000 C 
ENDBRANCH  12  20
ENDBRANCH   1  17
TORSDOF 2
ENDMDL
MODEL 9
REMARK VINA RESULT:      -6.8      4.317      5.728
REMARK  Name = 
REMARK  2 active torsions:
REMARK  status: ('A' for Active; 'I' for Inactive)
REMARK    1  A    between atoms: C_2  and  C_3
REMARK    2  A    between atoms: C_8  and  C_9
REMARK                            x       y       z     vdW  Elec       q    Type
REMARK                         _______ _______ _______ _____ _____    ______ ____
ROOT
ATOM      1  C   UNL     1       2.202   8.123  18.528  0.00  0.00    +0.000 C 
ATOM      2  O   UNL     1       2.394   8.564  17.403  0.00  0.00    +0.000 OA
ATOM      3  N   UNL     1       2.634   6.906  19.010  0.00  0.00    +0.000 N 
ATOM      4  C   UNL     1       3.305   5.981  18.205  0.00  0.00    +0.000 A 
ATOM      5  C   UNL     1       4.344   6.353  17.357  0.00  0.00    +0.000 A 
ATOM      6  C   UNL     1       4.932   5.380  16.552  0.00  0.00    +0.000 A 
ATOM      7  C   UNL     1       4.436   4.083  16.592  0.00  0.00    +0.000 A 
ATOM      8  C   UNL     1       3.410   3.815  17.481  0.00  0.00    +0.000 A 
ATOM      9 CL   UNL     1       2.690   2.259  17.547  0.00  0.00    +0.000 Cl
ATOM     10  N   UNL     1       2.865   4.716  18.324  0.00  0.00    +0.000 NA
ATOM     11  H   UNL     1       2.076   6.461  19.728  0.00  0.00    +0.000 HD
ENDROOT
BRANCH   1  17
ATOM     12  C   UNL     1      -0.382  10.544  19.881  0.00  0.00    +0.000 A 
ATOM     13  C   UNL     1      -0.303  10.274  21.249  0.00  0.00    +0.000 A 
ATOM     14  C   UNL     1       0.597   9.319  21.710  0.00  0.00    +0.000 A 
ATOM     15  F   UNL     1       0.664   9.060  23.023  0.00  0.00    +0.000 F 
ATOM     16  C   UNL     1       1.420   8.625  20.832  0.00  0.00    +0.000 A 
ATOM     17  C   UNL     1       1.351   8.904  19.464  0.00  0.00    +0.000 A 
ATOM     18  C   UNL     1       0.452   9.862  18.981  0.00  0.00    +0.000 A 
BRANCH  12  20
ATOM     19  N   UNL     1      -2.083  12.285  18.991  0.00  0.00    +0.000 NA
ATOM     20  C   UNL     1      -1.325  11.508  19.391  0.00  0.00    +0.000 C 
ENDBRANCH  12  20
ENDBRANCH   1  17
TORSDOF 2
ENDMDL
