MODEL 1
REMARK VINA RESULT:      -8.2      0.000      0.000
REMARK  Name = 
REMARK  5 active torsions:
REMARK  status: ('A' for Active; 'I' for Inactive)
REMARK    1  A    between atoms: N_1  and  C_2
REMARK    2  A    between atoms: C_6  and  N_7
REMARK    3  A    between atoms: C_8  and  C_10
REMARK    4  A    between atoms: C_10  and  C_11
REMARK    5  A    between atoms: C_11  and  N_12
REMARK                            x       y       z     vdW  Elec       q    Type
REMARK                         _______ _______ _______ _____ _____    ______ ____
ROOT
ATOM      1  C   UNL     1       7.007   8.021  17.336  0.00  0.00    +0.000 C 
ENDROOT
BRANCH   1   3
ATOM      2  N   UNL     1       8.343  10.025  17.926  0.00  0.00    +0.000 N 
ATOM      3  C   UNL     1       8.115   8.688  18.074  0.00  0.00    +0.000 C 
ATOM      4  O   UNL     1       8.806   7.995  18.802  0.00  0.00    +0.000 OA
ATOM      5  H   UNL     1       7.757  10.529  17.239  0.00  0.00    +0.000 HD
BRANCH   2  10
ATOM      6  C   UNL     1      11.342  12.190  18.431  0.00  0.00    +0.000 A 
ATOM      7  C   UNL     1      11.384  12.302  19.824  0.00  0.00    +0.000 A 
ATOM      8  C   UNL     1      10.417  11.676  20.603  0.00  0.00    +0.000 A 
ATOM      9  C   UNL     1       9.409  10.925  20.007  0.00  0.00    +0.000 A 
ATOM     10  C   UNL     1       9.350  10.785  18.603  0.00  0.00    +0.000 A 
ATOM     11  C   UNL     1      10.323  11.439  17.826  0.00  0.00    +0.000 A 
BRANCH   6  12
ATOM     12  N   UNL     1      12.324  12.829  17.639  0.00  0.00    +0.000 N 
ATOM     13  H   UNL     1      13.268  13.000  18.016  0.00  0.00    +0.000 HD
ATOM     14  H   UNL     1      12.113  13.125  16.675  0.00  0.00    +0.000 HD
ENDBRANCH   6  12
ENDBRANCH   2  10
ENDBRANCH   1   3
BRANCH   1  15
ATOM     15  C   UNL     1       7.325   6.541  17.086  0.00  0.00    +0.000 C 
BRANCH  15  16
ATOM     16  N   UNL     1       6.223   5.673  17.516  0.00  0.00    +0.000 NA
ATOM     17  C   UNL     1       4.900   6.319  17.516  0.00  0.00    +0.000 C 
ATOM     18  C   UNL     1       3.862   5.205  17.340  0.00  0.00    +0.000 C 
ATOM     19  N   UNL     1       4.074   4.204  18.389  0.00  0.00    +0.000 N 
ATOM     20  C   UNL     1       3.031   3.790  19.269  0.00  0.00    +0.000 A 
ATOM     21  C   UNL     1       1.679   3.815  18.878  0.00  0.00    +0.000 A 
ATOM     22  C   UNL     1       0.702   3.372  19.764  0.00  0.00    +0.000 A 
ATOM     23  C   UNL     1       1.065   2.923  21.032  0.00  0.00    +0.000 A 
ATOM     24  C   UNL     1       2.413   2.910  21.393  0.00  0.00    +0.000 A 
ATOM     25  N   UNL     1       3.351   3.324  20.508  0.00  0.00    +0.000 NA
ATOM     26  C   UNL     1       5.417   3.674  18.552  0.00  0.00    +0.000 C 
ATOM     27  C   UNL     1       6.390   4.830  18.716  0.00  0.00    +0.000 C 
ENDBRANCH  15  16
ENDBRANCH   1  15
TORSDOF 5
ENDMDL
MODEL 2
REMARK VINA RESULT:      -8.1      1.028      1.049
REMARK  Name = 
REMARK  5 active torsions:
REMARK  status: ('A' for Active; 'I' for Inactive)
REMARK    1  A    between atoms: N_1  and  C_2
REMARK    2  A    between atoms: C_6  and  N_7
REMARK    3  A    between atoms: C_8  and  C_10
REMARK    4  A    between atoms: C_10  and  C_11
REMARK    5  A    between atoms: C_11  and  N_12
REMARK                            x       y       z     vdW  Elec       q    Type
REMARK                         _______ _______ _______ _____ _____    ______ ____
ROOT
ATOM      1  C   UNL     1       8.138   7.420  18.398  0.00  0.00    +0.000 C 
ENDROOT
BRANCH   1   3
ATOM      2  N   UNL     1       9.313   9.457  19.184  0.00  0.00    +0.000 N 
ATOM      3  C   UNL     1       8.364   8.892  18.385  0.00  0.00    +0.000 C 
ATOM      4  O   UNL     1       7.666   9.563  17.642  0.00  0.00    +0.000 OA
ATOM      5  H   UNL     1       9.815   8.830  19.835  0.00  0.00    +0.000 HD
BRANCH   2  10
ATOM      6  C   UNL     1      10.364  12.848  18.029  0.00  0.00    +0.000 A 
ATOM      7  C   UNL     1      10.334  13.579  19.220  0.00  0.00    +0.000 A 
ATOM      8  C   UNL     1       9.955  12.963  20.407  0.00  0.00    +0.000 A 
ATOM      9  C   UNL     1       9.615  11.614  20.424  0.00  0.00    +0.000 A 
ATOM     10  C   UNL     1       9.648  10.848  19.237  0.00  0.00    +0.000 A 
ATOM     11  C   UNL     1      10.015  11.490  18.040  0.00  0.00    +0.000 A 
BRANCH   6  12
ATOM     12  N   UNL     1      10.746  13.478  16.821  0.00  0.00    +0.000 N 
ATOM     13  H   UNL     1      11.325  12.976  16.131  0.00  0.00    +0.000 HD
ATOM     14  H   UNL     1      10.447  14.441  16.612  0.00  0.00    +0.000 HD
ENDBRANCH   6  12
ENDBRANCH   2  10
ENDBRANCH   1   3
BRANCH   1  15
ATOM     15  C   UNL     1       7.268   6.987  17.210  0.00  0.00    +0.000 C 
BRANCH  15  16
ATOM     16  N   UNL     1       6.255   6.006  17.616  0.00  0.00    +0.000 NA
ATOM     17  C   UNL     1       4.899   6.284  17.114  0.00  0.00    +0.000 C 
ATOM     18  C   UNL     1       4.165   4.940  17.048  0.00  0.00    +0.000 C 
ATOM     19  N   UNL     1       4.231   4.311  18.370  0.00  0.00    +0.000 N 
ATOM     20  C   UNL     1       3.065   3.880  19.068  0.00  0.00    +0.000 A 
ATOM     21  C   UNL     1       1.902   3.473  18.386  0.00  0.00    +0.000 A 
ATOM     22  C   UNL     1       0.801   3.033  19.114  0.00  0.00    +0.000 A 
ATOM     23  C   UNL     1       0.850   3.012  20.506  0.00  0.00    +0.000 A 
ATOM     24  C   UNL     1       2.016   3.421  21.155  0.00  0.00    +0.000 A 
ATOM     25  N   UNL     1       3.085   3.825  20.429  0.00  0.00    +0.000 NA
ATOM     26  C   UNL     1       5.538   4.186  18.991  0.00  0.00    +0.000 C 
ATOM     27  C   UNL     1       6.207   5.550  19.018  0.00  0.00    +0.000 C 
ENDBRANCH  15  16
ENDBRANCH   1  15
TORSDOF 5
ENDMDL
MODEL 3
REMARK VINA RESULT:      -7.9      1.377      1.694
REMARK  Name = 
REMARK  5 active torsions:
REMARK  status: ('A' for Active; 'I' for Inactive)
REMARK    1  A    between atoms: N_1  and  C_2
REMARK    2  A    between atoms: C_6  and  N_7
REMARK    3  A    between atoms: C_8  and  C_10
REMARK    4  A    between atoms: C_10  and  C_11
REMARK    5  A    between atoms: C_11  and  N_12
REMARK                            x       y       z     vdW  Elec       q    Type
REMARK                         _______ _______ _______ _____ _____    ______ ____
ROOT
ATOM      1  C   UNL     1       8.085   7.268  18.378  0.00  0.00    +0.000 C 
ENDROOT
BRANCH   1   3
ATOM      2  N   UNL     1       9.256   9.299  19.186  0.00  0.00    +0.000 N 
ATOM      3  C   UNL     1       8.330   8.738  18.358  0.00  0.00    +0.000 C 
ATOM      4  O   UNL     1       7.668   9.409  17.583  0.00  0.00    +0.000 OA
ATOM      5  H   UNL     1       9.727   8.673  19.861  0.00  0.00    +0.000 HD
BRANCH   2  10
ATOM      6  C   UNL     1       9.791  12.722  20.577  0.00  0.00    +0.000 A 
ATOM      7  C   UNL     1      10.254  13.419  19.455  0.00  0.00    +0.000 A 
ATOM      8  C   UNL     1      10.404  12.761  18.240  0.00  0.00    +0.000 A 
ATOM      9  C   UNL     1      10.086  11.412  18.124  0.00  0.00    +0.000 A 
ATOM     10  C   UNL     1       9.605  10.687  19.237  0.00  0.00    +0.000 A 
ATOM     11  C   UNL     1       9.476  11.360  20.465  0.00  0.00    +0.000 A 
BRANCH   6  12
ATOM     12  N   UNL     1       9.642  13.392  21.813  0.00  0.00    +0.000 N 
ATOM     13  H   UNL     1       8.739  13.374  22.311  0.00  0.00    +0.000 HD
ATOM     14  H   UNL     1      10.433  13.898  22.237  0.00  0.00    +0.000 HD
ENDBRANCH   6  12
ENDBRANCH   2  10
ENDBRANCH   1   3
BRANCH   1  15
ATOM     15  C   UNL     1       7.199   6.842  17.200  0.00  0.00    +0.000 C 
BRANCH  15  16
ATOM     16  N   UNL     1       6.186   5.865  17.616  0.00  0.00    +0.000 NA
ATOM     17  C   UNL     1       4.837   6.117  17.080  0.00  0.00    +0.000 C 
ATOM     18  C   UNL     1       4.115   4.765  17.041  0.00  0.00    +0.000 C 
ATOM     19  N   UNL     1       4.162   4.177  18.382  0.00  0.00    +0.000 N 
ATOM     20  C   UNL     1       2.986   3.757  19.070  0.00  0.00    +0.000 A 
ATOM     21  C   UNL     1       1.839   3.321  18.379  0.00  0.00    +0.000 A 
ATOM     22  C   UNL     1       0.728   2.893  19.099  0.00  0.00    +0.000 A 
ATOM     23  C   UNL     1       0.750   2.914  20.493  0.00  0.00    +0.000 A 
ATOM     24  C   UNL     1       1.901   3.352  21.151  0.00  0.00    +0.000 A 
ATOM     25  N   UNL     1       2.980   3.743  20.433  0.00  0.00    +0.000 NA
ATOM     26  C   UNL     1       5.458   4.081  19.031  0.00  0.00    +0.000 C 
ATOM     27  C   UNL     1       6.115   5.452  19.030  0.00  0.00    +0.000 C 
ENDBRANCH  15  16
ENDBRANCH   1  15
TORSDOF 5
ENDMDL
MODEL 4
REMARK VINA RESULT:      -7.9      1.893      2.560
REMARK  Name = 
REMARK  5 active torsions:
REMARK  status: ('A' for Active; 'I' for Inactive)
REMARK    1  A    between atoms: N_1  and  C_2
REMARK    2  A    between atoms: C_6  and  N_7
REMARK    3  A    between atoms: C_8  and  C_10
REMARK    4  A    between atoms: C_10  and  C_11
REMARK    5  A    between atoms: C_11  and  N_12
REMARK                            x       y       z     vdW  Elec       q    Type
REMARK                         _______ _______ _______ _____ _____    ______ ____
ROOT
ATOM      1  C   UNL     1       8.716   8.651  18.838  0.00  0.00    +0.000 C 
ENDROOT
BRANCH   1   3
ATOM      2  N   UNL     1       9.631  10.750  17.885  0.00  0.00    +0.000 N 
ATOM      3  C   UNL     1       9.213  10.048  18.977  0.00  0.00    +0.000 C 
ATOM      4  O   UNL     1       9.236  10.530  20.098  0.00  0.00    +0.000 OA
ATOM      5  H   UNL     1       9.645  10.248  16.980  0.00  0.00    +0.000 HD
BRANCH   2  10
ATOM      6  C   UNL     1       9.536  14.479  17.744  0.00  0.00    +0.000 A 
ATOM      7  C   UNL     1      10.891  14.805  17.859  0.00  0.00    +0.000 A 
ATOM      8  C   UNL     1      11.841  13.799  17.996  0.00  0.00    +0.000 A 
ATOM      9  C   UNL     1      11.455  12.462  18.009  0.00  0.00    +0.000 A 
ATOM     10  C   UNL     1      10.095  12.104  17.883  0.00  0.00    +0.000 A 
ATOM     11  C   UNL     1       9.143  13.132  17.763  0.00  0.00    +0.000 A 
BRANCH   6  12
ATOM     12  N   UNL     1       8.571  15.503  17.607  0.00  0.00    +0.000 N 
ATOM     13  H   UNL     1       8.290  15.836  16.673  0.00  0.00    +0.000 HD
ATOM     14  H   UNL     1       8.129  15.925  18.437  0.00  0.00    +0.000 HD
ENDBRANCH   6  12
ENDBRANCH   2  10
ENDBRANCH   1   3
BRANCH   1  15
ATOM     15  C   UNL     1       7.882   8.488  17.561  0.00  0.00    +0.000 C 
BRANCH  15  16
ATOM     16  N   UNL     1       7.195   7.192  17.529  0.00  0.00    +0.000 NA
ATOM     17  C   UNL     1       5.761   7.268  17.205  0.00  0.00    +0.000 C 
ATOM     18  C   UNL     1       5.372   5.918  16.590  0.00  0.00    +0.000 C 
ATOM     19  N   UNL     1       5.752   4.857  17.526  0.00  0.00    +0.000 N 
ATOM     20  C   UNL     1       4.821   3.882  17.991  0.00  0.00    +0.000 A 
ATOM     21  C   UNL     1       3.716   3.484  17.215  0.00  0.00    +0.000 A 
ATOM     22  C   UNL     1       2.853   2.507  17.703  0.00  0.00    +0.000 A 
ATOM     23  C   UNL     1       3.078   1.944  18.958  0.00  0.00    +0.000 A 
ATOM     24  C   UNL     1       4.181   2.359  19.706  0.00  0.00    +0.000 A 
ATOM     25  N   UNL     1       5.021   3.295  19.204  0.00  0.00    +0.000 NA
ATOM     26  C   UNL     1       7.117   4.854  18.023  0.00  0.00    +0.000 C 
ATOM     27  C   UNL     1       7.433   6.219  18.612  0.00  0.00    +0.000 C 
ENDBRANCH  15  16
ENDBRANCH   1  15
TORSDOF 5
ENDMDL
MODEL 5
REMARK VINA RESULT:      -7.9      5.418      7.587
REMARK  Name = 
REMARK  5 active torsions:
REMARK  status: ('A' for Active; 'I' for Inactive)
REMARK    1  A    between atoms: N_1  and  C_2
REMARK    2  A    between atoms: C_6  and  N_7
REMARK    3  A    between atoms: C_8  and  C_10
REMARK    4  A    between atoms: C_10  and  C_11
REMARK    5  A    between atoms: C_11  and  N_12
REMARK                            x       y       z     vdW  Elec       q    Type
REMARK                         _______ _______ _______ _____ _____    ______ ____
ROOT
ATOM      1  C   UNL     1       1.940   3.160  21.550  0.00  0.00    +0.000 C 
ENDROOT
BRANCH   1   3
ATOM      2  N   UNL     1       2.244   5.543  20.937  0.00  0.00    +0.000 N 
ATOM      3  C   UNL     1       1.569   4.371  20.766  0.00  0.00    +0.000 C 
ATOM      4  O   UNL     1       0.642   4.270  19.979  0.00  0.00    +0.000 OA
ATOM      5  H   UNL     1       2.971   5.566  21.671  0.00  0.00    +0.000 HD
BRANCH   2  10
ATOM      6  C   UNL     1       1.065   9.016  20.239  0.00  0.00    +0.000 A 
ATOM      7  C   UNL     1       1.475   9.198  18.914  0.00  0.00    +0.000 A 
ATOM      8  C   UNL     1       2.154   8.183  18.249  0.00  0.00    +0.000 A 
ATOM      9  C   UNL     1       2.420   6.976  18.888  0.00  0.00    +0.000 A 
ATOM     10  C   UNL     1       2.006   6.761  20.222  0.00  0.00    +0.000 A 
ATOM     11  C   UNL     1       1.337   7.803  20.889  0.00  0.00    +0.000 A 
BRANCH   6  12
ATOM     12  N   UNL     1       0.377  10.051  20.915  0.00  0.00    +0.000 N 
ATOM     13  H   UNL     1       0.296  10.987  20.492  0.00  0.00    +0.000 HD
ATOM     14  H   UNL     1      -0.057   9.882  21.834  0.00  0.00    +0.000 HD
ENDBRANCH   6  12
ENDBRANCH   2  10
ENDBRANCH   1   3
BRANCH   1  15
ATOM     15  C   UNL     1       3.244   2.544  21.027  0.00  0.00    +0.000 C 
BRANCH  15  16
ATOM     16  N   UNL     1       3.678   3.183  19.779  0.00  0.00    +0.000 NA
ATOM     17  C   UNL     1       3.456   2.375  18.569  0.00  0.00    +0.000 C 
ATOM     18  C   UNL     1       3.332   3.355  17.396  0.00  0.00    +0.000 C 
ATOM     19  N   UNL     1       4.525   4.205  17.377  0.00  0.00    +0.000 N 
ATOM     20  C   UNL     1       5.345   4.340  16.218  0.00  0.00    +0.000 A 
ATOM     21  C   UNL     1       4.821   4.195  14.919  0.00  0.00    +0.000 A 
ATOM     22  C   UNL     1       5.658   4.366  13.820  0.00  0.00    +0.000 A 
ATOM     23  C   UNL     1       7.006   4.663  14.011  0.00  0.00    +0.000 A 
ATOM     24  C   UNL     1       7.497   4.801  15.310  0.00  0.00    +0.000 A 
ATOM     25  N   UNL     1       6.662   4.653  16.366  0.00  0.00    +0.000 NA
ATOM     26  C   UNL     1       4.893   4.878  18.610  0.00  0.00    +0.000 C 
ATOM     27  C   UNL     1       4.993   3.851  19.725  0.00  0.00    +0.000 C 
ENDBRANCH  15  16
ENDBRANCH   1  15
TORSDOF 5
ENDMDL
MODEL 6
REMARK VINA RESULT:      -7.6      2.051      2.630
REMARK  Name = 
REMARK  5 active torsions:
REMARK  status: ('A' for Active; 'I' for Inactive)
REMARK    1  A    between atoms: N_1  and  C_2
REMARK    2  A    between atoms: C_6  and  N_7
REMARK    3  A    between atoms: C_8  and  C_10
REMARK    4  A    between atoms: C_10  and  C_11
REMARK    5  A    between atoms: C_11  and  N_12
REMARK                            x       y       z     vdW  Elec       q    Type
REMARK                         _______ _______ _______ _____ _____    ______ ____
ROOT
ATOM      1  C   UNL     1       8.638   8.431  18.591  0.00  0.00    +0.000 C 
ENDROOT
BRANCH   1   3
ATOM      2  N   UNL     1       9.538  10.257  20.008  0.00  0.00    +0.000 N 
ATOM      3  C   UNL     1       8.924   9.869  18.853  0.00  0.00    +0.000 C 
ATOM      4  O   UNL     1       8.584  10.676  18.003  0.00  0.00    +0.000 OA
ATOM      5  H   UNL     1       9.733   9.521  20.708  0.00  0.00    +0.000 HD
BRANCH   2  10
ATOM      6  C   UNL     1       9.416  13.578  21.708  0.00  0.00    +0.000 A 
ATOM      7  C   UNL     1      10.501  14.240  21.124  0.00  0.00    +0.000 A 
ATOM      8  C   UNL     1      11.285  13.591  20.177  0.00  0.00    +0.000 A 
ATOM      9  C   UNL     1      10.993  12.286  19.794  0.00  0.00    +0.000 A 
ATOM     10  C   UNL     1       9.896  11.598  20.359  0.00  0.00    +0.000 A 
ATOM     11  C   UNL     1       9.123  12.260  21.330  0.00  0.00    +0.000 A 
BRANCH   6  12
ATOM     12  N   UNL     1       8.621  14.238  22.674  0.00  0.00    +0.000 N 
ATOM     13  H   UNL     1       7.623  14.421  22.492  0.00  0.00    +0.000 HD
ATOM     14  H   UNL     1       9.025  14.538  23.573  0.00  0.00    +0.000 HD
ENDBRANCH   6  12
ENDBRANCH   2  10
ENDBRANCH   1   3
BRANCH   1  15
ATOM     15  C   UNL     1       7.735   8.265  17.362  0.00  0.00    +0.000 C 
BRANCH  15  16
ATOM     16  N   UNL     1       7.023   6.982  17.387  0.00  0.00    +0.000 NA
ATOM     17  C   UNL     1       5.585   7.074  17.084  0.00  0.00    +0.000 C 
ATOM     18  C   UNL     1       5.161   5.712  16.523  0.00  0.00    +0.000 C 
ATOM     19  N   UNL     1       5.537   4.677  17.490  0.00  0.00    +0.000 N 
ATOM     20  C   UNL     1       4.595   3.738  18.004  0.00  0.00    +0.000 A 
ATOM     21  C   UNL     1       3.470   3.333  17.260  0.00  0.00    +0.000 A 
ATOM     22  C   UNL     1       2.597   2.391  17.797  0.00  0.00    +0.000 A 
ATOM     23  C   UNL     1       2.832   1.869  19.067  0.00  0.00    +0.000 A 
ATOM     24  C   UNL     1       3.955   2.289  19.782  0.00  0.00    +0.000 A 
ATOM     25  N   UNL     1       4.805   3.189  19.234  0.00  0.00    +0.000 NA
ATOM     26  C   UNL     1       6.909   4.664  17.965  0.00  0.00    +0.000 C 
ATOM     27  C   UNL     1       7.261   6.043  18.500  0.00  0.00    +0.000 C 
ENDBRANCH  15  16
ENDBRANCH   1  15
TORSDOF 5
ENDMDL
MODEL 7
REMARK VINA RESULT:      -7.6      5.145      7.692
REMARK  Name = 
REMARK  5 active torsions:
REMARK  status: ('A' for Active; 'I' for Inactive)
REMARK    1  A    between atoms: N_1  and  C_2
REMARK    2  A    between atoms: C_6  and  N_7
REMARK    3  A    between atoms: C_8  and  C_10
REMARK    4  A    between atoms: C_10  and  C_11
REMARK    5  A    between atoms: C_11  and  N_12
REMARK                            x       y       z     vdW  Elec       q    Type
REMARK                         _______ _______ _______ _____ _____    ______ ____
ROOT
ATOM      1  C   UNL     1       3.172   4.141  20.191  0.00  0.00    +0.000 C 
ENDROOT
BRANCH   1   3
ATOM      2  N   UNL     1       2.674   6.570  20.150  0.00  0.00    +0.000 N 
ATOM      3  C   UNL     1       2.229   5.290  20.298  0.00  0.00    +0.000 C 
ATOM      4  O   UNL     1       1.057   5.038  20.526  0.00  0.00    +0.000 OA
ATOM      5  H   UNL     1       3.691   6.704  20.027  0.00  0.00    +0.000 HD
BRANCH   2  10
ATOM      6  C   UNL     1       0.974   9.692  19.008  0.00  0.00    +0.000 A 
ATOM      7  C   UNL     1       0.308  10.097  20.169  0.00  0.00    +0.000 A 
ATOM      8  C   UNL     1       0.405   9.338  21.330  0.00  0.00    +0.000 A 
ATOM      9  C   UNL     1       1.172   8.177  21.351  0.00  0.00    +0.000 A 
ATOM     10  C   UNL     1       1.865   7.751  20.196  0.00  0.00    +0.000 A 
ATOM     11  C   UNL     1       1.742   8.519  19.024  0.00  0.00    +0.000 A 
BRANCH   6  12
ATOM     12  N   UNL     1       0.871  10.464  17.828  0.00  0.00    +0.000 N 
ATOM     13  H   UNL     1       0.390  11.375  17.840  0.00  0.00    +0.000 HD
ATOM     14  H   UNL     1       1.282  10.131  16.943  0.00  0.00    +0.000 HD
ENDBRANCH   6  12
ENDBRANCH   2  10
ENDBRANCH   1   3
BRANCH   1  15
ATOM     15  C   UNL     1       4.584   4.621  19.832  0.00  0.00    +0.000 C 
BRANCH  15  16
ATOM     16  N   UNL     1       4.764   4.724  18.380  0.00  0.00    +0.000 NA
ATOM     17  C   UNL     1       4.759   3.435  17.670  0.00  0.00    +0.000 C 
ATOM     18  C   UNL     1       4.308   3.720  16.233  0.00  0.00    +0.000 C 
ATOM     19  N   UNL     1       5.186   4.747  15.667  0.00  0.00    +0.000 N 
ATOM     20  C   UNL     1       5.890   4.558  14.442  0.00  0.00    +0.000 A 
ATOM     21  C   UNL     1       5.393   3.719  13.425  0.00  0.00    +0.000 A 
ATOM     22  C   UNL     1       6.104   3.591  12.235  0.00  0.00    +0.000 A 
ATOM     23  C   UNL     1       7.304   4.278  12.064  0.00  0.00    +0.000 A 
ATOM     24  C   UNL     1       7.772   5.102  13.089  0.00  0.00    +0.000 A 
ATOM     25  N   UNL     1       7.055   5.231  14.231  0.00  0.00    +0.000 NA
ATOM     26  C   UNL     1       5.372   5.969  16.431  0.00  0.00    +0.000 C 
ATOM     27  C   UNL     1       5.813   5.611  17.840  0.00  0.00    +0.000 C 
ENDBRANCH  15  16
ENDBRANCH   1  15
TORSDOF 5
ENDMDL
MODEL 8
REMARK VINA RESULT:      -7.5      2.390     10.697
REMARK  Name = 
REMARK  5 active torsions:
REMARK  status: ('A' for Active; 'I' for Inactive)
REMARK    1  A    between atoms: N_1  and  C_2
REMARK    2  A    between atoms: C_6  and  N_7
REMARK    3  A    between atoms: C_8  and  C_10
REMARK    4  A    between atoms: C_10  and  C_11
REMARK    5  A    between atoms: C_11  and  N_12
REMARK                            x       y       z     vdW  Elec       q    Type
REMARK                         _______ _______ _______ _____ _____    ______ ____
ROOT
ATOM      1  C   UNL     1       8.347   9.353  17.855  0.00  0.00    +0.000 C 
ENDROOT
BRANCH   1   3
ATOM      2  N   UNL     1       6.819   7.646  16.906  0.00  0.00    +0.000 N 
ATOM      3  C   UNL     1       7.785   7.974  17.811  0.00  0.00    +0.000 C 
ATOM      4  O   UNL     1       8.217   7.164  18.614  0.00  0.00    +0.000 OA
ATOM      5  H   UNL     1       6.457   8.407  16.306  0.00  0.00    +0.000 HD
BRANCH   2  10
ATOM      6  C   UNL     1       4.329   4.879  17.189  0.00  0.00    +0.000 A 
ATOM      7  C   UNL     1       4.966   3.847  16.492  0.00  0.00    +0.000 A 
ATOM      8  C   UNL     1       6.213   4.062  15.915  0.00  0.00    +0.000 A 
ATOM      9  C   UNL     1       6.842   5.297  16.034  0.00  0.00    +0.000 A 
ATOM     10  C   UNL     1       6.226   6.353  16.742  0.00  0.00    +0.000 A 
ATOM     11  C   UNL     1       4.957   6.128  17.305  0.00  0.00    +0.000 A 
BRANCH   6  12
ATOM     12  N   UNL     1       3.060   4.660  17.773  0.00  0.00    +0.000 N 
ATOM     13  H   UNL     1       2.981   4.209  18.696  0.00  0.00    +0.000 HD
ATOM     14  H   UNL     1       2.199   4.953  17.288  0.00  0.00    +0.000 HD
ENDBRANCH   6  12
ENDBRANCH   2  10
ENDBRANCH   1   3
BRANCH   1  15
ATOM     15  C   UNL     1       9.007   9.635  19.211  0.00  0.00    +0.000 C 
BRANCH  15  16
ATOM     16  N   UNL     1       9.880  10.812  19.150  0.00  0.00    +0.000 NA
ATOM     17  C   UNL     1       9.534  11.881  20.101  0.00  0.00    +0.000 C 
ATOM     18  C   UNL     1      10.821  12.670  20.372  0.00  0.00    +0.000 C 
ATOM     19  N   UNL     1      11.366  13.120  19.088  0.00  0.00    +0.000 N 
ATOM     20  C   UNL     1      11.662  14.490  18.825  0.00  0.00    +0.000 A 
ATOM     21  C   UNL     1      12.023  15.381  19.854  0.00  0.00    +0.000 A 
ATOM     22  C   UNL     1      12.331  16.701  19.540  0.00  0.00    +0.000 A 
ATOM     23  C   UNL     1      12.265  17.135  18.217  0.00  0.00    +0.000 A 
ATOM     24  C   UNL     1      11.904  16.230  17.218  0.00  0.00    +0.000 A 
ATOM     25  N   UNL     1      11.630  14.944  17.541  0.00  0.00    +0.000 NA
ATOM     26  C   UNL     1      11.549  12.124  18.047  0.00  0.00    +0.000 C 
ATOM     27  C   UNL     1      10.239  11.381  17.836  0.00  0.00    +0.000 C 
ENDBRANCH  15  16
ENDBRANCH   1  15
TORSDOF 5
ENDMDL
MODEL 9
REMARK VINA RESULT:      -7.5      5.041      7.994
REMARK  Name = 
REMARK  5 active torsions:
REMARK  status: ('A' for Active; 'I' for Inactive)
REMARK    1  A    between atoms: N_1  and  C_2
REMARK    2  A    between atoms: C_6  and  N_7
REMARK    3  A    between atoms: C_8  and  C_10
REMARK    4  A    between atoms: C_10  and  C_11
REMARK    5  A    between atoms: C_11  and  N_12
REMARK                            x       y       z     vdW  Elec       q    Type
REMARK                         _______ _______ _______ _____ _____    ______ ____
ROOT
ATOM      1  C   UNL     1       3.168   4.560  20.081  0.00  0.00    +0.000 C 
ENDROOT
BRANCH   1   3
ATOM      2  N   UNL     1       2.527   6.956  20.098  0.00  0.00    +0.000 N 
ATOM      3  C   UNL     1       2.172   5.651  20.275  0.00  0.00    +0.000 C 
ATOM      4  O   UNL     1       1.041   5.330  20.601  0.00  0.00    +0.000 OA
ATOM      5  H   UNL     1       3.521   7.149  19.889  0.00  0.00    +0.000 HD
BRANCH   2  10
ATOM      6  C   UNL     1       0.246   9.460  21.667  0.00  0.00    +0.000 A 
ATOM      7  C   UNL     1      -0.071  10.280  20.579  0.00  0.00    +0.000 A 
ATOM      8  C   UNL     1       0.475  10.020  19.327  0.00  0.00    +0.000 A 
ATOM      9  C   UNL     1       1.330   8.938  19.142  0.00  0.00    +0.000 A 
ATOM     10  C   UNL     1       1.658   8.087  20.220  0.00  0.00    +0.000 A 
ATOM     11  C   UNL     1       1.114   8.373  21.485  0.00  0.00    +0.000 A 
BRANCH   6  12
ATOM     12  N   UNL     1      -0.307   9.728  22.940  0.00  0.00    +0.000 N 
ATOM     13  H   UNL     1      -1.287  10.034  23.030  0.00  0.00    +0.000 HD
ATOM     14  H   UNL     1       0.257   9.613  23.795  0.00  0.00    +0.000 HD
ENDBRANCH   6  12
ENDBRANCH   2  10
ENDBRANCH   1   3
BRANCH   1  15
ATOM     15  C   UNL     1       4.543   5.130  19.710  0.00  0.00    +0.000 C 
BRANCH  15  16
ATOM     16  N   UNL     1       4.756   5.122  18.259  0.00  0.00    +0.000 NA
ATOM     17  C   UNL     1       4.815   3.779  17.657  0.00  0.00    +0.000 C 
ATOM     18  C   UNL     1       4.390   3.930  16.191  0.00  0.00    +0.000 C 
ATOM     19  N   UNL     1       5.245   4.940  15.563  0.00  0.00    +0.000 N 
ATOM     20  C   UNL     1       5.985   4.678  14.373  0.00  0.00    +0.000 A 
ATOM     21  C   UNL     1       5.545   3.741  13.418  0.00  0.00    +0.000 A 
ATOM     22  C   UNL     1       6.289   3.545  12.259  0.00  0.00    +0.000 A 
ATOM     23  C   UNL     1       7.468   4.260  12.059  0.00  0.00    +0.000 A 
ATOM     24  C   UNL     1       7.880   5.182  13.023  0.00  0.00    +0.000 A 
ATOM     25  N   UNL     1       7.130   5.376  14.133  0.00  0.00    +0.000 NA
ATOM     26  C   UNL     1       5.368   6.226  16.228  0.00  0.00    +0.000 C 
ATOM     27  C   UNL     1       5.786   6.000  17.671  0.00  0.00    +0.000 C 
ENDBRANCH  15  16
ENDBRANCH   1  15
TORSDOF 5
ENDMDL
