MODEL 1
REMARK VINA RESULT:      -8.5      0.000      0.000
REMARK  Name = 
REMARK  4 active torsions:
REMARK  status: ('A' for Active; 'I' for Inactive)
REMARK    1  A    between atoms: C_1  and  O_2
REMARK    2  A    between atoms: O_2  and  C_3
REMARK    3  A    between atoms: N_17  and  C_18
REMARK    4  A    between atoms: C_18  and  C_19
REMARK                            x       y       z     vdW  Elec       q    Type
REMARK                         _______ _______ _______ _____ _____    ______ ____
ROOT
ATOM      1  C   UNL     1       1.101   9.297  19.780  0.00  0.00    +0.000 A 
ATOM      2  C   UNL     1       0.902   8.419  20.841  0.00  0.00    +0.000 A 
ATOM      3  C   UNL     1       1.476   7.147  20.841  0.00  0.00    +0.000 A 
ATOM      4  C   UNL     1       2.268   6.765  19.748  0.00  0.00    +0.000 A 
ATOM      5  C   UNL     1       2.517   7.639  18.678  0.00  0.00    +0.000 A 
ATOM      6  C   UNL     1       1.912   8.917  18.699  0.00  0.00    +0.000 A 
ATOM      7  C   UNL     1       3.407   6.971  17.794  0.00  0.00    +0.000 A 
ATOM      8  C   UNL     1       3.634   5.721  18.315  0.00  0.00    +0.000 A 
ATOM      9  N   UNL     1       2.942   5.569  19.495  0.00  0.00    +0.000 N 
ATOM     10  C   UNL     1       2.971   4.410  20.287  0.00  0.00    +0.000 C 
ATOM     11  O   UNL     1       2.302   4.315  21.307  0.00  0.00    +0.000 OA
ATOM     12  C   UNL     1       3.809   3.296  19.704  0.00  0.00    +0.000 C 
ATOM     13  C   UNL     1       5.025   3.829  18.946  0.00  0.00    +0.000 C 
ATOM     14  C   UNL     1       4.533   4.668  17.749  0.00  0.00    +0.000 C 
ATOM     15  N   UNL     1       5.615   5.321  16.997  0.00  0.00    +0.000 NA
ATOM     16  C   UNL     1       5.133   6.362  16.049  0.00  0.00    +0.000 C 
ATOM     17  C   UNL     1       4.099   7.415  16.559  0.00  0.00    +0.000 C 
ENDROOT
BRANCH   1  19
ATOM     18  C   UNL     1      -0.788  10.627  19.227  0.00  0.00    +0.000 C 
ATOM     19  O   UNL     1       0.558  10.554  19.691  0.00  0.00    +0.000 OA
ENDBRANCH   1  19
BRANCH  15  20
ATOM     20  C   UNL     1       6.563   4.387  16.355  0.00  0.00    +0.000 C 
BRANCH  20  21
ATOM     21  C   UNL     1       6.660   4.391  14.837  0.00  0.00    +0.000 A 
ATOM     22  C   UNL     1       7.633   5.168  14.185  0.00  0.00    +0.000 A 
ATOM     23  C   UNL     1       7.776   5.125  12.795  0.00  0.00    +0.000 A 
ATOM     24  C   UNL     1       6.959   4.294  12.036  0.00  0.00    +0.000 A 
ATOM     25  C   UNL     1       5.985   3.519  12.663  0.00  0.00    +0.000 A 
ATOM     26  C   UNL     1       5.834   3.571  14.054  0.00  0.00    +0.000 A 
ENDBRANCH  20  21
ENDBRANCH  15  20
TORSDOF 3
ENDMDL
MODEL 2
REMARK VINA RESULT:      -8.2      0.472      1.059
REMARK  Name = 
REMARK  4 active torsions:
REMARK  status: ('A' for Active; 'I' for Inactive)
REMARK    1  A    between atoms: C_1  and  O_2
REMARK    2  A    between atoms: O_2  and  C_3
REMARK    3  A    between atoms: N_17  and  C_18
REMARK    4  A    between atoms: C_18  and  C_19
REMARK                            x       y       z     vdW  Elec       q    Type
REMARK                         _______ _______ _______ _____ _____    ______ ____
ROOT
ATOM      1  C   UNL     1       1.043   9.263  19.740  0.00  0.00    +0.000 A 
ATOM      2  C   UNL     1       0.837   8.391  20.805  0.00  0.00    +0.000 A 
ATOM      3  C   UNL     1       1.432   7.129  20.828  0.00  0.00    +0.000 A 
ATOM      4  C   UNL     1       2.253   6.751  19.756  0.00  0.00    +0.000 A 
ATOM      5  C   UNL     1       2.510   7.620  18.684  0.00  0.00    +0.000 A 
ATOM      6  C   UNL     1       1.884   8.887  18.681  0.00  0.00    +0.000 A 
ATOM      7  C   UNL     1       3.430   6.960  17.826  0.00  0.00    +0.000 A 
ATOM      8  C   UNL     1       3.667   5.718  18.362  0.00  0.00    +0.000 A 
ATOM      9  N   UNL     1       2.953   5.565  19.528  0.00  0.00    +0.000 N 
ATOM     10  C   UNL     1       2.984   4.413  20.331  0.00  0.00    +0.000 C 
ATOM     11  O   UNL     1       2.294   4.315  21.337  0.00  0.00    +0.000 OA
ATOM     12  C   UNL     1       3.853   3.308  19.776  0.00  0.00    +0.000 C 
ATOM     13  C   UNL     1       5.077   3.856  19.040  0.00  0.00    +0.000 C 
ATOM     14  C   UNL     1       4.596   4.676  17.826  0.00  0.00    +0.000 C 
ATOM     15  N   UNL     1       5.684   5.341  17.091  0.00  0.00    +0.000 NA
ATOM     16  C   UNL     1       5.204   6.365  16.123  0.00  0.00    +0.000 C 
ATOM     17  C   UNL     1       4.142   7.405  16.602  0.00  0.00    +0.000 C 
ENDROOT
BRANCH   1  19
ATOM     18  C   UNL     1       1.044  11.529  20.450  0.00  0.00    +0.000 C 
ATOM     19  O   UNL     1       0.481  10.510  19.628  0.00  0.00    +0.000 OA
ENDBRANCH   1  19
BRANCH  15  20
ATOM     20  C   UNL     1       6.661   4.418  16.478  0.00  0.00    +0.000 C 
BRANCH  20  21
ATOM     21  C   UNL     1       6.736   4.354  14.960  0.00  0.00    +0.000 A 
ATOM     22  C   UNL     1       5.814   3.584  14.231  0.00  0.00    +0.000 A 
ATOM     23  C   UNL     1       5.830   3.574  12.833  0.00  0.00    +0.000 A 
ATOM     24  C   UNL     1       6.761   4.344  12.142  0.00  0.00    +0.000 A 
ATOM     25  C   UNL     1       7.686   5.110  12.847  0.00  0.00    +0.000 A 
ATOM     26  C   UNL     1       7.677   5.111  14.247  0.00  0.00    +0.000 A 
ENDBRANCH  20  21
ENDBRANCH  15  20
TORSDOF 3
ENDMDL
MODEL 3
REMARK VINA RESULT:      -7.7      2.072      7.542
REMARK  Name = 
REMARK  4 active torsions:
REMARK  status: ('A' for Active; 'I' for Inactive)
REMARK    1  A    between atoms: C_1  and  O_2
REMARK    2  A    between atoms: O_2  and  C_3
REMARK    3  A    between atoms: N_17  and  C_18
REMARK    4  A    between atoms: C_18  and  C_19
REMARK                            x       y       z     vdW  Elec       q    Type
REMARK                         _______ _______ _______ _____ _____    ______ ____
ROOT
ATOM      1  C   UNL     1       5.657   4.758  15.383  0.00  0.00    +0.000 A 
ATOM      2  C   UNL     1       5.463   3.579  16.096  0.00  0.00    +0.000 A 
ATOM      3  C   UNL     1       4.745   3.571  17.292  0.00  0.00    +0.000 A 
ATOM      4  C   UNL     1       4.212   4.779  17.767  0.00  0.00    +0.000 A 
ATOM      5  C   UNL     1       4.360   5.979  17.055  0.00  0.00    +0.000 A 
ATOM      6  C   UNL     1       5.103   5.959  15.852  0.00  0.00    +0.000 A 
ATOM      7  C   UNL     1       3.643   6.976  17.769  0.00  0.00    +0.000 A 
ATOM      8  C   UNL     1       3.128   6.381  18.894  0.00  0.00    +0.000 A 
ATOM      9  N   UNL     1       3.472   5.048  18.920  0.00  0.00    +0.000 N 
ATOM     10  C   UNL     1       3.091   4.151  19.931  0.00  0.00    +0.000 C 
ATOM     11  O   UNL     1       3.462   2.985  19.925  0.00  0.00    +0.000 OA
ATOM     12  C   UNL     1       2.288   4.791  21.040  0.00  0.00    +0.000 C 
ATOM     13  C   UNL     1       1.385   5.911  20.523  0.00  0.00    +0.000 C 
ATOM     14  C   UNL     1       2.271   7.027  19.933  0.00  0.00    +0.000 C 
ATOM     15  N   UNL     1       1.510   8.122  19.310  0.00  0.00    +0.000 NA
ATOM     16  C   UNL     1       2.350   9.030  18.483  0.00  0.00    +0.000 C 
ATOM     17  C   UNL     1       3.350   8.399  17.464  0.00  0.00    +0.000 C 
ENDROOT
BRANCH   1  19
ATOM     18  C   UNL     1       6.201   3.789  13.284  0.00  0.00    +0.000 C 
ATOM     19  O   UNL     1       6.366   4.858  14.212  0.00  0.00    +0.000 OA
ENDBRANCH   1  19
BRANCH  15  20
ATOM     20  C   UNL     1       0.641   8.870  20.241  0.00  0.00    +0.000 C 
BRANCH  20  21
ATOM     21  C   UNL     1       0.021  10.172  19.758  0.00  0.00    +0.000 A 
ATOM     22  C   UNL     1      -1.007  10.162  18.800  0.00  0.00    +0.000 A 
ATOM     23  C   UNL     1      -1.631  11.347  18.400  0.00  0.00    +0.000 A 
ATOM     24  C   UNL     1      -1.247  12.560  18.963  0.00  0.00    +0.000 A 
ATOM     25  C   UNL     1      -0.228  12.592  19.912  0.00  0.00    +0.000 A 
ATOM     26  C   UNL     1       0.406  11.406  20.303  0.00  0.00    +0.000 A 
ENDBRANCH  20  21
ENDBRANCH  15  20
TORSDOF 3
ENDMDL
MODEL 4
REMARK VINA RESULT:      -7.5      4.292     10.068
REMARK  Name = 
REMARK  4 active torsions:
REMARK  status: ('A' for Active; 'I' for Inactive)
REMARK    1  A    between atoms: C_1  and  O_2
REMARK    2  A    between atoms: O_2  and  C_3
REMARK    3  A    between atoms: N_17  and  C_18
REMARK    4  A    between atoms: C_18  and  C_19
REMARK                            x       y       z     vdW  Elec       q    Type
REMARK                         _______ _______ _______ _____ _____    ______ ____
ROOT
ATOM      1  C   UNL     1       2.225   5.641  20.215  0.00  0.00    +0.000 A 
ATOM      2  C   UNL     1       2.790   6.225  19.085  0.00  0.00    +0.000 A 
ATOM      3  C   UNL     1       2.518   7.552  18.746  0.00  0.00    +0.000 A 
ATOM      4  C   UNL     1       1.664   8.296  19.573  0.00  0.00    +0.000 A 
ATOM      5  C   UNL     1       1.106   7.749  20.739  0.00  0.00    +0.000 A 
ATOM      6  C   UNL     1       1.390   6.399  21.050  0.00  0.00    +0.000 A 
ATOM      7  C   UNL     1       0.367   8.784  21.372  0.00  0.00    +0.000 A 
ATOM      8  C   UNL     1       0.454   9.895  20.569  0.00  0.00    +0.000 A 
ATOM      9  N   UNL     1       1.227   9.618  19.465  0.00  0.00    +0.000 N 
ATOM     10  C   UNL     1       1.524  10.545  18.453  0.00  0.00    +0.000 C 
ATOM     11  O   UNL     1       2.183  10.231  17.470  0.00  0.00    +0.000 OA
ATOM     12  C   UNL     1       0.876  11.895  18.655  0.00  0.00    +0.000 C 
ATOM     13  C   UNL     1       0.774  12.266  20.135  0.00  0.00    +0.000 C 
ATOM     14  C   UNL     1      -0.138  11.241  20.840  0.00  0.00    +0.000 C 
ATOM     15  N   UNL     1      -0.235  11.434  22.295  0.00  0.00    +0.000 NA
ATOM     16  C   UNL     1      -0.853  10.281  23.005  0.00  0.00    +0.000 C 
ATOM     17  C   UNL     1      -0.351   8.842  22.670  0.00  0.00    +0.000 C 
ENDROOT
BRANCH   1  19
ATOM     18  C   UNL     1       1.297   3.474  20.500  0.00  0.00    +0.000 C 
ATOM     19  O   UNL     1       2.423   4.342  20.607  0.00  0.00    +0.000 OA
ENDBRANCH   1  19
BRANCH  15  20
ATOM     20  C   UNL     1      -0.837  12.720  22.702  0.00  0.00    +0.000 C 
BRANCH  20  21
ATOM     21  C   UNL     1      -2.352  12.849  22.663  0.00  0.00    +0.000 A 
ATOM     22  C   UNL     1      -3.035  12.881  21.435  0.00  0.00    +0.000 A 
ATOM     23  C   UNL     1      -4.431  12.929  21.388  0.00  0.00    +0.000 A 
ATOM     24  C   UNL     1      -5.168  12.932  22.568  0.00  0.00    +0.000 A 
ATOM     25  C   UNL     1      -4.510  12.906  23.796  0.00  0.00    +0.000 A 
ATOM     26  C   UNL     1      -3.111  12.869  23.843  0.00  0.00    +0.000 A 
ENDBRANCH  20  21
ENDBRANCH  15  20
TORSDOF 3
ENDMDL
MODEL 5
REMARK VINA RESULT:      -7.5      4.166     10.130
REMARK  Name = 
REMARK  4 active torsions:
REMARK  status: ('A' for Active; 'I' for Inactive)
REMARK    1  A    between atoms: C_1  and  O_2
REMARK    2  A    between atoms: O_2  and  C_3
REMARK    3  A    between atoms: N_17  and  C_18
REMARK    4  A    between atoms: C_18  and  C_19
REMARK                            x       y       z     vdW  Elec       q    Type
REMARK                         _______ _______ _______ _____ _____    ______ ____
ROOT
ATOM      1  C   UNL     1       2.507   5.922  19.832  0.00  0.00    +0.000 A 
ATOM      2  C   UNL     1       3.015   6.615  18.738  0.00  0.00    +0.000 A 
ATOM      3  C   UNL     1       2.654   7.941  18.494  0.00  0.00    +0.000 A 
ATOM      4  C   UNL     1       1.769   8.573  19.380  0.00  0.00    +0.000 A 
ATOM      5  C   UNL     1       1.267   7.914  20.513  0.00  0.00    +0.000 A 
ATOM      6  C   UNL     1       1.640   6.567  20.728  0.00  0.00    +0.000 A 
ATOM      7  C   UNL     1       0.475   8.855  21.224  0.00  0.00    +0.000 A 
ATOM      8  C   UNL     1       0.479  10.020  20.498  0.00  0.00    +0.000 A 
ATOM      9  N   UNL     1       1.249   9.868  19.367  0.00  0.00    +0.000 N 
ATOM     10  C   UNL     1       1.470  10.878  18.417  0.00  0.00    +0.000 C 
ATOM     11  O   UNL     1       2.130  10.673  17.407  0.00  0.00    +0.000 OA
ATOM     12  C   UNL     1       0.742  12.167  18.719  0.00  0.00    +0.000 C 
ATOM     13  C   UNL     1       0.642  12.431  20.222  0.00  0.00    +0.000 C 
ATOM     14  C   UNL     1      -0.191  11.305  20.867  0.00  0.00    +0.000 C 
ATOM     15  N   UNL     1      -0.276  11.393  22.333  0.00  0.00    +0.000 NA
ATOM     16  C   UNL     1      -0.808  10.159  22.971  0.00  0.00    +0.000 C 
ATOM     17  C   UNL     1      -0.222   8.780  22.532  0.00  0.00    +0.000 C 
ENDROOT
BRANCH   1  19
ATOM     18  C   UNL     1       2.060   4.042  21.213  0.00  0.00    +0.000 C 
ATOM     19  O   UNL     1       2.793   4.614  20.133  0.00  0.00    +0.000 OA
ENDBRANCH   1  19
BRANCH  15  20
ATOM     20  C   UNL     1      -0.951  12.608  22.834  0.00  0.00    +0.000 C 
BRANCH  20  21
ATOM     21  C   UNL     1      -2.470  12.659  22.786  0.00  0.00    +0.000 A 
ATOM     22  C   UNL     1      -3.224  12.634  23.971  0.00  0.00    +0.000 A 
ATOM     23  C   UNL     1      -4.617  12.750  23.942  0.00  0.00    +0.000 A 
ATOM     24  C   UNL     1      -5.277  12.908  22.727  0.00  0.00    +0.000 A 
ATOM     25  C   UNL     1      -4.547  12.931  21.540  0.00  0.00    +0.000 A 
ATOM     26  C   UNL     1      -3.154  12.802  21.569  0.00  0.00    +0.000 A 
ENDBRANCH  20  21
ENDBRANCH  15  20
TORSDOF 3
ENDMDL
MODEL 6
REMARK VINA RESULT:      -7.5      3.538      6.020
REMARK  Name = 
REMARK  4 active torsions:
REMARK  status: ('A' for Active; 'I' for Inactive)
REMARK    1  A    between atoms: C_1  and  O_2
REMARK    2  A    between atoms: O_2  and  C_3
REMARK    3  A    between atoms: N_17  and  C_18
REMARK    4  A    between atoms: C_18  and  C_19
REMARK                            x       y       z     vdW  Elec       q    Type
REMARK                         _______ _______ _______ _____ _____    ______ ____
ROOT
ATOM      1  C   UNL     1       1.838  14.423  18.698  0.00  0.00    +0.000 A 
ATOM      2  C   UNL     1       1.288  14.690  19.948  0.00  0.00    +0.000 A 
ATOM      3  C   UNL     1       0.836  13.658  20.773  0.00  0.00    +0.000 A 
ATOM      4  C   UNL     1       0.952  12.335  20.321  0.00  0.00    +0.000 A 
ATOM      5  C   UNL     1       1.534  12.029  19.081  0.00  0.00    +0.000 A 
ATOM      6  C   UNL     1       1.971  13.096  18.262  0.00  0.00    +0.000 A 
ATOM      7  C   UNL     1       1.564  10.613  18.975  0.00  0.00    +0.000 A 
ATOM      8  C   UNL     1       0.971  10.108  20.105  0.00  0.00    +0.000 A 
ATOM      9  N   UNL     1       0.581  11.137  20.932  0.00  0.00    +0.000 N 
ATOM     10  C   UNL     1      -0.045  10.959  22.177  0.00  0.00    +0.000 C 
ATOM     11  O   UNL     1      -0.409  11.913  22.851  0.00  0.00    +0.000 OA
ATOM     12  C   UNL     1      -0.302   9.512  22.527  0.00  0.00    +0.000 C 
ATOM     13  C   UNL     1       0.796   8.589  21.997  0.00  0.00    +0.000 C 
ATOM     14  C   UNL     1       0.802   8.664  20.456  0.00  0.00    +0.000 C 
ATOM     15  N   UNL     1       1.887   7.892  19.829  0.00  0.00    +0.000 NA
ATOM     16  C   UNL     1       2.080   8.207  18.387  0.00  0.00    +0.000 C 
ATOM     17  C   UNL     1       2.143   9.705  17.953  0.00  0.00    +0.000 C 
ENDROOT
BRANCH   1  19
ATOM     18  C   UNL     1       3.694  15.592  17.789  0.00  0.00    +0.000 C 
ATOM     19  O   UNL     1       2.285  15.376  17.819  0.00  0.00    +0.000 OA
ENDBRANCH   1  19
BRANCH  15  20
ATOM     20  C   UNL     1       1.819   6.436  20.071  0.00  0.00    +0.000 C 
BRANCH  20  21
ATOM     21  C   UNL     1       2.663   5.522  19.196  0.00  0.00    +0.000 A 
ATOM     22  C   UNL     1       4.050   5.420  19.397  0.00  0.00    +0.000 A 
ATOM     23  C   UNL     1       4.823   4.531  18.646  0.00  0.00    +0.000 A 
ATOM     24  C   UNL     1       4.220   3.719  17.691  0.00  0.00    +0.000 A 
ATOM     25  C   UNL     1       2.847   3.807  17.474  0.00  0.00    +0.000 A 
ATOM     26  C   UNL     1       2.074   4.706  18.218  0.00  0.00    +0.000 A 
ENDBRANCH  20  21
ENDBRANCH  15  20
TORSDOF 3
ENDMDL
MODEL 7
REMARK VINA RESULT:      -7.5      1.180      1.553
REMARK  Name = 
REMARK  4 active torsions:
REMARK  status: ('A' for Active; 'I' for Inactive)
REMARK    1  A    between atoms: C_1  and  O_2
REMARK    2  A    between atoms: O_2  and  C_3
REMARK    3  A    between atoms: N_17  and  C_18
REMARK    4  A    between atoms: C_18  and  C_19
REMARK                            x       y       z     vdW  Elec       q    Type
REMARK                         _______ _______ _______ _____ _____    ______ ____
ROOT
ATOM      1  C   UNL     1       1.509   8.257  20.441  0.00  0.00    +0.000 A 
ATOM      2  C   UNL     1       0.999   7.183  21.165  0.00  0.00    +0.000 A 
ATOM      3  C   UNL     1       1.242   5.867  20.769  0.00  0.00    +0.000 A 
ATOM      4  C   UNL     1       2.019   5.640  19.623  0.00  0.00    +0.000 A 
ATOM      5  C   UNL     1       2.578   6.699  18.892  0.00  0.00    +0.000 A 
ATOM      6  C   UNL     1       2.305   8.022  19.309  0.00  0.00    +0.000 A 
ATOM      7  C   UNL     1       3.360   6.121  17.856  0.00  0.00    +0.000 A 
ATOM      8  C   UNL     1       3.222   4.758  17.955  0.00  0.00    +0.000 A 
ATOM      9  N   UNL     1       2.402   4.444  19.014  0.00  0.00    +0.000 N 
ATOM     10  C   UNL     1       2.068   3.134  19.397  0.00  0.00    +0.000 C 
ATOM     11  O   UNL     1       1.299   2.914  20.322  0.00  0.00    +0.000 OA
ATOM     12  C   UNL     1       2.662   2.070  18.503  0.00  0.00    +0.000 C 
ATOM     13  C   UNL     1       4.040   2.468  17.973  0.00  0.00    +0.000 C 
ATOM     14  C   UNL     1       3.888   3.729  17.098  0.00  0.00    +0.000 C 
ATOM     15  N   UNL     1       5.166   4.270  16.610  0.00  0.00    +0.000 NA
ATOM     16  C   UNL     1       5.048   5.638  16.035  0.00  0.00    +0.000 C 
ATOM     17  C   UNL     1       4.258   6.719  16.837  0.00  0.00    +0.000 C 
ENDROOT
BRANCH   1  19
ATOM     18  C   UNL     1       0.682  10.369  19.737  0.00  0.00    +0.000 C 
ATOM     19  O   UNL     1       1.302   9.577  20.748  0.00  0.00    +0.000 OA
ENDBRANCH   1  19
BRANCH  15  20
ATOM     20  C   UNL     1       5.915   3.360  15.719  0.00  0.00    +0.000 C 
BRANCH  20  21
ATOM     21  C   UNL     1       6.500   3.930  14.436  0.00  0.00    +0.000 A 
ATOM     22  C   UNL     1       6.061   3.469  13.184  0.00  0.00    +0.000 A 
ATOM     23  C   UNL     1       6.541   4.034  11.999  0.00  0.00    +0.000 A 
ATOM     24  C   UNL     1       7.459   5.078  12.048  0.00  0.00    +0.000 A 
ATOM     25  C   UNL     1       7.911   5.546  13.280  0.00  0.00    +0.000 A 
ATOM     26  C   UNL     1       7.439   4.972  14.466  0.00  0.00    +0.000 A 
ENDBRANCH  20  21
ENDBRANCH  15  20
TORSDOF 3
ENDMDL
MODEL 8
REMARK VINA RESULT:      -7.4      4.703      8.394
REMARK  Name = 
REMARK  4 active torsions:
REMARK  status: ('A' for Active; 'I' for Inactive)
REMARK    1  A    between atoms: C_1  and  O_2
REMARK    2  A    between atoms: O_2  and  C_3
REMARK    3  A    between atoms: N_17  and  C_18
REMARK    4  A    between atoms: C_18  and  C_19
REMARK                            x       y       z     vdW  Elec       q    Type
REMARK                         _______ _______ _______ _____ _____    ______ ____
ROOT
ATOM      1  C   UNL     1      -4.731  13.494  22.444  0.00  0.00    +0.000 A 
ATOM      2  C   UNL     1      -5.640  13.136  21.453  0.00  0.00    +0.000 A 
ATOM      3  C   UNL     1      -5.210  12.584  20.245  0.00  0.00    +0.000 A 
ATOM      4  C   UNL     1      -3.835  12.389  20.046  0.00  0.00    +0.000 A 
ATOM      5  C   UNL     1      -2.895  12.707  21.038  0.00  0.00    +0.000 A 
ATOM      6  C   UNL     1      -3.359  13.276  22.246  0.00  0.00    +0.000 A 
ATOM      7  C   UNL     1      -1.621  12.316  20.544  0.00  0.00    +0.000 A 
ATOM      8  C   UNL     1      -1.810  11.825  19.276  0.00  0.00    +0.000 A 
ATOM      9  N   UNL     1      -3.146  11.871  18.948  0.00  0.00    +0.000 N 
ATOM     10  C   UNL     1      -3.678  11.430  17.725  0.00  0.00    +0.000 C 
ATOM     11  O   UNL     1      -4.869  11.534  17.470  0.00  0.00    +0.000 OA
ATOM     12  C   UNL     1      -2.634  10.926  16.755  0.00  0.00    +0.000 C 
ATOM     13  C   UNL     1      -1.473  10.232  17.469  0.00  0.00    +0.000 C 
ATOM     14  C   UNL     1      -0.762  11.262  18.371  0.00  0.00    +0.000 C 
ATOM     15  N   UNL     1       0.316  10.687  19.191  0.00  0.00    +0.000 NA
ATOM     16  C   UNL     1       0.789  11.598  20.269  0.00  0.00    +0.000 C 
ATOM     17  C   UNL     1      -0.274  12.305  21.167  0.00  0.00    +0.000 C 
ENDROOT
BRANCH   1  19
ATOM     18  C   UNL     1      -4.224  15.115  24.105  0.00  0.00    +0.000 C 
ATOM     19  O   UNL     1      -5.067  14.060  23.648  0.00  0.00    +0.000 OA
ENDBRANCH   1  19
BRANCH  15  20
ATOM     20  C   UNL     1       1.439  10.122  18.415  0.00  0.00    +0.000 C 
BRANCH  20  21
ATOM     21  C   UNL     1       1.881   8.699  18.721  0.00  0.00    +0.000 A 
ATOM     22  C   UNL     1       2.659   7.979  17.799  0.00  0.00    +0.000 A 
ATOM     23  C   UNL     1       3.128   6.696  18.099  0.00  0.00    +0.000 A 
ATOM     24  C   UNL     1       2.839   6.120  19.332  0.00  0.00    +0.000 A 
ATOM     25  C   UNL     1       2.065   6.816  20.258  0.00  0.00    +0.000 A 
ATOM     26  C   UNL     1       1.585   8.095  19.952  0.00  0.00    +0.000 A 
ENDBRANCH  20  21
ENDBRANCH  15  20
TORSDOF 3
ENDMDL
MODEL 9
REMARK VINA RESULT:      -7.4      4.514      7.222
REMARK  Name = 
REMARK  4 active torsions:
REMARK  status: ('A' for Active; 'I' for Inactive)
REMARK    1  A    between atoms: C_1  and  O_2
REMARK    2  A    between atoms: O_2  and  C_3
REMARK    3  A    between atoms: N_17  and  C_18
REMARK    4  A    between atoms: C_18  and  C_19
REMARK                            x       y       z     vdW  Elec       q    Type
REMARK                         _______ _______ _______ _____ _____    ______ ____
ROOT
ATOM      1  C   UNL     1      -2.983  12.529  23.039  0.00  0.00    +0.000 A 
ATOM      2  C   UNL     1      -3.212  13.138  21.809  0.00  0.00    +0.000 A 
ATOM      3  C   UNL     1      -2.434  12.825  20.694  0.00  0.00    +0.000 A 
ATOM      4  C   UNL     1      -1.411  11.875  20.831  0.00  0.00    +0.000 A 
ATOM      5  C   UNL     1      -1.177  11.216  22.048  0.00  0.00    +0.000 A 
ATOM      6  C   UNL     1      -1.973  11.562  23.164  0.00  0.00    +0.000 A 
ATOM      7  C   UNL     1      -0.137  10.275  21.818  0.00  0.00    +0.000 A 
ATOM      8  C   UNL     1       0.255  10.415  20.510  0.00  0.00    +0.000 A 
ATOM      9  N   UNL     1      -0.497  11.390  19.894  0.00  0.00    +0.000 N 
ATOM     10  C   UNL     1      -0.356  11.769  18.549  0.00  0.00    +0.000 C 
ATOM     11  O   UNL     1      -1.023  12.673  18.066  0.00  0.00    +0.000 OA
ATOM     12  C   UNL     1       0.746  11.033  17.823  0.00  0.00    +0.000 C 
ATOM     13  C   UNL     1       0.893   9.592  18.312  0.00  0.00    +0.000 C 
ATOM     14  C   UNL     1       1.299   9.615  19.800  0.00  0.00    +0.000 C 
ATOM     15  N   UNL     1       1.375   8.280  20.415  0.00  0.00    +0.000 NA
ATOM     16  C   UNL     1       1.461   8.317  21.900  0.00  0.00    +0.000 C 
ATOM     17  C   UNL     1       0.468   9.233  22.683  0.00  0.00    +0.000 C 
ENDROOT
BRANCH   1  19
ATOM     18  C   UNL     1      -4.892  13.537  24.030  0.00  0.00    +0.000 C 
ATOM     19  O   UNL     1      -3.686  12.793  24.187  0.00  0.00    +0.000 OA
ENDBRANCH   1  19
BRANCH  15  20
ATOM     20  C   UNL     1       2.398   7.392  19.825  0.00  0.00    +0.000 C 
BRANCH  20  21
ATOM     21  C   UNL     1       2.012   5.953  19.518  0.00  0.00    +0.000 A 
ATOM     22  C   UNL     1       1.503   5.120  20.528  0.00  0.00    +0.000 A 
ATOM     23  C   UNL     1       1.080   3.818  20.243  0.00  0.00    +0.000 A 
ATOM     24  C   UNL     1       1.146   3.335  18.939  0.00  0.00    +0.000 A 
ATOM     25  C   UNL     1       1.651   4.145  17.925  0.00  0.00    +0.000 A 
ATOM     26  C   UNL     1       2.086   5.443  18.213  0.00  0.00    +0.000 A 
ENDBRANCH  20  21
ENDBRANCH  15  20
TORSDOF 3
ENDMDL
