MODEL 1
REMARK VINA RESULT:      -8.4      0.000      0.000
REMARK  Name = 
REMARK  13 active torsions:
REMARK  status: ('A' for Active; 'I' for Inactive)
REMARK    1  A    between atoms: C_1  and  C_2
REMARK    2  A    between atoms: C_2  and  C_3
REMARK    3  A    between atoms: C_2  and  C_4
REMARK    4  A    between atoms: C_7  and  C_8
REMARK    5  A    between atoms: N_10  and  C_11
REMARK    6  A    between atoms: C_11  and  C_12
REMARK    7  A    between atoms: C_11  and  C_19
REMARK    8  A    between atoms: C_12  and  C_13
REMARK    9  A    between atoms: C_19  and  O_21
REMARK   10  A    between atoms: O_21  and  C_22
REMARK   11  A    between atoms: C_22  and  O_23
REMARK   12  A    between atoms: O_23  and  N_24
REMARK   13  A    between atoms: N_25  and  N_27
REMARK                            x       y       z     vdW  Elec       q    Type
REMARK                         _______ _______ _______ _____ _____    ______ ____
ROOT
ATOM      1  C   UNL     1       5.560   6.120  16.421  0.00  0.00    +0.000 C 
ENDROOT
BRANCH   1   4
ATOM      2  C   UNL     1       3.272   6.199  17.531  0.00  0.00    +0.000 C 
ATOM      3  O   UNL     1       3.061   4.994  17.457  0.00  0.00    +0.000 OA
ATOM      4  N   UNL     1       4.389   6.809  17.005  0.00  0.00    +0.000 N 
ATOM      5  H   UNL     1       4.553   7.772  17.284  0.00  0.00    +0.000 HD
BRANCH   2   9
ATOM      6  C   UNL     1       1.503   9.493  19.918  0.00  0.00    +0.000 C 
ATOM      7  C   UNL     1       1.367   8.036  20.407  0.00  0.00    +0.000 C 
ATOM      8  C   UNL     1       2.353   7.084  19.732  0.00  0.00    +0.000 C 
ATOM      9  C   UNL     1       2.264   7.144  18.206  0.00  0.00    +0.000 C 
ATOM     10  C   UNL     1       2.419   8.585  17.713  0.00  0.00    +0.000 C 
ATOM     11  C   UNL     1       1.416   9.532  18.378  0.00  0.00    +0.000 C 
BRANCH   6  13
ATOM     12  C   UNL     1       0.039   9.941  21.995  0.00  0.00    +0.000 C 
ATOM     13  C   UNL     1       0.444  10.419  20.595  0.00  0.00    +0.000 C 
ATOM     14  C   UNL     1      -0.829  10.543  19.746  0.00  0.00    +0.000 C 
ENDBRANCH   6  13
ENDBRANCH   2   9
ENDBRANCH   1   4
BRANCH   1  15
ATOM     15  C   UNL     1       6.653   5.977  17.491  0.00  0.00    +0.000 C 
ATOM     16  O   UNL     1       7.547   6.797  17.684  0.00  0.00    +0.000 OA
BRANCH  15  17
ATOM     17  O   UNL     1       6.531   4.802  18.172  0.00  0.00    +0.000 OA
BRANCH  17  18
ATOM     18  C   UNL     1       6.034   4.947  19.518  0.00  0.00    +0.000 C 
BRANCH  18  19
ATOM     19  O   UNL     1       4.974   4.041  19.793  0.00  0.00    +0.000 OA
BRANCH  19  20
ATOM     20  N   UNL     1       5.017   2.951  18.904  0.00  0.00    +0.000 NA
ATOM     21  N   UNL     1       4.033   2.158  19.106  0.00  0.00    +0.000 N 
ATOM     22  O   UNL     1       4.072   0.960  18.668  0.00  0.00    +0.000 OA
BRANCH  21  23
ATOM     23  N   UNL     1       2.909   2.488  19.858  0.00  0.00    +0.000 N 
ATOM     24  C   UNL     1       1.574   2.666  19.361  0.00  0.00    +0.000 C 
ATOM     25  C   UNL     1       1.043   3.690  20.346  0.00  0.00    +0.000 C 
ATOM     26  C   UNL     1       1.604   3.178  21.673  0.00  0.00    +0.000 C 
ATOM     27  C   UNL     1       2.933   2.505  21.298  0.00  0.00    +0.000 C 
ENDBRANCH  21  23
ENDBRANCH  19  20
ENDBRANCH  18  19
ENDBRANCH  17  18
ENDBRANCH  15  17
ENDBRANCH   1  15
BRANCH   1  28
ATOM     28  C   UNL     1       5.347   4.748  15.751  0.00  0.00    +0.000 C 
BRANCH  28  29
ATOM     29  C   UNL     1       5.941   4.480  14.384  0.00  0.00    +0.000 A 
ATOM     30  C   UNL     1       5.368   3.627  13.435  0.00  0.00    +0.000 A 
ATOM     31  C   UNL     1       5.969   3.439  12.187  0.00  0.00    +0.000 A 
ATOM     32  C   UNL     1       7.159   4.090  11.875  0.00  0.00    +0.000 A 
ATOM     33  C   UNL     1       7.758   4.923  12.815  0.00  0.00    +0.000 A 
ATOM     34  C   UNL     1       7.150   5.121  14.056  0.00  0.00    +0.000 A 
ENDBRANCH  28  29
ENDBRANCH   1  28
TORSDOF 11
ENDMDL
MODEL 2
REMARK VINA RESULT:      -8.4      0.722      1.150
REMARK  Name = 
REMARK  13 active torsions:
REMARK  status: ('A' for Active; 'I' for Inactive)
REMARK    1  A    between atoms: C_1  and  C_2
REMARK    2  A    between atoms: C_2  and  C_3
REMARK    3  A    between atoms: C_2  and  C_4
REMARK    4  A    between atoms: C_7  and  C_8
REMARK    5  A    between atoms: N_10  and  C_11
REMARK    6  A    between atoms: C_11  and  C_12
REMARK    7  A    between atoms: C_11  and  C_19
REMARK    8  A    between atoms: C_12  and  C_13
REMARK    9  A    between atoms: C_19  and  O_21
REMARK   10  A    between atoms: O_21  and  C_22
REMARK   11  A    between atoms: C_22  and  O_23
REMARK   12  A    between atoms: O_23  and  N_24
REMARK   13  A    between atoms: N_25  and  N_27
REMARK                            x       y       z     vdW  Elec       q    Type
REMARK                         _______ _______ _______ _____ _____    ______ ____
ROOT
ATOM      1  C   UNL     1       5.550   6.242  16.419  0.00  0.00    +0.000 C 
ENDROOT
BRANCH   1   4
ATOM      2  C   UNL     1       3.252   6.221  17.510  0.00  0.00    +0.000 C 
ATOM      3  O   UNL     1       3.052   5.022  17.346  0.00  0.00    +0.000 OA
ATOM      4  N   UNL     1       4.368   6.876  17.042  0.00  0.00    +0.000 N 
ATOM      5  H   UNL     1       4.521   7.817  17.392  0.00  0.00    +0.000 HD
BRANCH   2   9
ATOM      6  C   UNL     1       1.429   9.404  20.004  0.00  0.00    +0.000 C 
ATOM      7  C   UNL     1       1.406   7.941  20.495  0.00  0.00    +0.000 C 
ATOM      8  C   UNL     1       2.407   7.049  19.762  0.00  0.00    +0.000 C 
ATOM      9  C   UNL     1       2.229   7.104  18.244  0.00  0.00    +0.000 C 
ATOM     10  C   UNL     1       2.271   8.552  17.749  0.00  0.00    +0.000 C 
ATOM     11  C   UNL     1       1.254   9.438  18.472  0.00  0.00    +0.000 C 
BRANCH   6  13
ATOM     12  C   UNL     1      -0.269   9.543  21.942  0.00  0.00    +0.000 C 
ATOM     13  C   UNL     1       0.357  10.266  20.743  0.00  0.00    +0.000 C 
ATOM     14  C   UNL     1      -0.775  10.695  19.800  0.00  0.00    +0.000 C 
ENDBRANCH   6  13
ENDBRANCH   2   9
ENDBRANCH   1   4
BRANCH   1  15
ATOM     15  C   UNL     1       6.667   6.111  17.465  0.00  0.00    +0.000 C 
ATOM     16  O   UNL     1       7.519   6.969  17.683  0.00  0.00    +0.000 OA
BRANCH  15  17
ATOM     17  O   UNL     1       6.620   4.902  18.093  0.00  0.00    +0.000 OA
BRANCH  17  18
ATOM     18  C   UNL     1       5.894   4.908  19.338  0.00  0.00    +0.000 C 
BRANCH  18  19
ATOM     19  O   UNL     1       4.831   3.965  19.338  0.00  0.00    +0.000 OA
BRANCH  19  20
ATOM     20  N   UNL     1       5.203   2.807  20.046  0.00  0.00    +0.000 NA
ATOM     21  N   UNL     1       4.203   2.313  20.674  0.00  0.00    +0.000 N 
ATOM     22  O   UNL     1       4.388   1.495  21.635  0.00  0.00    +0.000 OA
BRANCH  21  23
ATOM     23  N   UNL     1       2.879   2.669  20.431  0.00  0.00    +0.000 N 
ATOM     24  C   UNL     1       2.023   2.121  19.417  0.00  0.00    +0.000 C 
ATOM     25  C   UNL     1       1.130   3.312  19.131  0.00  0.00    +0.000 C 
ATOM     26  C   UNL     1       0.869   3.861  20.534  0.00  0.00    +0.000 C 
ATOM     27  C   UNL     1       2.143   3.526  21.324  0.00  0.00    +0.000 C 
ENDBRANCH  21  23
ENDBRANCH  19  20
ENDBRANCH  18  19
ENDBRANCH  17  18
ENDBRANCH  15  17
ENDBRANCH   1  15
BRANCH   1  28
ATOM     28  C   UNL     1       5.370   4.881  15.718  0.00  0.00    +0.000 C 
BRANCH  28  29
ATOM     29  C   UNL     1       6.043   4.628  14.386  0.00  0.00    +0.000 A 
ATOM     30  C   UNL     1       7.214   5.268  13.967  0.00  0.00    +0.000 A 
ATOM     31  C   UNL     1       7.786   4.973  12.725  0.00  0.00    +0.000 A 
ATOM     32  C   UNL     1       7.186   4.044  11.879  0.00  0.00    +0.000 A 
ATOM     33  C   UNL     1       6.007   3.414  12.267  0.00  0.00    +0.000 A 
ATOM     34  C   UNL     1       5.445   3.700  13.513  0.00  0.00    +0.000 A 
ENDBRANCH  28  29
ENDBRANCH   1  28
TORSDOF 11
ENDMDL
MODEL 3
REMARK VINA RESULT:      -8.2      0.511      1.423
REMARK  Name = 
REMARK  13 active torsions:
REMARK  status: ('A' for Active; 'I' for Inactive)
REMARK    1  A    between atoms: C_1  and  C_2
REMARK    2  A    between atoms: C_2  and  C_3
REMARK    3  A    between atoms: C_2  and  C_4
REMARK    4  A    between atoms: C_7  and  C_8
REMARK    5  A    between atoms: N_10  and  C_11
REMARK    6  A    between atoms: C_11  and  C_12
REMARK    7  A    between atoms: C_11  and  C_19
REMARK    8  A    between atoms: C_12  and  C_13
REMARK    9  A    between atoms: C_19  and  O_21
REMARK   10  A    between atoms: O_21  and  C_22
REMARK   11  A    between atoms: C_22  and  O_23
REMARK   12  A    between atoms: O_23  and  N_24
REMARK   13  A    between atoms: N_25  and  N_27
REMARK                            x       y       z     vdW  Elec       q    Type
REMARK                         _______ _______ _______ _____ _____    ______ ____
ROOT
ATOM      1  C   UNL     1       5.729   6.332  16.404  0.00  0.00    +0.000 C 
ENDROOT
BRANCH   1   4
ATOM      2  C   UNL     1       3.615   6.804  17.739  0.00  0.00    +0.000 C 
ATOM      3  O   UNL     1       3.158   5.670  17.644  0.00  0.00    +0.000 OA
ATOM      4  N   UNL     1       4.781   7.207  17.126  0.00  0.00    +0.000 N 
ATOM      5  H   UNL     1       5.161   8.101  17.421  0.00  0.00    +0.000 HD
BRANCH   2   9
ATOM      6  C   UNL     1       0.446   9.182  19.733  0.00  0.00    +0.000 C 
ATOM      7  C   UNL     1       1.153   9.747  18.483  0.00  0.00    +0.000 C 
ATOM      8  C   UNL     1       1.896   8.678  17.682  0.00  0.00    +0.000 C 
ATOM      9  C   UNL     1       2.885   7.891  18.544  0.00  0.00    +0.000 C 
ATOM     10  C   UNL     1       2.185   7.311  19.775  0.00  0.00    +0.000 C 
ATOM     11  C   UNL     1       1.458   8.388  20.585  0.00  0.00    +0.000 C 
BRANCH   6  13
ATOM     12  C   UNL     1       0.375  11.693  20.318  0.00  0.00    +0.000 C 
ATOM     13  C   UNL     1      -0.255  10.314  20.547  0.00  0.00    +0.000 C 
ATOM     14  C   UNL     1      -0.238  10.025  22.055  0.00  0.00    +0.000 C 
ENDBRANCH   6  13
ENDBRANCH   2   9
ENDBRANCH   1   4
BRANCH   1  15
ATOM     15  C   UNL     1       6.815   5.847  17.377  0.00  0.00    +0.000 C 
ATOM     16  O   UNL     1       7.893   6.409  17.550  0.00  0.00    +0.000 OA
BRANCH  15  17
ATOM     17  O   UNL     1       6.448   4.688  17.993  0.00  0.00    +0.000 OA
BRANCH  17  18
ATOM     18  C   UNL     1       6.058   4.848  19.372  0.00  0.00    +0.000 C 
BRANCH  18  19
ATOM     19  O   UNL     1       5.072   3.901  19.759  0.00  0.00    +0.000 OA
BRANCH  19  20
ATOM     20  N   UNL     1       4.939   2.901  18.776  0.00  0.00    +0.000 NA
ATOM     21  N   UNL     1       3.869   2.222  18.956  0.00  0.00    +0.000 N 
ATOM     22  O   UNL     1       3.736   1.076  18.413  0.00  0.00    +0.000 OA
BRANCH  21  23
ATOM     23  N   UNL     1       2.826   2.619  19.789  0.00  0.00    +0.000 N 
ATOM     24  C   UNL     1       1.544   3.113  19.372  0.00  0.00    +0.000 C 
ATOM     25  C   UNL     1       1.212   4.038  20.526  0.00  0.00    +0.000 C 
ATOM     26  C   UNL     1       1.675   3.223  21.734  0.00  0.00    +0.000 C 
ATOM     27  C   UNL     1       2.858   2.394  21.210  0.00  0.00    +0.000 C 
ENDBRANCH  21  23
ENDBRANCH  19  20
ENDBRANCH  18  19
ENDBRANCH  17  18
ENDBRANCH  15  17
ENDBRANCH   1  15
BRANCH   1  28
ATOM     28  C   UNL     1       5.172   5.112  15.643  0.00  0.00    +0.000 C 
BRANCH  28  29
ATOM     29  C   UNL     1       5.831   4.667  14.355  0.00  0.00    +0.000 A 
ATOM     30  C   UNL     1       7.091   5.099  13.930  0.00  0.00    +0.000 A 
ATOM     31  C   UNL     1       7.642   4.633  12.733  0.00  0.00    +0.000 A 
ATOM     32  C   UNL     1       6.933   3.738  11.935  0.00  0.00    +0.000 A 
ATOM     33  C   UNL     1       5.666   3.315  12.328  0.00  0.00    +0.000 A 
ATOM     34  C   UNL     1       5.124   3.771  13.531  0.00  0.00    +0.000 A 
ENDBRANCH  28  29
ENDBRANCH   1  28
TORSDOF 11
ENDMDL
MODEL 4
REMARK VINA RESULT:      -7.9      3.667      8.362
REMARK  Name = 
REMARK  13 active torsions:
REMARK  status: ('A' for Active; 'I' for Inactive)
REMARK    1  A    between atoms: C_1  and  C_2
REMARK    2  A    between atoms: C_2  and  C_3
REMARK    3  A    between atoms: C_2  and  C_4
REMARK    4  A    between atoms: C_7  and  C_8
REMARK    5  A    between atoms: N_10  and  C_11
REMARK    6  A    between atoms: C_11  and  C_12
REMARK    7  A    between atoms: C_11  and  C_19
REMARK    8  A    between atoms: C_12  and  C_13
REMARK    9  A    between atoms: C_19  and  O_21
REMARK   10  A    between atoms: O_21  and  C_22
REMARK   11  A    between atoms: C_22  and  O_23
REMARK   12  A    between atoms: O_23  and  N_24
REMARK   13  A    between atoms: N_25  and  N_27
REMARK                            x       y       z     vdW  Elec       q    Type
REMARK                         _______ _______ _______ _____ _____    ______ ____
ROOT
ATOM      1  C   UNL     1       2.829   7.119  19.281  0.00  0.00    +0.000 C 
ENDROOT
BRANCH   1   4
ATOM      2  C   UNL     1       4.826   5.761  18.480  0.00  0.00    +0.000 C 
ATOM      3  O   UNL     1       5.291   5.561  19.596  0.00  0.00    +0.000 OA
ATOM      4  N   UNL     1       3.714   6.540  18.248  0.00  0.00    +0.000 N 
ATOM      5  H   UNL     1       3.310   6.486  17.318  0.00  0.00    +0.000 HD
BRANCH   2   9
ATOM      6  C   UNL     1       5.495   4.248  14.364  0.00  0.00    +0.000 C 
ATOM      7  C   UNL     1       5.480   3.259  15.549  0.00  0.00    +0.000 C 
ATOM      8  C   UNL     1       4.841   3.844  16.808  0.00  0.00    +0.000 C 
ATOM      9  C   UNL     1       5.486   5.166  17.225  0.00  0.00    +0.000 C 
ATOM     10  C   UNL     1       5.486   6.159  16.059  0.00  0.00    +0.000 C 
ATOM     11  C   UNL     1       6.144   5.576  14.806  0.00  0.00    +0.000 C 
BRANCH   6  13
ATOM     12  C   UNL     1       7.270   4.551  12.517  0.00  0.00    +0.000 C 
ATOM     13  C   UNL     1       6.202   3.629  13.118  0.00  0.00    +0.000 C 
ATOM     14  C   UNL     1       5.199   3.274  12.012  0.00  0.00    +0.000 C 
ENDBRANCH   6  13
ENDBRANCH   2   9
ENDBRANCH   1   4
BRANCH   1  15
ATOM     15  C   UNL     1       2.102   8.342  18.701  0.00  0.00    +0.000 C 
ATOM     16  O   UNL     1       2.252   8.759  17.555  0.00  0.00    +0.000 OA
BRANCH  15  17
ATOM     17  O   UNL     1       1.303   8.933  19.634  0.00  0.00    +0.000 OA
BRANCH  17  18
ATOM     18  C   UNL     1       0.633  10.122  19.171  0.00  0.00    +0.000 C 
BRANCH  18  19
ATOM     19  O   UNL     1      -0.406  10.525  20.053  0.00  0.00    +0.000 OA
BRANCH  19  20
ATOM     20  N   UNL     1      -0.327   9.809  21.263  0.00  0.00    +0.000 NA
ATOM     21  N   UNL     1      -0.414  10.598  22.267  0.00  0.00    +0.000 N 
ATOM     22  O   UNL     1      -0.020  10.218  23.419  0.00  0.00    +0.000 OA
BRANCH  21  23
ATOM     23  N   UNL     1      -0.855  11.916  22.186  0.00  0.00    +0.000 N 
ATOM     24  C   UNL     1      -0.046  13.068  21.902  0.00  0.00    +0.000 C 
ATOM     25  C   UNL     1      -0.799  14.135  22.673  0.00  0.00    +0.000 C 
ATOM     26  C   UNL     1      -2.255  13.781  22.370  0.00  0.00    +0.000 C 
ATOM     27  C   UNL     1      -2.254  12.255  22.195  0.00  0.00    +0.000 C 
ENDBRANCH  21  23
ENDBRANCH  19  20
ENDBRANCH  18  19
ENDBRANCH  17  18
ENDBRANCH  15  17
ENDBRANCH   1  15
BRANCH   1  28
ATOM     28  C   UNL     1       1.789   6.203  19.955  0.00  0.00    +0.000 C 
BRANCH  28  29
ATOM     29  C   UNL     1       1.892   4.701  19.789  0.00  0.00    +0.000 A 
ATOM     30  C   UNL     1       2.399   3.839  20.767  0.00  0.00    +0.000 A 
ATOM     31  C   UNL     1       2.451   2.459  20.547  0.00  0.00    +0.000 A 
ATOM     32  C   UNL     1       2.010   1.924  19.340  0.00  0.00    +0.000 A 
ATOM     33  C   UNL     1       1.524   2.767  18.345  0.00  0.00    +0.000 A 
ATOM     34  C   UNL     1       1.460   4.143  18.572  0.00  0.00    +0.000 A 
ENDBRANCH  28  29
ENDBRANCH   1  28
TORSDOF 11
ENDMDL
MODEL 5
REMARK VINA RESULT:      -7.9      2.420      4.167
REMARK  Name = 
REMARK  13 active torsions:
REMARK  status: ('A' for Active; 'I' for Inactive)
REMARK    1  A    between atoms: C_1  and  C_2
REMARK    2  A    between atoms: C_2  and  C_3
REMARK    3  A    between atoms: C_2  and  C_4
REMARK    4  A    between atoms: C_7  and  C_8
REMARK    5  A    between atoms: N_10  and  C_11
REMARK    6  A    between atoms: C_11  and  C_12
REMARK    7  A    between atoms: C_11  and  C_19
REMARK    8  A    between atoms: C_12  and  C_13
REMARK    9  A    between atoms: C_19  and  O_21
REMARK   10  A    between atoms: O_21  and  C_22
REMARK   11  A    between atoms: C_22  and  O_23
REMARK   12  A    between atoms: O_23  and  N_24
REMARK   13  A    between atoms: N_25  and  N_27
REMARK                            x       y       z     vdW  Elec       q    Type
REMARK                         _______ _______ _______ _____ _____    ______ ____
ROOT
ATOM      1  C   UNL     1       2.992   7.622  18.013  0.00  0.00    +0.000 C 
ENDROOT
BRANCH   1   4
ATOM      2  C   UNL     1       1.262   9.213  18.988  0.00  0.00    +0.000 C 
ATOM      3  O   UNL     1       1.635   9.098  20.150  0.00  0.00    +0.000 OA
ATOM      4  N   UNL     1       1.804   8.500  17.942  0.00  0.00    +0.000 N 
ATOM      5  H   UNL     1       1.552   8.807  17.007  0.00  0.00    +0.000 HD
BRANCH   2   9
ATOM      6  C   UNL     1      -2.785  10.930  18.390  0.00  0.00    +0.000 C 
ATOM      7  C   UNL     1      -1.947  10.502  17.166  0.00  0.00    +0.000 C 
ATOM      8  C   UNL     1      -0.791   9.571  17.529  0.00  0.00    +0.000 C 
ATOM      9  C   UNL     1       0.112  10.162  18.612  0.00  0.00    +0.000 C 
ATOM     10  C   UNL     1      -0.710  10.570  19.837  0.00  0.00    +0.000 C 
ATOM     11  C   UNL     1      -1.855  11.519  19.472  0.00  0.00    +0.000 C 
BRANCH   6  13
ATOM     12  C   UNL     1      -4.779  12.369  19.170  0.00  0.00    +0.000 C 
ATOM     13  C   UNL     1      -3.920  11.920  17.981  0.00  0.00    +0.000 C 
ATOM     14  C   UNL     1      -4.850  11.313  16.922  0.00  0.00    +0.000 C 
ENDBRANCH   6  13
ENDBRANCH   2   9
ENDBRANCH   1   4
BRANCH   1  15
ATOM     15  C   UNL     1       2.553   6.204  18.408  0.00  0.00    +0.000 C 
ATOM     16  O   UNL     1       1.885   5.460  17.695  0.00  0.00    +0.000 OA
BRANCH  15  17
ATOM     17  O   UNL     1       2.962   5.892  19.671  0.00  0.00    +0.000 OA
BRANCH  17  18
ATOM     18  C   UNL     1       1.890   5.754  20.624  0.00  0.00    +0.000 C 
BRANCH  18  19
ATOM     19  O   UNL     1       1.443   4.410  20.732  0.00  0.00    +0.000 OA
BRANCH  19  20
ATOM     20  N   UNL     1       2.094   3.761  21.798  0.00  0.00    +0.000 NA
ATOM     21  N   UNL     1       2.715   2.719  21.389  0.00  0.00    +0.000 N 
ATOM     22  O   UNL     1       3.063   1.812  22.215  0.00  0.00    +0.000 OA
BRANCH  21  23
ATOM     23  N   UNL     1       2.986   2.450  20.050  0.00  0.00    +0.000 N 
ATOM     24  C   UNL     1       4.278   2.459  19.424  0.00  0.00    +0.000 C 
ATOM     25  C   UNL     1       3.903   2.873  18.014  0.00  0.00    +0.000 C 
ATOM     26  C   UNL     1       2.630   2.061  17.770  0.00  0.00    +0.000 C 
ATOM     27  C   UNL     1       1.981   1.934  19.157  0.00  0.00    +0.000 C 
ENDBRANCH  21  23
ENDBRANCH  19  20
ENDBRANCH  18  19
ENDBRANCH  17  18
ENDBRANCH  15  17
ENDBRANCH   1  15
BRANCH   1  28
ATOM     28  C   UNL     1       3.910   7.527  16.778  0.00  0.00    +0.000 C 
BRANCH  28  29
ATOM     29  C   UNL     1       5.059   6.540  16.772  0.00  0.00    +0.000 A 
ATOM     30  C   UNL     1       5.241   5.558  15.792  0.00  0.00    +0.000 A 
ATOM     31  C   UNL     1       6.336   4.690  15.846  0.00  0.00    +0.000 A 
ATOM     32  C   UNL     1       7.255   4.782  16.887  0.00  0.00    +0.000 A 
ATOM     33  C   UNL     1       7.078   5.737  17.885  0.00  0.00    +0.000 A 
ATOM     34  C   UNL     1       5.992   6.612  17.823  0.00  0.00    +0.000 A 
ENDBRANCH  28  29
ENDBRANCH   1  28
TORSDOF 11
ENDMDL
MODEL 6
REMARK VINA RESULT:      -7.8      3.588      8.371
REMARK  Name = 
REMARK  13 active torsions:
REMARK  status: ('A' for Active; 'I' for Inactive)
REMARK    1  A    between atoms: C_1  and  C_2
REMARK    2  A    between atoms: C_2  and  C_3
REMARK    3  A    between atoms: C_2  and  C_4
REMARK    4  A    between atoms: C_7  and  C_8
REMARK    5  A    between atoms: N_10  and  C_11
REMARK    6  A    between atoms: C_11  and  C_12
REMARK    7  A    between atoms: C_11  and  C_19
REMARK    8  A    between atoms: C_12  and  C_13
REMARK    9  A    between atoms: C_19  and  O_21
REMARK   10  A    between atoms: O_21  and  C_22
REMARK   11  A    between atoms: C_22  and  O_23
REMARK   12  A    between atoms: O_23  and  N_24
REMARK   13  A    between atoms: N_25  and  N_27
REMARK                            x       y       z     vdW  Elec       q    Type
REMARK                         _______ _______ _______ _____ _____    ______ ____
ROOT
ATOM      1  C   UNL     1       2.925   7.131  19.234  0.00  0.00    +0.000 C 
ENDROOT
BRANCH   1   4
ATOM      2  C   UNL     1       4.870   5.661  18.506  0.00  0.00    +0.000 C 
ATOM      3  O   UNL     1       5.345   5.526  19.628  0.00  0.00    +0.000 OA
ATOM      4  N   UNL     1       3.778   6.455  18.233  0.00  0.00    +0.000 N 
ATOM      5  H   UNL     1       3.359   6.348  17.314  0.00  0.00    +0.000 HD
BRANCH   2   9
ATOM      6  C   UNL     1       5.985   4.601  14.345  0.00  0.00    +0.000 C 
ATOM      7  C   UNL     1       5.050   3.671  15.147  0.00  0.00    +0.000 C 
ATOM      8  C   UNL     1       4.435   4.351  16.369  0.00  0.00    +0.000 C 
ATOM      9  C   UNL     1       5.495   4.961  17.288  0.00  0.00    +0.000 C 
ATOM     10  C   UNL     1       6.413   5.900  16.503  0.00  0.00    +0.000 C 
ATOM     11  C   UNL     1       7.042   5.210  15.290  0.00  0.00    +0.000 C 
BRANCH   6  13
ATOM     12  C   UNL     1       7.504   4.763  12.266  0.00  0.00    +0.000 C 
ATOM     13  C   UNL     1       6.630   3.852  13.138  0.00  0.00    +0.000 C 
ATOM     14  C   UNL     1       5.569   3.204  12.238  0.00  0.00    +0.000 C 
ENDBRANCH   6  13
ENDBRANCH   2   9
ENDBRANCH   1   4
BRANCH   1  15
ATOM     15  C   UNL     1       2.159   8.278  18.557  0.00  0.00    +0.000 C 
ATOM     16  O   UNL     1       2.321   8.628  17.391  0.00  0.00    +0.000 OA
BRANCH  15  17
ATOM     17  O   UNL     1       1.308   8.890  19.430  0.00  0.00    +0.000 OA
BRANCH  17  18
ATOM     18  C   UNL     1       1.090  10.289  19.162  0.00  0.00    +0.000 C 
BRANCH  18  19
ATOM     19  O   UNL     1       0.952  11.044  20.357  0.00  0.00    +0.000 OA
BRANCH  19  20
ATOM     20  N   UNL     1       0.664  10.195  21.443  0.00  0.00    +0.000 NA
ATOM     21  N   UNL     1      -0.141  10.759  22.264  0.00  0.00    +0.000 N 
ATOM     22  O   UNL     1      -0.250  10.325  23.458  0.00  0.00    +0.000 OA
BRANCH  21  23
ATOM     23  N   UNL     1      -0.881  11.900  21.967  0.00  0.00    +0.000 N 
ATOM     24  C   UNL     1      -0.735  13.192  22.576  0.00  0.00    +0.000 C 
ATOM     25  C   UNL     1      -2.155  13.712  22.475  0.00  0.00    +0.000 C 
ATOM     26  C   UNL     1      -2.563  13.258  21.073  0.00  0.00    +0.000 C 
ATOM     27  C   UNL     1      -1.783  11.955  20.846  0.00  0.00    +0.000 C 
ENDBRANCH  21  23
ENDBRANCH  19  20
ENDBRANCH  18  19
ENDBRANCH  17  18
ENDBRANCH  15  17
ENDBRANCH   1  15
BRANCH   1  28
ATOM     28  C   UNL     1       1.924   6.281  20.042  0.00  0.00    +0.000 C 
BRANCH  28  29
ATOM     29  C   UNL     1       1.817   4.794  19.776  0.00  0.00    +0.000 A 
ATOM     30  C   UNL     1       1.507   4.243  18.528  0.00  0.00    +0.000 A 
ATOM     31  C   UNL     1       1.439   2.857  18.356  0.00  0.00    +0.000 A 
ATOM     32  C   UNL     1       1.665   2.003  19.432  0.00  0.00    +0.000 A 
ATOM     33  C   UNL     1       1.951   2.533  20.687  0.00  0.00    +0.000 A 
ATOM     34  C   UNL     1       2.032   3.916  20.854  0.00  0.00    +0.000 A 
ENDBRANCH  28  29
ENDBRANCH   1  28
TORSDOF 11
ENDMDL
MODEL 7
REMARK VINA RESULT:      -7.7      3.738      8.344
REMARK  Name = 
REMARK  13 active torsions:
REMARK  status: ('A' for Active; 'I' for Inactive)
REMARK    1  A    between atoms: C_1  and  C_2
REMARK    2  A    between atoms: C_2  and  C_3
REMARK    3  A    between atoms: C_2  and  C_4
REMARK    4  A    between atoms: C_7  and  C_8
REMARK    5  A    between atoms: N_10  and  C_11
REMARK    6  A    between atoms: C_11  and  C_12
REMARK    7  A    between atoms: C_11  and  C_19
REMARK    8  A    between atoms: C_12  and  C_13
REMARK    9  A    between atoms: C_19  and  O_21
REMARK   10  A    between atoms: O_21  and  C_22
REMARK   11  A    between atoms: C_22  and  O_23
REMARK   12  A    between atoms: O_23  and  N_24
REMARK   13  A    between atoms: N_25  and  N_27
REMARK                            x       y       z     vdW  Elec       q    Type
REMARK                         _______ _______ _______ _____ _____    ______ ____
ROOT
ATOM      1  C   UNL     1       2.767   7.223  19.020  0.00  0.00    +0.000 C 
ENDROOT
BRANCH   1   4
ATOM      2  C   UNL     1       4.797   5.865  18.307  0.00  0.00    +0.000 C 
ATOM      3  O   UNL     1       5.232   5.696  19.441  0.00  0.00    +0.000 OA
ATOM      4  N   UNL     1       3.686   6.628  18.026  0.00  0.00    +0.000 N 
ATOM      5  H   UNL     1       3.308   6.548  17.086  0.00  0.00    +0.000 HD
BRANCH   2   9
ATOM      6  C   UNL     1       5.603   4.290  14.240  0.00  0.00    +0.000 C 
ATOM      7  C   UNL     1       5.536   3.318  15.437  0.00  0.00    +0.000 C 
ATOM      8  C   UNL     1       4.856   3.926  16.663  0.00  0.00    +0.000 C 
ATOM      9  C   UNL     1       5.497   5.248  17.086  0.00  0.00    +0.000 C 
ATOM     10  C   UNL     1       5.549   6.224  15.908  0.00  0.00    +0.000 C 
ATOM     11  C   UNL     1       6.247   5.618  14.688  0.00  0.00    +0.000 C 
BRANCH   6  13
ATOM     12  C   UNL     1       7.321   4.616  12.344  0.00  0.00    +0.000 C 
ATOM     13  C   UNL     1       6.349   3.647  13.029  0.00  0.00    +0.000 C 
ATOM     14  C   UNL     1       5.370   3.123  11.970  0.00  0.00    +0.000 C 
ENDBRANCH   6  13
ENDBRANCH   2   9
ENDBRANCH   1   4
BRANCH   1  15
ATOM     15  C   UNL     1       2.025   8.408  18.382  0.00  0.00    +0.000 C 
ATOM     16  O   UNL     1       2.421   9.025  17.397  0.00  0.00    +0.000 OA
BRANCH  15  17
ATOM     17  O   UNL     1       0.893   8.716  19.076  0.00  0.00    +0.000 OA
BRANCH  17  18
ATOM     18  C   UNL     1       0.867  10.059  19.600  0.00  0.00    +0.000 C 
BRANCH  18  19
ATOM     19  O   UNL     1      -0.078  10.876  18.923  0.00  0.00    +0.000 OA
BRANCH  19  20
ATOM     20  N   UNL     1      -1.026  11.385  19.832  0.00  0.00    +0.000 NA
ATOM     21  N   UNL     1      -2.167  11.528  19.269  0.00  0.00    +0.000 N 
ATOM     22  O   UNL     1      -3.050  12.286  19.791  0.00  0.00    +0.000 OA
BRANCH  21  23
ATOM     23  N   UNL     1      -2.509  10.959  18.045  0.00  0.00    +0.000 N 
ATOM     24  C   UNL     1      -3.054   9.647  17.839  0.00  0.00    +0.000 C 
ATOM     25  C   UNL     1      -2.500   9.325  16.465  0.00  0.00    +0.000 C 
ATOM     26  C   UNL     1      -2.673  10.656  15.732  0.00  0.00    +0.000 C 
ATOM     27  C   UNL     1      -2.523  11.724  16.826  0.00  0.00    +0.000 C 
ENDBRANCH  21  23
ENDBRANCH  19  20
ENDBRANCH  18  19
ENDBRANCH  17  18
ENDBRANCH  15  17
ENDBRANCH   1  15
BRANCH   1  28
ATOM     28  C   UNL     1       1.733   6.307  19.706  0.00  0.00    +0.000 C 
BRANCH  28  29
ATOM     29  C   UNL     1       1.851   4.805  19.564  0.00  0.00    +0.000 A 
ATOM     30  C   UNL     1       1.513   4.099  18.404  0.00  0.00    +0.000 A 
ATOM     31  C   UNL     1       1.662   2.710  18.343  0.00  0.00    +0.000 A 
ATOM     32  C   UNL     1       2.137   2.006  19.446  0.00  0.00    +0.000 A 
ATOM     33  C   UNL     1       2.455   2.686  20.618  0.00  0.00    +0.000 A 
ATOM     34  C   UNL     1       2.319   4.074  20.672  0.00  0.00    +0.000 A 
ENDBRANCH  28  29
ENDBRANCH   1  28
TORSDOF 11
ENDMDL
MODEL 8
REMARK VINA RESULT:      -7.6      1.855      5.348
REMARK  Name = 
REMARK  13 active torsions:
REMARK  status: ('A' for Active; 'I' for Inactive)
REMARK    1  A    between atoms: C_1  and  C_2
REMARK    2  A    between atoms: C_2  and  C_3
REMARK    3  A    between atoms: C_2  and  C_4
REMARK    4  A    between atoms: C_7  and  C_8
REMARK    5  A    between atoms: N_10  and  C_11
REMARK    6  A    between atoms: C_11  and  C_12
REMARK    7  A    between atoms: C_11  and  C_19
REMARK    8  A    between atoms: C_12  and  C_13
REMARK    9  A    between atoms: C_19  and  O_21
REMARK   10  A    between atoms: O_21  and  C_22
REMARK   11  A    between atoms: C_22  and  O_23
REMARK   12  A    between atoms: O_23  and  N_24
REMARK   13  A    between atoms: N_25  and  N_27
REMARK                            x       y       z     vdW  Elec       q    Type
REMARK                         _______ _______ _______ _____ _____    ______ ____
ROOT
ATOM      1  C   UNL     1       5.262   4.743  18.949  0.00  0.00    +0.000 C 
ENDROOT
BRANCH   1   4
ATOM      2  C   UNL     1       3.340   6.359  18.538  0.00  0.00    +0.000 C 
ATOM      3  O   UNL     1       2.821   5.703  17.642  0.00  0.00    +0.000 OA
ATOM      4  N   UNL     1       4.522   6.008  19.150  0.00  0.00    +0.000 N 
ATOM      5  H   UNL     1       4.761   6.515  19.998  0.00  0.00    +0.000 HD
BRANCH   2   9
ATOM      6  C   UNL     1       0.385   9.483  19.628  0.00  0.00    +0.000 C 
ATOM      7  C   UNL     1       1.310   9.697  18.411  0.00  0.00    +0.000 C 
ATOM      8  C   UNL     1       1.959   8.404  17.919  0.00  0.00    +0.000 C 
ATOM      9  C   UNL     1       2.706   7.669  19.033  0.00  0.00    +0.000 C 
ATOM     10  C   UNL     1       1.787   7.436  20.236  0.00  0.00    +0.000 C 
ATOM     11  C   UNL     1       1.154   8.736  20.737  0.00  0.00    +0.000 C 
BRANCH   6  13
ATOM     12  C   UNL     1      -1.181  11.469  19.121  0.00  0.00    +0.000 C 
ATOM     13  C   UNL     1      -0.214  10.834  20.128  0.00  0.00    +0.000 C 
ATOM     14  C   UNL     1       0.883  11.859  20.448  0.00  0.00    +0.000 C 
ENDBRANCH   6  13
ENDBRANCH   2   9
ENDBRANCH   1   4
BRANCH   1  15
ATOM     15  C   UNL     1       6.733   4.947  19.343  0.00  0.00    +0.000 C 
ATOM     16  O   UNL     1       7.129   5.092  20.496  0.00  0.00    +0.000 OA
BRANCH  15  17
ATOM     17  O   UNL     1       7.539   4.989  18.244  0.00  0.00    +0.000 OA
BRANCH  17  18
ATOM     18  C   UNL     1       7.905   6.320  17.830  0.00  0.00    +0.000 C 
BRANCH  18  19
ATOM     19  O   UNL     1       7.510   6.589  16.492  0.00  0.00    +0.000 OA
BRANCH  19  20
ATOM     20  N   UNL     1       6.301   7.310  16.473  0.00  0.00    +0.000 NA
ATOM     21  N   UNL     1       5.453   6.760  15.688  0.00  0.00    +0.000 N 
ATOM     22  O   UNL     1       4.451   7.422  15.258  0.00  0.00    +0.000 OA
BRANCH  21  23
ATOM     23  N   UNL     1       5.581   5.467  15.186  0.00  0.00    +0.000 N 
ATOM     24  C   UNL     1       5.010   4.275  15.748  0.00  0.00    +0.000 C 
ATOM     25  C   UNL     1       6.039   3.246  15.324  0.00  0.00    +0.000 C 
ATOM     26  C   UNL     1       6.353   3.679  13.891  0.00  0.00    +0.000 C 
ATOM     27  C   UNL     1       6.168   5.204  13.898  0.00  0.00    +0.000 C 
ENDBRANCH  21  23
ENDBRANCH  19  20
ENDBRANCH  18  19
ENDBRANCH  17  18
ENDBRANCH  15  17
ENDBRANCH   1  15
BRANCH   1  28
ATOM     28  C   UNL     1       4.739   3.468  19.641  0.00  0.00    +0.000 C 
BRANCH  28  29
ATOM     29  C   UNL     1       3.253   3.180  19.659  0.00  0.00    +0.000 A 
ATOM     30  C   UNL     1       2.568   2.538  18.621  0.00  0.00    +0.000 A 
ATOM     31  C   UNL     1       1.195   2.294  18.714  0.00  0.00    +0.000 A 
ATOM     32  C   UNL     1       0.484   2.700  19.840  0.00  0.00    +0.000 A 
ATOM     33  C   UNL     1       1.143   3.361  20.873  0.00  0.00    +0.000 A 
ATOM     34  C   UNL     1       2.516   3.592  20.784  0.00  0.00    +0.000 A 
ENDBRANCH  28  29
ENDBRANCH   1  28
TORSDOF 11
ENDMDL
MODEL 9
REMARK VINA RESULT:      -7.5      3.728      8.511
REMARK  Name = 
REMARK  13 active torsions:
REMARK  status: ('A' for Active; 'I' for Inactive)
REMARK    1  A    between atoms: C_1  and  C_2
REMARK    2  A    between atoms: C_2  and  C_3
REMARK    3  A    between atoms: C_2  and  C_4
REMARK    4  A    between atoms: C_7  and  C_8
REMARK    5  A    between atoms: N_10  and  C_11
REMARK    6  A    between atoms: C_11  and  C_12
REMARK    7  A    between atoms: C_11  and  C_19
REMARK    8  A    between atoms: C_12  and  C_13
REMARK    9  A    between atoms: C_19  and  O_21
REMARK   10  A    between atoms: O_21  and  C_22
REMARK   11  A    between atoms: C_22  and  O_23
REMARK   12  A    between atoms: O_23  and  N_24
REMARK   13  A    between atoms: N_25  and  N_27
REMARK                            x       y       z     vdW  Elec       q    Type
REMARK                         _______ _______ _______ _____ _____    ______ ____
ROOT
ATOM      1  C   UNL     1       2.686   7.047  19.390  0.00  0.00    +0.000 C 
ENDROOT
BRANCH   1   4
ATOM      2  C   UNL     1       4.711   5.723  18.602  0.00  0.00    +0.000 C 
ATOM      3  O   UNL     1       5.149   5.495  19.724  0.00  0.00    +0.000 OA
ATOM      4  N   UNL     1       3.601   6.501  18.364  0.00  0.00    +0.000 N 
ATOM      5  H   UNL     1       3.220   6.470  17.422  0.00  0.00    +0.000 HD
BRANCH   2   9
ATOM      6  C   UNL     1       5.490   4.318  14.467  0.00  0.00    +0.000 C 
ATOM      7  C   UNL     1       5.460   3.300  15.628  0.00  0.00    +0.000 C 
ATOM      8  C   UNL     1       4.786   3.848  16.885  0.00  0.00    +0.000 C 
ATOM      9  C   UNL     1       5.407   5.166  17.349  0.00  0.00    +0.000 C 
ATOM     10  C   UNL     1       5.421   6.186  16.208  0.00  0.00    +0.000 C 
ATOM     11  C   UNL     1       6.114   5.642  14.957  0.00  0.00    +0.000 C 
BRANCH   6  13
ATOM     12  C   UNL     1       7.238   4.721  12.613  0.00  0.00    +0.000 C 
ATOM     13  C   UNL     1       6.232   3.737  13.223  0.00  0.00    +0.000 C 
ATOM     14  C   UNL     1       5.251   3.312  12.122  0.00  0.00    +0.000 C 
ENDBRANCH   6  13
ENDBRANCH   2   9
ENDBRANCH   1   4
BRANCH   1  15
ATOM     15  C   UNL     1       1.999   8.306  18.840  0.00  0.00    +0.000 C 
ATOM     16  O   UNL     1       1.717   8.483  17.658  0.00  0.00    +0.000 OA
BRANCH  15  17
ATOM     17  O   UNL     1       1.782   9.223  19.825  0.00  0.00    +0.000 OA
BRANCH  17  18
ATOM     18  C   UNL     1       0.407   9.635  19.957  0.00  0.00    +0.000 C 
BRANCH  18  19
ATOM     19  O   UNL     1       0.242  11.024  19.706  0.00  0.00    +0.000 OA
BRANCH  19  20
ATOM     20  N   UNL     1      -0.899  11.247  18.911  0.00  0.00    +0.000 NA
ATOM     21  N   UNL     1      -1.786  11.904  19.559  0.00  0.00    +0.000 N 
ATOM     22  O   UNL     1      -2.999  11.906  19.166  0.00  0.00    +0.000 OA
BRANCH  21  23
ATOM     23  N   UNL     1      -1.537  12.585  20.748  0.00  0.00    +0.000 N 
ATOM     24  C   UNL     1      -1.003  13.911  20.874  0.00  0.00    +0.000 C 
ATOM     25  C   UNL     1      -0.271  13.795  22.196  0.00  0.00    +0.000 C 
ATOM     26  C   UNL     1      -1.255  12.981  23.036  0.00  0.00    +0.000 C 
ATOM     27  C   UNL     1      -1.977  12.080  22.023  0.00  0.00    +0.000 C 
ENDBRANCH  21  23
ENDBRANCH  19  20
ENDBRANCH  18  19
ENDBRANCH  17  18
ENDBRANCH  15  17
ENDBRANCH   1  15
BRANCH   1  28
ATOM     28  C   UNL     1       1.609   6.118  19.983  0.00  0.00    +0.000 C 
BRANCH  28  29
ATOM     29  C   UNL     1       1.697   4.624  19.753  0.00  0.00    +0.000 A 
ATOM     30  C   UNL     1       1.402   4.001  18.535  0.00  0.00    +0.000 A 
ATOM     31  C   UNL     1       1.519   2.615  18.394  0.00  0.00    +0.000 A 
ATOM     32  C   UNL     1       1.919   1.831  19.473  0.00  0.00    +0.000 A 
ATOM     33  C   UNL     1       2.193   2.428  20.699  0.00  0.00    +0.000 A 
ATOM     34  C   UNL     1       2.089   3.814  20.835  0.00  0.00    +0.000 A 
ENDBRANCH  28  29
ENDBRANCH   1  28
TORSDOF 11
ENDMDL
