MODEL 1
REMARK VINA RESULT:      -7.8      0.000      0.000
REMARK  Name = 
REMARK  8 active torsions:
REMARK  status: ('A' for Active; 'I' for Inactive)
REMARK    1  A    between atoms: C_1  and  C_2
REMARK    2  A    between atoms: C_2  and  C_3
REMARK    3  A    between atoms: C_6  and  C_7
REMARK    4  A    between atoms: C_7  and  N_8
REMARK    5  A    between atoms: C_10  and  C_11
REMARK    6  A    between atoms: C_11  and  N_12
REMARK    7  A    between atoms: C_14  and  C_15
REMARK    8  A    between atoms: C_17  and  C_18
REMARK                            x       y       z     vdW  Elec       q    Type
REMARK                         _______ _______ _______ _____ _____    ______ ____
ROOT
ATOM      1  N   UNL     1       6.132   5.508  16.799  0.00  0.00    +0.000 N 
ATOM      2  C   UNL     1       5.063   5.000  17.474  0.00  0.00    +0.000 A 
ATOM      3  C   UNL     1       4.287   6.103  17.752  0.00  0.00    +0.000 A 
ATOM      4  N   UNL     1       4.884   7.214  17.209  0.00  0.00    +0.000 NA
ATOM      5  N   UNL     1       6.007   6.836  16.613  0.00  0.00    +0.000 NA
ENDROOT
BRANCH   1   6
ATOM      6  C   UNL     1       7.258   4.796  16.231  0.00  0.00    +0.000 C 
BRANCH   6  10
ATOM      7  C   UNL     1       6.283   3.911  12.954  0.00  0.00    +0.000 A 
ATOM      8  N   UNL     1       7.221   4.771  12.622  0.00  0.00    +0.000 NA
ATOM      9  N   UNL     1       7.751   5.248  13.802  0.00  0.00    +0.000 NA
ATOM     10  C   UNL     1       7.090   4.650  14.774  0.00  0.00    +0.000 A 
ATOM     11  O   UNL     1       6.145   3.770  14.310  0.00  0.00    +0.000 OA
BRANCH   7  13
ATOM     12  C   UNL     1       6.117   1.926  11.486  0.00  0.00    +0.000 C 
ATOM     13  C   UNL     1       5.389   3.119  12.083  0.00  0.00    +0.000 C 
ENDBRANCH   7  13
ENDBRANCH   6  10
ENDBRANCH   1   6
BRANCH   3  14
ATOM     14  C   UNL     1       2.997   6.212  18.495  0.00  0.00    +0.000 C 
BRANCH  14  15
ATOM     15  N   UNL     1       2.581   4.907  19.061  0.00  0.00    +0.000 NA
ATOM     16  C   UNL     1       1.829   5.099  20.321  0.00  0.00    +0.000 C 
ATOM     17  C   UNL     1       1.272   3.780  20.893  0.00  0.00    +0.000 C 
ATOM     18  C   UNL     1       2.337   2.921  21.569  0.00  0.00    +0.000 C 
ATOM     19  O   UNL     1       0.499   3.040  19.938  0.00  0.00    +0.000 OA
ATOM     20  C   UNL     1       1.068   2.917  18.627  0.00  0.00    +0.000 C 
ATOM     21  C   UNL     1       2.005   1.720  18.516  0.00  0.00    +0.000 C 
ATOM     22  C   UNL     1       1.683   4.231  18.099  0.00  0.00    +0.000 C 
ENDBRANCH  14  15
ENDBRANCH   3  14
TORSDOF 5
ENDMDL
MODEL 2
REMARK VINA RESULT:      -7.2      0.854      1.725
REMARK  Name = 
REMARK  8 active torsions:
REMARK  status: ('A' for Active; 'I' for Inactive)
REMARK    1  A    between atoms: C_1  and  C_2
REMARK    2  A    between atoms: C_2  and  C_3
REMARK    3  A    between atoms: C_6  and  C_7
REMARK    4  A    between atoms: C_7  and  N_8
REMARK    5  A    between atoms: C_10  and  C_11
REMARK    6  A    between atoms: C_11  and  N_12
REMARK    7  A    between atoms: C_14  and  C_15
REMARK    8  A    between atoms: C_17  and  C_18
REMARK                            x       y       z     vdW  Elec       q    Type
REMARK                         _______ _______ _______ _____ _____    ______ ____
ROOT
ATOM      1  N   UNL     1       5.868   5.529  16.835  0.00  0.00    +0.000 N 
ATOM      2  C   UNL     1       4.859   5.038  17.608  0.00  0.00    +0.000 A 
ATOM      3  C   UNL     1       3.952   6.072  17.673  0.00  0.00    +0.000 A 
ATOM      4  N   UNL     1       4.419   7.120  16.918  0.00  0.00    +0.000 NA
ATOM      5  N   UNL     1       5.587   6.770  16.396  0.00  0.00    +0.000 NA
ENDROOT
BRANCH   1   6
ATOM      6  C   UNL     1       7.079   4.861  16.405  0.00  0.00    +0.000 C 
BRANCH   6  10
ATOM      7  C   UNL     1       6.609   3.922  13.033  0.00  0.00    +0.000 A 
ATOM      8  N   UNL     1       7.447   4.912  12.816  0.00  0.00    +0.000 NA
ATOM      9  N   UNL     1       7.769   5.432  14.051  0.00  0.00    +0.000 NA
ATOM     10  C   UNL     1       7.097   4.725  14.938  0.00  0.00    +0.000 A 
ATOM     11  O   UNL     1       6.343   3.733  14.365  0.00  0.00    +0.000 OA
BRANCH   7  13
ATOM     12  C   UNL     1       4.489   3.436  11.855  0.00  0.00    +0.000 C 
ATOM     13  C   UNL     1       5.939   3.032  12.062  0.00  0.00    +0.000 C 
ENDBRANCH   7  13
ENDBRANCH   6  10
ENDBRANCH   1   6
BRANCH   3  14
ATOM     14  C   UNL     1       2.650   6.167  18.394  0.00  0.00    +0.000 C 
BRANCH  14  15
ATOM     15  N   UNL     1       2.243   4.861  18.963  0.00  0.00    +0.000 NA
ATOM     16  C   UNL     1       2.201   3.821  17.910  0.00  0.00    +0.000 C 
ATOM     17  C   UNL     1       1.894   2.416  18.466  0.00  0.00    +0.000 C 
ATOM     18  C   UNL     1       0.424   2.220  18.827  0.00  0.00    +0.000 C 
ATOM     19  O   UNL     1       2.774   2.036  19.534  0.00  0.00    +0.000 OA
ATOM     20  C   UNL     1       3.007   3.029  20.542  0.00  0.00    +0.000 C 
ATOM     21  C   UNL     1       1.955   2.987  21.645  0.00  0.00    +0.000 C 
ATOM     22  C   UNL     1       3.243   4.443  19.969  0.00  0.00    +0.000 C 
ENDBRANCH  14  15
ENDBRANCH   3  14
TORSDOF 5
ENDMDL
MODEL 3
REMARK VINA RESULT:      -7.0      2.971      4.725
REMARK  Name = 
REMARK  8 active torsions:
REMARK  status: ('A' for Active; 'I' for Inactive)
REMARK    1  A    between atoms: C_1  and  C_2
REMARK    2  A    between atoms: C_2  and  C_3
REMARK    3  A    between atoms: C_6  and  C_7
REMARK    4  A    between atoms: C_7  and  N_8
REMARK    5  A    between atoms: C_10  and  C_11
REMARK    6  A    between atoms: C_11  and  N_12
REMARK    7  A    between atoms: C_14  and  C_15
REMARK    8  A    between atoms: C_17  and  C_18
REMARK                            x       y       z     vdW  Elec       q    Type
REMARK                         _______ _______ _______ _____ _____    ______ ____
ROOT
ATOM      1  N   UNL     1       6.709   4.663  17.563  0.00  0.00    +0.000 N 
ATOM      2  C   UNL     1       5.538   4.382  18.201  0.00  0.00    +0.000 A 
ATOM      3  C   UNL     1       4.758   3.797  17.229  0.00  0.00    +0.000 A 
ATOM      4  N   UNL     1       5.486   3.711  16.068  0.00  0.00    +0.000 NA
ATOM      5  N   UNL     1       6.687   4.230  16.289  0.00  0.00    +0.000 NA
ENDROOT
BRANCH   1   6
ATOM      6  C   UNL     1       7.911   5.257  18.110  0.00  0.00    +0.000 C 
BRANCH   6  10
ATOM      7  C   UNL     1       8.340   8.754  18.353  0.00  0.00    +0.000 A 
ATOM      8  N   UNL     1       7.521   8.758  17.325  0.00  0.00    +0.000 NA
ATOM      9  N   UNL     1       7.217   7.440  17.061  0.00  0.00    +0.000 NA
ATOM     10  C   UNL     1       7.881   6.721  17.945  0.00  0.00    +0.000 A 
ATOM     11  O   UNL     1       8.611   7.492  18.814  0.00  0.00    +0.000 OA
BRANCH   7  13
ATOM     12  C   UNL     1       9.123  11.089  18.113  0.00  0.00    +0.000 C 
ATOM     13  C   UNL     1       8.987   9.892  19.039  0.00  0.00    +0.000 C 
ENDBRANCH   7  13
ENDBRANCH   6  10
ENDBRANCH   1   6
BRANCH   3  14
ATOM     14  C   UNL     1       3.355   3.293  17.293  0.00  0.00    +0.000 C 
BRANCH  14  15
ATOM     15  N   UNL     1       2.753   3.520  18.628  0.00  0.00    +0.000 NA
ATOM     16  C   UNL     1       1.558   4.388  18.523  0.00  0.00    +0.000 C 
ATOM     17  C   UNL     1       0.825   4.563  19.868  0.00  0.00    +0.000 C 
ATOM     18  C   UNL     1       1.534   5.524  20.818  0.00  0.00    +0.000 C 
ATOM     19  O   UNL     1       0.503   3.314  20.494  0.00  0.00    +0.000 OA
ATOM     20  C   UNL     1       1.550   2.333  20.520  0.00  0.00    +0.000 C 
ATOM     21  C   UNL     1       2.458   2.494  21.734  0.00  0.00    +0.000 C 
ATOM     22  C   UNL     1       2.319   2.221  19.186  0.00  0.00    +0.000 C 
ENDBRANCH  14  15
ENDBRANCH   3  14
TORSDOF 5
ENDMDL
MODEL 4
REMARK VINA RESULT:      -7.0      4.263      7.811
REMARK  Name = 
REMARK  8 active torsions:
REMARK  status: ('A' for Active; 'I' for Inactive)
REMARK    1  A    between atoms: C_1  and  C_2
REMARK    2  A    between atoms: C_2  and  C_3
REMARK    3  A    between atoms: C_6  and  C_7
REMARK    4  A    between atoms: C_7  and  N_8
REMARK    5  A    between atoms: C_10  and  C_11
REMARK    6  A    between atoms: C_11  and  N_12
REMARK    7  A    between atoms: C_14  and  C_15
REMARK    8  A    between atoms: C_17  and  C_18
REMARK                            x       y       z     vdW  Elec       q    Type
REMARK                         _______ _______ _______ _____ _____    ______ ____
ROOT
ATOM      1  N   UNL     1       2.072   8.704  18.651  0.00  0.00    +0.000 N 
ATOM      2  C   UNL     1       2.741   7.776  17.911  0.00  0.00    +0.000 A 
ATOM      3  C   UNL     1       2.782   6.665  18.723  0.00  0.00    +0.000 A 
ATOM      4  N   UNL     1       2.113   6.943  19.889  0.00  0.00    +0.000 NA
ATOM      5  N   UNL     1       1.667   8.190  19.828  0.00  0.00    +0.000 NA
ENDROOT
BRANCH   1   6
ATOM      6  C   UNL     1       1.707  10.056  18.282  0.00  0.00    +0.000 C 
BRANCH   6  10
ATOM      7  C   UNL     1      -1.818  10.163  18.099  0.00  0.00    +0.000 A 
ATOM      8  N   UNL     1      -1.688  10.847  19.215  0.00  0.00    +0.000 NA
ATOM      9  N   UNL     1      -0.337  10.925  19.471  0.00  0.00    +0.000 NA
ATOM     10  C   UNL     1       0.265  10.275  18.495  0.00  0.00    +0.000 A 
ATOM     11  O   UNL     1      -0.615   9.771  17.571  0.00  0.00    +0.000 OA
BRANCH   7  13
ATOM     12  C   UNL     1      -2.862   9.878  15.874  0.00  0.00    +0.000 C 
ATOM     13  C   UNL     1      -3.048   9.773  17.378  0.00  0.00    +0.000 C 
ENDBRANCH   7  13
ENDBRANCH   6  10
ENDBRANCH   1   6
BRANCH   3  14
ATOM     14  C   UNL     1       3.404   5.328  18.495  0.00  0.00    +0.000 C 
BRANCH  14  15
ATOM     15  N   UNL     1       4.745   5.447  17.877  0.00  0.00    +0.000 NA
ATOM     16  C   UNL     1       5.802   5.444  18.913  0.00  0.00    +0.000 C 
ATOM     17  C   UNL     1       7.225   5.449  18.318  0.00  0.00    +0.000 C 
ATOM     18  C   UNL     1       7.646   6.814  17.781  0.00  0.00    +0.000 C 
ATOM     19  O   UNL     1       7.434   4.399  17.363  0.00  0.00    +0.000 OA
ATOM     20  C   UNL     1       6.393   4.212  16.394  0.00  0.00    +0.000 C 
ATOM     21  C   UNL     1       6.577   5.105  15.172  0.00  0.00    +0.000 C 
ATOM     22  C   UNL     1       4.973   4.279  16.997  0.00  0.00    +0.000 C 
ENDBRANCH  14  15
ENDBRANCH   3  14
TORSDOF 5
ENDMDL
MODEL 5
REMARK VINA RESULT:      -6.9      0.965      1.093
REMARK  Name = 
REMARK  8 active torsions:
REMARK  status: ('A' for Active; 'I' for Inactive)
REMARK    1  A    between atoms: C_1  and  C_2
REMARK    2  A    between atoms: C_2  and  C_3
REMARK    3  A    between atoms: C_6  and  C_7
REMARK    4  A    between atoms: C_7  and  N_8
REMARK    5  A    between atoms: C_10  and  C_11
REMARK    6  A    between atoms: C_11  and  N_12
REMARK    7  A    between atoms: C_14  and  C_15
REMARK    8  A    between atoms: C_17  and  C_18
REMARK                            x       y       z     vdW  Elec       q    Type
REMARK                         _______ _______ _______ _____ _____    ______ ____
ROOT
ATOM      1  N   UNL     1       6.588   5.133  16.255  0.00  0.00    +0.000 N 
ATOM      2  C   UNL     1       5.412   5.816  16.166  0.00  0.00    +0.000 A 
ATOM      3  C   UNL     1       4.710   5.424  17.284  0.00  0.00    +0.000 A 
ATOM      4  N   UNL     1       5.490   4.563  18.017  0.00  0.00    +0.000 NA
ATOM      5  N   UNL     1       6.645   4.405  17.386  0.00  0.00    +0.000 NA
ENDROOT
BRANCH   1   6
ATOM      6  C   UNL     1       7.726   5.183  15.362  0.00  0.00    +0.000 C 
BRANCH   6  10
ATOM      7  C   UNL     1       6.333   3.663  12.495  0.00  0.00    +0.000 A 
ATOM      8  N   UNL     1       7.062   4.561  11.870  0.00  0.00    +0.000 NA
ATOM      9  N   UNL     1       7.714   5.284  12.844  0.00  0.00    +0.000 NA
ATOM     10  C   UNL     1       7.330   4.781  14.001  0.00  0.00    +0.000 A 
ATOM     11  O   UNL     1       6.457   3.731  13.859  0.00  0.00    +0.000 OA
BRANCH   7  13
ATOM     12  C   UNL     1       6.205   1.518  11.268  0.00  0.00    +0.000 C 
ATOM     13  C   UNL     1       5.426   2.638  11.936  0.00  0.00    +0.000 C 
ENDBRANCH   7  13
ENDBRANCH   6  10
ENDBRANCH   1   6
BRANCH   3  14
ATOM     14  C   UNL     1       3.341   5.798  17.742  0.00  0.00    +0.000 C 
BRANCH  14  15
ATOM     15  N   UNL     1       2.757   4.761  18.624  0.00  0.00    +0.000 NA
ATOM     16  C   UNL     1       2.101   5.379  19.798  0.00  0.00    +0.000 C 
ATOM     17  C   UNL     1       1.377   4.351  20.691  0.00  0.00    +0.000 C 
ATOM     18  C   UNL     1       2.328   3.532  21.558  0.00  0.00    +0.000 C 
ATOM     19  O   UNL     1       0.458   3.528  19.960  0.00  0.00    +0.000 OA
ATOM     20  C   UNL     1       0.941   2.991  18.720  0.00  0.00    +0.000 C 
ATOM     21  C   UNL     1       1.680   1.671  18.914  0.00  0.00    +0.000 C 
ATOM     22  C   UNL     1       1.724   4.016  17.872  0.00  0.00    +0.000 C 
ENDBRANCH  14  15
ENDBRANCH   3  14
TORSDOF 5
ENDMDL
MODEL 6
REMARK VINA RESULT:      -6.8      1.175      1.287
REMARK  Name = 
REMARK  8 active torsions:
REMARK  status: ('A' for Active; 'I' for Inactive)
REMARK    1  A    between atoms: C_1  and  C_2
REMARK    2  A    between atoms: C_2  and  C_3
REMARK    3  A    between atoms: C_6  and  C_7
REMARK    4  A    between atoms: C_7  and  N_8
REMARK    5  A    between atoms: C_10  and  C_11
REMARK    6  A    between atoms: C_11  and  N_12
REMARK    7  A    between atoms: C_14  and  C_15
REMARK    8  A    between atoms: C_17  and  C_18
REMARK                            x       y       z     vdW  Elec       q    Type
REMARK                         _______ _______ _______ _____ _____    ______ ____
ROOT
ATOM      1  N   UNL     1       5.758   6.311  17.276  0.00  0.00    +0.000 N 
ATOM      2  C   UNL     1       5.141   5.727  18.341  0.00  0.00    +0.000 A 
ATOM      3  C   UNL     1       3.957   6.419  18.465  0.00  0.00    +0.000 A 
ATOM      4  N   UNL     1       3.884   7.355  17.463  0.00  0.00    +0.000 NA
ATOM      5  N   UNL     1       4.986   7.269  16.729  0.00  0.00    +0.000 NA
ENDROOT
BRANCH   1   6
ATOM      6  C   UNL     1       7.027   5.965  16.671  0.00  0.00    +0.000 C 
BRANCH   6  10
ATOM      7  C   UNL     1       6.960   4.375  13.518  0.00  0.00    +0.000 A 
ATOM      8  N   UNL     1       6.257   3.477  14.172  0.00  0.00    +0.000 NA
ATOM      9  N   UNL     1       6.160   3.926  15.472  0.00  0.00    +0.000 NA
ATOM     10  C   UNL     1       6.820   5.067  15.521  0.00  0.00    +0.000 A 
ATOM     11  O   UNL     1       7.348   5.427  14.307  0.00  0.00    +0.000 OA
BRANCH   7  13
ATOM     12  C   UNL     1       7.056   3.066  11.420  0.00  0.00    +0.000 C 
ATOM     13  C   UNL     1       7.376   4.387  12.100  0.00  0.00    +0.000 C 
ENDBRANCH   7  13
ENDBRANCH   6  10
ENDBRANCH   1   6
BRANCH   3  14
ATOM     14  C   UNL     1       2.856   6.275  19.461  0.00  0.00    +0.000 C 
BRANCH  14  15
ATOM     15  N   UNL     1       2.495   4.854  19.675  0.00  0.00    +0.000 NA
ATOM     16  C   UNL     1       1.393   4.735  20.656  0.00  0.00    +0.000 C 
ATOM     17  C   UNL     1       0.900   3.285  20.830  0.00  0.00    +0.000 C 
ATOM     18  C   UNL     1       1.842   2.426  21.669  0.00  0.00    +0.000 C 
ATOM     19  O   UNL     1       0.554   2.660  19.586  0.00  0.00    +0.000 OA
ATOM     20  C   UNL     1       1.487   2.838  18.511  0.00  0.00    +0.000 C 
ATOM     21  C   UNL     1       2.585   1.780  18.523  0.00  0.00    +0.000 C 
ATOM     22  C   UNL     1       2.024   4.281  18.396  0.00  0.00    +0.000 C 
ENDBRANCH  14  15
ENDBRANCH   3  14
TORSDOF 5
ENDMDL
MODEL 7
REMARK VINA RESULT:      -6.7      4.676      7.938
REMARK  Name = 
REMARK  8 active torsions:
REMARK  status: ('A' for Active; 'I' for Inactive)
REMARK    1  A    between atoms: C_1  and  C_2
REMARK    2  A    between atoms: C_2  and  C_3
REMARK    3  A    between atoms: C_6  and  C_7
REMARK    4  A    between atoms: C_7  and  N_8
REMARK    5  A    between atoms: C_10  and  C_11
REMARK    6  A    between atoms: C_11  and  N_12
REMARK    7  A    between atoms: C_14  and  C_15
REMARK    8  A    between atoms: C_17  and  C_18
REMARK                            x       y       z     vdW  Elec       q    Type
REMARK                         _______ _______ _______ _____ _____    ______ ____
ROOT
ATOM      1  N   UNL     1       1.487   9.506  18.810  0.00  0.00    +0.000 N 
ATOM      2  C   UNL     1       1.683   8.336  19.480  0.00  0.00    +0.000 A 
ATOM      3  C   UNL     1       2.412   7.564  18.603  0.00  0.00    +0.000 A 
ATOM      4  N   UNL     1       2.659   8.296  17.468  0.00  0.00    +0.000 NA
ATOM      5  N   UNL     1       2.102   9.491  17.612  0.00  0.00    +0.000 NA
ENDROOT
BRANCH   1   6
ATOM      6  C   UNL     1       0.808  10.701  19.265  0.00  0.00    +0.000 C 
BRANCH   6  10
ATOM      7  C   UNL     1      -2.186  10.301  17.436  0.00  0.00    +0.000 A 
ATOM      8  N   UNL     1      -2.659  11.116  18.353  0.00  0.00    +0.000 NA
ATOM      9  N   UNL     1      -1.610  11.408  19.197  0.00  0.00    +0.000 NA
ATOM     10  C   UNL     1      -0.568  10.742  18.738  0.00  0.00    +0.000 A 
ATOM     11  O   UNL     1      -0.855  10.022  17.606  0.00  0.00    +0.000 OA
BRANCH   7  13
ATOM     12  C   UNL     1      -3.072  10.648  15.151  0.00  0.00    +0.000 C 
ATOM     13  C   UNL     1      -2.884   9.667  16.297  0.00  0.00    +0.000 C 
ENDBRANCH   7  13
ENDBRANCH   6  10
ENDBRANCH   1   6
BRANCH   3  14
ATOM     14  C   UNL     1       2.915   6.166  18.739  0.00  0.00    +0.000 C 
BRANCH  14  15
ATOM     15  N   UNL     1       4.193   5.973  18.014  0.00  0.00    +0.000 NA
ATOM     16  C   UNL     1       5.280   5.619  18.954  0.00  0.00    +0.000 C 
ATOM     17  C   UNL     1       6.607   5.293  18.240  0.00  0.00    +0.000 C 
ATOM     18  C   UNL     1       7.340   6.534  17.740  0.00  0.00    +0.000 C 
ATOM     19  O   UNL     1       6.461   4.295  17.220  0.00  0.00    +0.000 OA
ATOM     20  C   UNL     1       5.344   4.458  16.335  0.00  0.00    +0.000 C 
ATOM     21  C   UNL     1       5.675   5.356  15.149  0.00  0.00    +0.000 C 
ATOM     22  C   UNL     1       4.039   4.852  17.061  0.00  0.00    +0.000 C 
ENDBRANCH  14  15
ENDBRANCH   3  14
TORSDOF 5
ENDMDL
MODEL 8
REMARK VINA RESULT:      -6.6      4.606      8.347
REMARK  Name = 
REMARK  8 active torsions:
REMARK  status: ('A' for Active; 'I' for Inactive)
REMARK    1  A    between atoms: C_1  and  C_2
REMARK    2  A    between atoms: C_2  and  C_3
REMARK    3  A    between atoms: C_6  and  C_7
REMARK    4  A    between atoms: C_7  and  N_8
REMARK    5  A    between atoms: C_10  and  C_11
REMARK    6  A    between atoms: C_11  and  N_12
REMARK    7  A    between atoms: C_14  and  C_15
REMARK    8  A    between atoms: C_17  and  C_18
REMARK                            x       y       z     vdW  Elec       q    Type
REMARK                         _______ _______ _______ _____ _____    ______ ____
ROOT
ATOM      1  N   UNL     1       1.418   9.007  18.868  0.00  0.00    +0.000 N 
ATOM      2  C   UNL     1       2.066   8.273  17.921  0.00  0.00    +0.000 A 
ATOM      3  C   UNL     1       2.585   7.206  18.620  0.00  0.00    +0.000 A 
ATOM      4  N   UNL     1       2.205   7.311  19.936  0.00  0.00    +0.000 NA
ATOM      5  N   UNL     1       1.476   8.411  20.073  0.00  0.00    +0.000 NA
ENDROOT
BRANCH   1   6
ATOM      6  C   UNL     1       0.658  10.228  18.695  0.00  0.00    +0.000 C 
BRANCH   6  10
ATOM      7  C   UNL     1      -0.404  11.388  21.857  0.00  0.00    +0.000 A 
ATOM      8  N   UNL     1       0.646  12.170  21.737  0.00  0.00    +0.000 NA
ATOM      9  N   UNL     1       1.223  11.868  20.522  0.00  0.00    +0.000 NA
ATOM     10  C   UNL     1       0.486  10.913  19.988  0.00  0.00    +0.000 A 
ATOM     11  O   UNL     1      -0.580  10.563  20.776  0.00  0.00    +0.000 OA
BRANCH   7  13
ATOM     12  C   UNL     1      -2.548  12.223  22.765  0.00  0.00    +0.000 C 
ATOM     13  C   UNL     1      -1.372  11.284  22.969  0.00  0.00    +0.000 C 
ENDBRANCH   7  13
ENDBRANCH   6  10
ENDBRANCH   1   6
BRANCH   3  14
ATOM     14  C   UNL     1       3.422   6.063  18.153  0.00  0.00    +0.000 C 
BRANCH  14  15
ATOM     15  N   UNL     1       2.936   4.772  18.694  0.00  0.00    +0.000 NA
ATOM     16  C   UNL     1       2.534   3.862  17.598  0.00  0.00    +0.000 C 
ATOM     17  C   UNL     1       2.128   2.462  18.100  0.00  0.00    +0.000 C 
ATOM     18  C   UNL     1       0.742   2.430  18.738  0.00  0.00    +0.000 C 
ATOM     19  O   UNL     1       3.127   1.857  18.933  0.00  0.00    +0.000 OA
ATOM     20  C   UNL     1       3.699   2.700  19.944  0.00  0.00    +0.000 C 
ATOM     21  C   UNL     1       2.884   2.688  21.232  0.00  0.00    +0.000 C 
ATOM     22  C   UNL     1       4.034   4.120  19.440  0.00  0.00    +0.000 C 
ENDBRANCH  14  15
ENDBRANCH   3  14
TORSDOF 5
ENDMDL
MODEL 9
REMARK VINA RESULT:      -6.6      1.738      2.574
REMARK  Name = 
REMARK  8 active torsions:
REMARK  status: ('A' for Active; 'I' for Inactive)
REMARK    1  A    between atoms: C_1  and  C_2
REMARK    2  A    between atoms: C_2  and  C_3
REMARK    3  A    between atoms: C_6  and  C_7
REMARK    4  A    between atoms: C_7  and  N_8
REMARK    5  A    between atoms: C_10  and  C_11
REMARK    6  A    between atoms: C_11  and  N_12
REMARK    7  A    between atoms: C_14  and  C_15
REMARK    8  A    between atoms: C_17  and  C_18
REMARK                            x       y       z     vdW  Elec       q    Type
REMARK                         _______ _______ _______ _____ _____    ______ ____
ROOT
ATOM      1  N   UNL     1       6.876   5.094  14.910  0.00  0.00    +0.000 N 
ATOM      2  C   UNL     1       5.840   5.669  15.583  0.00  0.00    +0.000 A 
ATOM      3  C   UNL     1       6.081   5.354  16.902  0.00  0.00    +0.000 A 
ATOM      4  N   UNL     1       7.255   4.646  16.982  0.00  0.00    +0.000 NA
ATOM      5  N   UNL     1       7.743   4.507  15.756  0.00  0.00    +0.000 NA
ENDROOT
BRANCH   1   6
ATOM      6  C   UNL     1       7.155   5.130  13.490  0.00  0.00    +0.000 C 
BRANCH   6  10
ATOM      7  C   UNL     1       6.245   2.275  11.621  0.00  0.00    +0.000 A 
ATOM      8  N   UNL     1       5.032   2.633  11.979  0.00  0.00    +0.000 NA
ATOM      9  N   UNL     1       5.168   3.773  12.741  0.00  0.00    +0.000 NA
ATOM     10  C   UNL     1       6.461   4.027  12.802  0.00  0.00    +0.000 A 
ATOM     11  O   UNL     1       7.213   3.120  12.099  0.00  0.00    +0.000 OA
BRANCH   7  13
ATOM     12  C   UNL     1       6.093  -0.179  11.343  0.00  0.00    +0.000 C 
ATOM     13  C   UNL     1       6.679   1.117  10.811  0.00  0.00    +0.000 C 
ENDBRANCH   7  13
ENDBRANCH   6  10
ENDBRANCH   1   6
BRANCH   3  14
ATOM     14  C   UNL     1       5.292   5.671  18.128  0.00  0.00    +0.000 C 
BRANCH  14  15
ATOM     15  N   UNL     1       4.186   4.706  18.331  0.00  0.00    +0.000 NA
ATOM     16  C   UNL     1       2.887   5.313  17.964  0.00  0.00    +0.000 C 
ATOM     17  C   UNL     1       1.715   4.314  18.047  0.00  0.00    +0.000 C 
ATOM     18  C   UNL     1       1.266   4.032  19.478  0.00  0.00    +0.000 C 
ATOM     19  O   UNL     1       1.952   3.112  17.301  0.00  0.00    +0.000 OA
ATOM     20  C   UNL     1       3.246   2.514  17.466  0.00  0.00    +0.000 C 
ATOM     21  C   UNL     1       3.291   1.563  18.657  0.00  0.00    +0.000 C 
ATOM     22  C   UNL     1       4.402   3.537  17.451  0.00  0.00    +0.000 C 
ENDBRANCH  14  15
ENDBRANCH   3  14
TORSDOF 5
ENDMDL
