MODEL 1
REMARK VINA RESULT:      -6.9      0.000      0.000
REMARK  Name = 
REMARK  10 active torsions:
REMARK  status: ('A' for Active; 'I' for Inactive)
REMARK    1  A    between atoms: C_1  and  C_2
REMARK    2  A    between atoms: C_2  and  O_3
REMARK    3  A    between atoms: O_3  and  C_4
REMARK    4  A    between atoms: C_6  and  C_7
REMARK    5  A    between atoms: N_9  and  C_10
REMARK    6  A    between atoms: N_9  and  C_11
REMARK    7  A    between atoms: C_14  and  N_15
REMARK    8  A    between atoms: C_16  and  C_18
REMARK    9  A    between atoms: C_18  and  C_19
REMARK   10  A    between atoms: C_18  and  C_20
REMARK                            x       y       z     vdW  Elec       q    Type
REMARK                         _______ _______ _______ _____ _____    ______ ____
ROOT
ATOM      1  C   UNL     1       2.104   7.041  19.867  0.00  0.00    +0.000 A 
ATOM      2  C   UNL     1       1.348   8.177  20.222  0.00  0.00    +0.000 A 
ATOM      3  C   UNL     1       1.255   9.300  19.379  0.00  0.00    +0.000 A 
ATOM      4  C   UNL     1       1.988   9.294  18.198  0.00  0.00    +0.000 A 
ATOM      5  C   UNL     1       2.696   8.148  17.810  0.00  0.00    +0.000 A 
ATOM      6  C   UNL     1       2.748   6.999  18.615  0.00  0.00    +0.000 A 
ENDROOT
BRANCH   3   7
ATOM      7  C   UNL     1       0.436  10.463  19.845  0.00  0.00    +0.000 C 
ATOM      8  O   UNL     1       0.882  11.081  20.815  0.00  0.00    +0.000 OA
ATOM      9  N   UNL     1      -0.780  10.817  19.243  0.00  0.00    +0.000 N 
ATOM     10  C   UNL     1      -1.408  10.180  18.095  0.00  0.00    +0.000 C 
ATOM     11  C   UNL     1      -1.472  11.999  19.744  0.00  0.00    +0.000 C 
ENDBRANCH   3   7
BRANCH   6  12
ATOM     12  N   UNL     1       3.373   5.811  18.155  0.00  0.00    +0.000 N 
ATOM     13  C   UNL     1       4.516   5.205  18.665  0.00  0.00    +0.000 C 
ATOM     14  O   UNL     1       5.155   5.602  19.632  0.00  0.00    +0.000 OA
ATOM     15  H   UNL     1       2.918   5.344  17.384  0.00  0.00    +0.000 HD
BRANCH  13  16
ATOM     16  C   UNL     1       4.902   3.906  17.933  0.00  0.00    +0.000 C 
ATOM     17  C   UNL     1       3.651   3.050  17.711  0.00  0.00    +0.000 C 
BRANCH  16  18
ATOM     18  C   UNL     1       5.606   4.172  16.615  0.00  0.00    +0.000 A 
ATOM     19  C   UNL     1       6.916   4.759  16.518  0.00  0.00    +0.000 A 
ATOM     20  C   UNL     1       7.369   4.852  15.221  0.00  0.00    +0.000 A 
ATOM     21  S   UNL     1       6.229   4.249  14.102  0.00  0.00    +0.000 S 
ATOM     22  C   UNL     1       5.139   3.837  15.355  0.00  0.00    +0.000 A 
ENDBRANCH  16  18
ENDBRANCH  13  16
ENDBRANCH   6  12
BRANCH   1  23
ATOM     23  O   UNL     1       2.081   6.053  20.822  0.00  0.00    +0.000 OA
BRANCH  23  25
ATOM     24  C   UNL     1       1.938   3.669  21.195  0.00  0.00    +0.000 C 
ATOM     25  C   UNL     1       1.287   4.891  20.569  0.00  0.00    +0.000 C 
ENDBRANCH  23  25
ENDBRANCH   1  23
TORSDOF 6
ENDMDL
MODEL 2
REMARK VINA RESULT:      -6.8      1.628      2.431
REMARK  Name = 
REMARK  10 active torsions:
REMARK  status: ('A' for Active; 'I' for Inactive)
REMARK    1  A    between atoms: C_1  and  C_2
REMARK    2  A    between atoms: C_2  and  O_3
REMARK    3  A    between atoms: O_3  and  C_4
REMARK    4  A    between atoms: C_6  and  C_7
REMARK    5  A    between atoms: N_9  and  C_10
REMARK    6  A    between atoms: N_9  and  C_11
REMARK    7  A    between atoms: C_14  and  N_15
REMARK    8  A    between atoms: C_16  and  C_18
REMARK    9  A    between atoms: C_18  and  C_19
REMARK   10  A    between atoms: C_18  and  C_20
REMARK                            x       y       z     vdW  Elec       q    Type
REMARK                         _______ _______ _______ _____ _____    ______ ____
ROOT
ATOM      1  C   UNL     1       2.032   7.375  19.867  0.00  0.00    +0.000 A 
ATOM      2  C   UNL     1       1.341   8.480  20.407  0.00  0.00    +0.000 A 
ATOM      3  C   UNL     1       1.113   9.650  19.660  0.00  0.00    +0.000 A 
ATOM      4  C   UNL     1       1.648   9.723  18.379  0.00  0.00    +0.000 A 
ATOM      5  C   UNL     1       2.286   8.609  17.814  0.00  0.00    +0.000 A 
ATOM      6  C   UNL     1       2.467   7.415  18.529  0.00  0.00    +0.000 A 
ENDROOT
BRANCH   3   7
ATOM      7  C   UNL     1       0.380  10.775  20.320  0.00  0.00    +0.000 C 
ATOM      8  O   UNL     1       0.938  11.284  21.295  0.00  0.00    +0.000 OA
ATOM      9  N   UNL     1      -0.881  11.209  19.886  0.00  0.00    +0.000 N 
ATOM     10  C   UNL     1      -1.640  10.703  18.751  0.00  0.00    +0.000 C 
ATOM     11  C   UNL     1      -1.485  12.347  20.569  0.00  0.00    +0.000 C 
ENDBRANCH   3   7
BRANCH   6  12
ATOM     12  N   UNL     1       3.010   6.263  17.904  0.00  0.00    +0.000 N 
ATOM     13  C   UNL     1       4.268   6.129  17.327  0.00  0.00    +0.000 C 
ATOM     14  O   UNL     1       5.130   6.999  17.298  0.00  0.00    +0.000 OA
ATOM     15  H   UNL     1       2.420   5.444  17.901  0.00  0.00    +0.000 HD
BRANCH  13  16
ATOM     16  C   UNL     1       4.538   4.722  16.759  0.00  0.00    +0.000 C 
ATOM     17  C   UNL     1       5.975   4.647  16.236  0.00  0.00    +0.000 C 
BRANCH  16  18
ATOM     18  C   UNL     1       4.285   3.628  17.780  0.00  0.00    +0.000 A 
ATOM     19  C   UNL     1       3.380   2.531  17.561  0.00  0.00    +0.000 A 
ATOM     20  C   UNL     1       3.358   1.635  18.606  0.00  0.00    +0.000 A 
ATOM     21  S   UNL     1       4.410   2.100  19.868  0.00  0.00    +0.000 S 
ATOM     22  C   UNL     1       4.918   3.488  19.004  0.00  0.00    +0.000 A 
ENDBRANCH  16  18
ENDBRANCH  13  16
ENDBRANCH   6  12
BRANCH   1  23
ATOM     23  O   UNL     1       2.162   6.331  20.752  0.00  0.00    +0.000 OA
BRANCH  23  25
ATOM     24  C   UNL     1       1.944   4.000  21.351  0.00  0.00    +0.000 C 
ATOM     25  C   UNL     1       1.405   5.143  20.507  0.00  0.00    +0.000 C 
ENDBRANCH  23  25
ENDBRANCH   1  23
TORSDOF 6
ENDMDL
MODEL 3
REMARK VINA RESULT:      -6.6      1.000      1.051
REMARK  Name = 
REMARK  10 active torsions:
REMARK  status: ('A' for Active; 'I' for Inactive)
REMARK    1  A    between atoms: C_1  and  C_2
REMARK    2  A    between atoms: C_2  and  O_3
REMARK    3  A    between atoms: O_3  and  C_4
REMARK    4  A    between atoms: C_6  and  C_7
REMARK    5  A    between atoms: N_9  and  C_10
REMARK    6  A    between atoms: N_9  and  C_11
REMARK    7  A    between atoms: C_14  and  N_15
REMARK    8  A    between atoms: C_16  and  C_18
REMARK    9  A    between atoms: C_18  and  C_19
REMARK   10  A    between atoms: C_18  and  C_20
REMARK                            x       y       z     vdW  Elec       q    Type
REMARK                         _______ _______ _______ _____ _____    ______ ____
ROOT
ATOM      1  C   UNL     1       2.059   7.453  19.841  0.00  0.00    +0.000 A 
ATOM      2  C   UNL     1       1.189   8.557  19.950  0.00  0.00    +0.000 A 
ATOM      3  C   UNL     1       1.106   9.539  18.946  0.00  0.00    +0.000 A 
ATOM      4  C   UNL     1       1.961   9.434  17.855  0.00  0.00    +0.000 A 
ATOM      5  C   UNL     1       2.789   8.311  17.711  0.00  0.00    +0.000 A 
ATOM      6  C   UNL     1       2.836   7.294  18.677  0.00  0.00    +0.000 A 
ENDROOT
BRANCH   3   7
ATOM      7  C   UNL     1       0.159  10.680  19.154  0.00  0.00    +0.000 C 
ATOM      8  O   UNL     1       0.482  11.496  20.021  0.00  0.00    +0.000 OA
ATOM      9  N   UNL     1      -1.039  10.804  18.436  0.00  0.00    +0.000 N 
ATOM     10  C   UNL     1      -1.529   9.922  17.388  0.00  0.00    +0.000 C 
ATOM     11  C   UNL     1      -1.864  11.982  18.682  0.00  0.00    +0.000 C 
ENDBRANCH   3   7
BRANCH   6  12
ATOM     12  N   UNL     1       3.592   6.113  18.460  0.00  0.00    +0.000 N 
ATOM     13  C   UNL     1       3.141   4.904  17.943  0.00  0.00    +0.000 C 
ATOM     14  O   UNL     1       1.998   4.681  17.559  0.00  0.00    +0.000 OA
ATOM     15  H   UNL     1       4.574   6.171  18.688  0.00  0.00    +0.000 HD
BRANCH  13  16
ATOM     16  C   UNL     1       4.244   3.836  17.821  0.00  0.00    +0.000 C 
ATOM     17  C   UNL     1       3.613   2.480  17.494  0.00  0.00    +0.000 C 
BRANCH  16  18
ATOM     18  C   UNL     1       5.290   4.201  16.782  0.00  0.00    +0.000 A 
ATOM     19  C   UNL     1       6.645   4.556  17.110  0.00  0.00    +0.000 A 
ATOM     20  C   UNL     1       7.423   4.793  15.998  0.00  0.00    +0.000 A 
ATOM     21  S   UNL     1       6.538   4.606  14.550  0.00  0.00    +0.000 S 
ATOM     22  C   UNL     1       5.121   4.180  15.408  0.00  0.00    +0.000 A 
ENDBRANCH  16  18
ENDBRANCH  13  16
ENDBRANCH   6  12
BRANCH   1  23
ATOM     23  O   UNL     1       2.004   6.609  20.924  0.00  0.00    +0.000 OA
BRANCH  23  25
ATOM     24  C   UNL     1       2.108   4.217  21.260  0.00  0.00    +0.000 C 
ATOM     25  C   UNL     1       1.265   5.392  20.792  0.00  0.00    +0.000 C 
ENDBRANCH  23  25
ENDBRANCH   1  23
TORSDOF 6
ENDMDL
MODEL 4
REMARK VINA RESULT:      -6.5      3.283      7.748
REMARK  Name = 
REMARK  10 active torsions:
REMARK  status: ('A' for Active; 'I' for Inactive)
REMARK    1  A    between atoms: C_1  and  C_2
REMARK    2  A    between atoms: C_2  and  O_3
REMARK    3  A    between atoms: O_3  and  C_4
REMARK    4  A    between atoms: C_6  and  C_7
REMARK    5  A    between atoms: N_9  and  C_10
REMARK    6  A    between atoms: N_9  and  C_11
REMARK    7  A    between atoms: C_14  and  N_15
REMARK    8  A    between atoms: C_16  and  C_18
REMARK    9  A    between atoms: C_18  and  C_19
REMARK   10  A    between atoms: C_18  and  C_20
REMARK                            x       y       z     vdW  Elec       q    Type
REMARK                         _______ _______ _______ _____ _____    ______ ____
ROOT
ATOM      1  C   UNL     1       2.480   6.173  19.748  0.00  0.00    +0.000 A 
ATOM      2  C   UNL     1       3.357   5.461  18.903  0.00  0.00    +0.000 A 
ATOM      3  C   UNL     1       3.907   6.041  17.745  0.00  0.00    +0.000 A 
ATOM      4  C   UNL     1       3.510   7.330  17.408  0.00  0.00    +0.000 A 
ATOM      5  C   UNL     1       2.684   8.065  18.270  0.00  0.00    +0.000 A 
ATOM      6  C   UNL     1       2.178   7.517  19.460  0.00  0.00    +0.000 A 
ENDROOT
BRANCH   3   7
ATOM      7  C   UNL     1       4.820   5.205  16.906  0.00  0.00    +0.000 C 
ATOM      8  O   UNL     1       4.306   4.225  16.361  0.00  0.00    +0.000 OA
ATOM      9  N   UNL     1       6.187   5.490  16.767  0.00  0.00    +0.000 N 
ATOM     10  C   UNL     1       6.912   6.612  17.345  0.00  0.00    +0.000 C 
ATOM     11  C   UNL     1       6.976   4.639  15.884  0.00  0.00    +0.000 C 
ENDBRANCH   3   7
BRANCH   6  12
ATOM     12  N   UNL     1       1.439   8.311  20.374  0.00  0.00    +0.000 N 
ATOM     13  C   UNL     1       0.544   9.333  20.077  0.00  0.00    +0.000 C 
ATOM     14  O   UNL     1       0.228   9.689  18.948  0.00  0.00    +0.000 OA
ATOM     15  H   UNL     1       1.565   8.090  21.352  0.00  0.00    +0.000 HD
BRANCH  13  16
ATOM     16  C   UNL     1      -0.100   9.970  21.322  0.00  0.00    +0.000 C 
ATOM     17  C   UNL     1       0.440   9.291  22.584  0.00  0.00    +0.000 C 
BRANCH  16  18
ATOM     18  C   UNL     1       0.125  11.470  21.387  0.00  0.00    +0.000 A 
ATOM     19  C   UNL     1      -0.689  12.362  22.170  0.00  0.00    +0.000 A 
ATOM     20  C   UNL     1      -0.259  13.669  22.115  0.00  0.00    +0.000 A 
ATOM     21  S   UNL     1       1.114  13.848  21.117  0.00  0.00    +0.000 S 
ATOM     22  C   UNL     1       1.153  12.170  20.779  0.00  0.00    +0.000 A 
ENDBRANCH  16  18
ENDBRANCH  13  16
ENDBRANCH   6  12
BRANCH   1  23
ATOM     23  O   UNL     1       2.043   5.436  20.823  0.00  0.00    +0.000 OA
BRANCH  23  25
ATOM     24  C   UNL     1       1.621   3.131  21.415  0.00  0.00    +0.000 C 
ATOM     25  C   UNL     1       1.190   4.317  20.568  0.00  0.00    +0.000 C 
ENDBRANCH  23  25
ENDBRANCH   1  23
TORSDOF 6
ENDMDL
MODEL 5
REMARK VINA RESULT:      -6.4      1.261      1.491
REMARK  Name = 
REMARK  10 active torsions:
REMARK  status: ('A' for Active; 'I' for Inactive)
REMARK    1  A    between atoms: C_1  and  C_2
REMARK    2  A    between atoms: C_2  and  O_3
REMARK    3  A    between atoms: O_3  and  C_4
REMARK    4  A    between atoms: C_6  and  C_7
REMARK    5  A    between atoms: N_9  and  C_10
REMARK    6  A    between atoms: N_9  and  C_11
REMARK    7  A    between atoms: C_14  and  N_15
REMARK    8  A    between atoms: C_16  and  C_18
REMARK    9  A    between atoms: C_18  and  C_19
REMARK   10  A    between atoms: C_18  and  C_20
REMARK                            x       y       z     vdW  Elec       q    Type
REMARK                         _______ _______ _______ _____ _____    ______ ____
ROOT
ATOM      1  C   UNL     1       2.005   7.497  19.837  0.00  0.00    +0.000 A 
ATOM      2  C   UNL     1       1.093   8.569  19.924  0.00  0.00    +0.000 A 
ATOM      3  C   UNL     1       0.974   9.527  18.901  0.00  0.00    +0.000 A 
ATOM      4  C   UNL     1       1.834   9.433  17.813  0.00  0.00    +0.000 A 
ATOM      5  C   UNL     1       2.704   8.340  17.691  0.00  0.00    +0.000 A 
ATOM      6  C   UNL     1       2.789   7.345  18.678  0.00  0.00    +0.000 A 
ENDROOT
BRANCH   3   7
ATOM      7  C   UNL     1      -0.016  10.634  19.086  0.00  0.00    +0.000 C 
ATOM      8  O   UNL     1      -1.162  10.405  18.692  0.00  0.00    +0.000 OA
ATOM      9  N   UNL     1       0.336  11.873  19.643  0.00  0.00    +0.000 N 
ATOM     10  C   UNL     1       1.641  12.267  20.153  0.00  0.00    +0.000 C 
ATOM     11  C   UNL     1      -0.718  12.864  19.824  0.00  0.00    +0.000 C 
ENDBRANCH   3   7
BRANCH   6  12
ATOM     12  N   UNL     1       3.589   6.190  18.485  0.00  0.00    +0.000 N 
ATOM     13  C   UNL     1       3.194   4.966  17.956  0.00  0.00    +0.000 C 
ATOM     14  O   UNL     1       2.072   4.705  17.539  0.00  0.00    +0.000 OA
ATOM     15  H   UNL     1       4.562   6.280  18.742  0.00  0.00    +0.000 HD
BRANCH  13  16
ATOM     16  C   UNL     1       4.336   3.935  17.869  0.00  0.00    +0.000 C 
ATOM     17  C   UNL     1       3.750   2.536  17.655  0.00  0.00    +0.000 C 
BRANCH  16  18
ATOM     18  C   UNL     1       5.332   4.267  16.772  0.00  0.00    +0.000 A 
ATOM     19  C   UNL     1       6.700   4.635  17.026  0.00  0.00    +0.000 A 
ATOM     20  C   UNL     1       7.425   4.837  15.872  0.00  0.00    +0.000 A 
ATOM     21  S   UNL     1       6.476   4.602  14.473  0.00  0.00    +0.000 S 
ATOM     22  C   UNL     1       5.100   4.201  15.408  0.00  0.00    +0.000 A 
ENDBRANCH  16  18
ENDBRANCH  13  16
ENDBRANCH   6  12
BRANCH   1  23
ATOM     23  O   UNL     1       1.981   6.673  20.937  0.00  0.00    +0.000 OA
BRANCH  23  25
ATOM     24  C   UNL     1       2.182   4.290  21.292  0.00  0.00    +0.000 C 
ATOM     25  C   UNL     1       1.286   5.428  20.829  0.00  0.00    +0.000 C 
ENDBRANCH  23  25
ENDBRANCH   1  23
TORSDOF 6
ENDMDL
MODEL 6
REMARK VINA RESULT:      -6.4      0.869      1.089
REMARK  Name = 
REMARK  10 active torsions:
REMARK  status: ('A' for Active; 'I' for Inactive)
REMARK    1  A    between atoms: C_1  and  C_2
REMARK    2  A    between atoms: C_2  and  O_3
REMARK    3  A    between atoms: O_3  and  C_4
REMARK    4  A    between atoms: C_6  and  C_7
REMARK    5  A    between atoms: N_9  and  C_10
REMARK    6  A    between atoms: N_9  and  C_11
REMARK    7  A    between atoms: C_14  and  N_15
REMARK    8  A    between atoms: C_16  and  C_18
REMARK    9  A    between atoms: C_18  and  C_19
REMARK   10  A    between atoms: C_18  and  C_20
REMARK                            x       y       z     vdW  Elec       q    Type
REMARK                         _______ _______ _______ _____ _____    ______ ____
ROOT
ATOM      1  C   UNL     1       2.142   7.177  19.755  0.00  0.00    +0.000 A 
ATOM      2  C   UNL     1       1.358   8.312  20.052  0.00  0.00    +0.000 A 
ATOM      3  C   UNL     1       1.209   9.371  19.138  0.00  0.00    +0.000 A 
ATOM      4  C   UNL     1       1.914   9.307  17.942  0.00  0.00    +0.000 A 
ATOM      5  C   UNL     1       2.650   8.159  17.614  0.00  0.00    +0.000 A 
ATOM      6  C   UNL     1       2.757   7.070  18.494  0.00  0.00    +0.000 A 
ENDROOT
BRANCH   3   7
ATOM      7  C   UNL     1       0.364  10.537  19.545  0.00  0.00    +0.000 C 
ATOM      8  O   UNL     1      -0.751  10.264  19.995  0.00  0.00    +0.000 OA
ATOM      9  N   UNL     1       0.793  11.865  19.397  0.00  0.00    +0.000 N 
ATOM     10  C   UNL     1       2.080  12.320  18.892  0.00  0.00    +0.000 C 
ATOM     11  C   UNL     1      -0.089  12.924  19.873  0.00  0.00    +0.000 C 
ENDBRANCH   3   7
BRANCH   6  12
ATOM     12  N   UNL     1       3.409   5.873  18.100  0.00  0.00    +0.000 N 
ATOM     13  C   UNL     1       4.553   5.311  18.655  0.00  0.00    +0.000 C 
ATOM     14  O   UNL     1       5.169   5.762  19.613  0.00  0.00    +0.000 OA
ATOM     15  H   UNL     1       2.975   5.363  17.343  0.00  0.00    +0.000 HD
BRANCH  13  16
ATOM     16  C   UNL     1       4.973   3.986  17.991  0.00  0.00    +0.000 C 
ATOM     17  C   UNL     1       3.750   3.077  17.840  0.00  0.00    +0.000 C 
BRANCH  16  18
ATOM     18  C   UNL     1       5.645   4.200  16.646  0.00  0.00    +0.000 A 
ATOM     19  C   UNL     1       6.961   4.763  16.498  0.00  0.00    +0.000 A 
ATOM     20  C   UNL     1       7.381   4.809  15.186  0.00  0.00    +0.000 A 
ATOM     21  S   UNL     1       6.202   4.192  14.117  0.00  0.00    +0.000 S 
ATOM     22  C   UNL     1       5.139   3.836  15.410  0.00  0.00    +0.000 A 
ENDBRANCH  16  18
ENDBRANCH  13  16
ENDBRANCH   6  12
BRANCH   1  23
ATOM     23  O   UNL     1       2.173   6.257  20.775  0.00  0.00    +0.000 OA
BRANCH  23  25
ATOM     24  C   UNL     1       2.155   3.884  21.239  0.00  0.00    +0.000 C 
ATOM     25  C   UNL     1       1.410   5.057  20.622  0.00  0.00    +0.000 C 
ENDBRANCH  23  25
ENDBRANCH   1  23
TORSDOF 6
ENDMDL
MODEL 7
REMARK VINA RESULT:      -6.4      3.778      8.514
REMARK  Name = 
REMARK  10 active torsions:
REMARK  status: ('A' for Active; 'I' for Inactive)
REMARK    1  A    between atoms: C_1  and  C_2
REMARK    2  A    between atoms: C_2  and  O_3
REMARK    3  A    between atoms: O_3  and  C_4
REMARK    4  A    between atoms: C_6  and  C_7
REMARK    5  A    between atoms: N_9  and  C_10
REMARK    6  A    between atoms: N_9  and  C_11
REMARK    7  A    between atoms: C_14  and  N_15
REMARK    8  A    between atoms: C_16  and  C_18
REMARK    9  A    between atoms: C_18  and  C_19
REMARK   10  A    between atoms: C_18  and  C_20
REMARK                            x       y       z     vdW  Elec       q    Type
REMARK                         _______ _______ _______ _____ _____    ______ ____
ROOT
ATOM      1  C   UNL     1       1.547   8.317  20.280  0.00  0.00    +0.000 A 
ATOM      2  C   UNL     1       2.273   7.146  19.977  0.00  0.00    +0.000 A 
ATOM      3  C   UNL     1       2.748   6.882  18.679  0.00  0.00    +0.000 A 
ATOM      4  C   UNL     1       2.427   7.782  17.670  0.00  0.00    +0.000 A 
ATOM      5  C   UNL     1       1.756   8.975  17.972  0.00  0.00    +0.000 A 
ATOM      6  C   UNL     1       1.329   9.278  19.274  0.00  0.00    +0.000 A 
ENDROOT
BRANCH   3   7
ATOM      7  C   UNL     1       3.500   5.609  18.452  0.00  0.00    +0.000 C 
ATOM      8  O   UNL     1       4.714   5.654  18.667  0.00  0.00    +0.000 OA
ATOM      9  N   UNL     1       2.879   4.439  17.991  0.00  0.00    +0.000 N 
ATOM     10  C   UNL     1       1.463   4.251  17.709  0.00  0.00    +0.000 C 
ATOM     11  C   UNL     1       3.696   3.240  17.851  0.00  0.00    +0.000 C 
ENDBRANCH   3   7
BRANCH   6  12
ATOM     12  N   UNL     1       0.755  10.538  19.582  0.00  0.00    +0.000 N 
ATOM     13  C   UNL     1      -0.557  10.944  19.367  0.00  0.00    +0.000 C 
ATOM     14  O   UNL     1      -1.446  10.245  18.895  0.00  0.00    +0.000 OA
ATOM     15  H   UNL     1       1.368  11.204  20.028  0.00  0.00    +0.000 HD
BRANCH  13  16
ATOM     16  C   UNL     1      -0.844  12.380  19.847  0.00  0.00    +0.000 C 
ATOM     17  C   UNL     1      -0.801  13.338  18.653  0.00  0.00    +0.000 C 
BRANCH  16  18
ATOM     18  C   UNL     1      -2.173  12.493  20.572  0.00  0.00    +0.000 A 
ATOM     19  C   UNL     1      -2.300  12.470  22.005  0.00  0.00    +0.000 A 
ATOM     20  C   UNL     1      -3.598  12.643  22.433  0.00  0.00    +0.000 A 
ATOM     21  S   UNL     1      -4.681  12.822  21.125  0.00  0.00    +0.000 S 
ATOM     22  C   UNL     1      -3.411  12.696  19.986  0.00  0.00    +0.000 A 
ENDBRANCH  16  18
ENDBRANCH  13  16
ENDBRANCH   6  12
BRANCH   1  23
ATOM     23  O   UNL     1       1.161   8.391  21.597  0.00  0.00    +0.000 OA
BRANCH  23  25
ATOM     24  C   UNL     1      -0.507   9.474  22.971  0.00  0.00    +0.000 C 
ATOM     25  C   UNL     1      -0.238   8.444  21.886  0.00  0.00    +0.000 C 
ENDBRANCH  23  25
ENDBRANCH   1  23
TORSDOF 6
ENDMDL
MODEL 8
REMARK VINA RESULT:      -6.4      1.923      2.683
REMARK  Name = 
REMARK  10 active torsions:
REMARK  status: ('A' for Active; 'I' for Inactive)
REMARK    1  A    between atoms: C_1  and  C_2
REMARK    2  A    between atoms: C_2  and  O_3
REMARK    3  A    between atoms: O_3  and  C_4
REMARK    4  A    between atoms: C_6  and  C_7
REMARK    5  A    between atoms: N_9  and  C_10
REMARK    6  A    between atoms: N_9  and  C_11
REMARK    7  A    between atoms: C_14  and  N_15
REMARK    8  A    between atoms: C_16  and  C_18
REMARK    9  A    between atoms: C_18  and  C_19
REMARK   10  A    between atoms: C_18  and  C_20
REMARK                            x       y       z     vdW  Elec       q    Type
REMARK                         _______ _______ _______ _____ _____    ______ ____
ROOT
ATOM      1  C   UNL     1       1.232   8.557  20.353  0.00  0.00    +0.000 A 
ATOM      2  C   UNL     1       0.274   9.539  20.025  0.00  0.00    +0.000 A 
ATOM      3  C   UNL     1       0.125  10.023  18.713  0.00  0.00    +0.000 A 
ATOM      4  C   UNL     1       1.000   9.553  17.740  0.00  0.00    +0.000 A 
ATOM      5  C   UNL     1       1.916   8.536  18.043  0.00  0.00    +0.000 A 
ATOM      6  C   UNL     1       2.033   8.003  19.336  0.00  0.00    +0.000 A 
ENDROOT
BRANCH   3   7
ATOM      7  C   UNL     1      -0.912  11.072  18.463  0.00  0.00    +0.000 C 
ATOM      8  O   UNL     1      -0.569  12.234  18.697  0.00  0.00    +0.000 OA
ATOM      9  N   UNL     1      -2.206  10.762  18.022  0.00  0.00    +0.000 N 
ATOM     10  C   UNL     1      -2.731   9.442  17.704  0.00  0.00    +0.000 C 
ATOM     11  C   UNL     1      -3.123  11.866  17.762  0.00  0.00    +0.000 C 
ENDBRANCH   3   7
BRANCH   6  12
ATOM     12  N   UNL     1       2.883   6.898  19.598  0.00  0.00    +0.000 N 
ATOM     13  C   UNL     1       2.785   5.613  19.075  0.00  0.00    +0.000 C 
ATOM     14  O   UNL     1       1.944   5.241  18.266  0.00  0.00    +0.000 OA
ATOM     15  H   UNL     1       3.660   7.077  20.218  0.00  0.00    +0.000 HD
BRANCH  13  16
ATOM     16  C   UNL     1       3.898   4.665  19.560  0.00  0.00    +0.000 C 
ATOM     17  C   UNL     1       3.399   3.218  19.507  0.00  0.00    +0.000 C 
BRANCH  16  18
ATOM     18  C   UNL     1       5.177   4.815  18.755  0.00  0.00    +0.000 A 
ATOM     19  C   UNL     1       6.376   5.419  19.275  0.00  0.00    +0.000 A 
ATOM     20  C   UNL     1       7.422   5.394  18.379  0.00  0.00    +0.000 A 
ATOM     21  S   UNL     1       6.980   4.660  16.902  0.00  0.00    +0.000 S 
ATOM     22  C   UNL     1       5.396   4.349  17.470  0.00  0.00    +0.000 A 
ENDBRANCH  16  18
ENDBRANCH  13  16
ENDBRANCH   6  12
BRANCH   1  23
ATOM     23  O   UNL     1       1.232   8.220  21.686  0.00  0.00    +0.000 OA
BRANCH  23  25
ATOM     24  C   UNL     1       0.014   9.452  23.371  0.00  0.00    +0.000 C 
ATOM     25  C   UNL     1       1.337   9.275  22.645  0.00  0.00    +0.000 C 
ENDBRANCH  23  25
ENDBRANCH   1  23
TORSDOF 6
ENDMDL
MODEL 9
REMARK VINA RESULT:      -6.3      2.137      3.631
REMARK  Name = 
REMARK  10 active torsions:
REMARK  status: ('A' for Active; 'I' for Inactive)
REMARK    1  A    between atoms: C_1  and  C_2
REMARK    2  A    between atoms: C_2  and  O_3
REMARK    3  A    between atoms: O_3  and  C_4
REMARK    4  A    between atoms: C_6  and  C_7
REMARK    5  A    between atoms: N_9  and  C_10
REMARK    6  A    between atoms: N_9  and  C_11
REMARK    7  A    between atoms: C_14  and  N_15
REMARK    8  A    between atoms: C_16  and  C_18
REMARK    9  A    between atoms: C_18  and  C_19
REMARK   10  A    between atoms: C_18  and  C_20
REMARK                            x       y       z     vdW  Elec       q    Type
REMARK                         _______ _______ _______ _____ _____    ______ ____
ROOT
ATOM      1  C   UNL     1       2.035   7.839  18.816  0.00  0.00    +0.000 A 
ATOM      2  C   UNL     1       1.718   9.186  18.543  0.00  0.00    +0.000 A 
ATOM      3  C   UNL     1       1.197  10.041  19.531  0.00  0.00    +0.000 A 
ATOM      4  C   UNL     1       0.933   9.506  20.786  0.00  0.00    +0.000 A 
ATOM      5  C   UNL     1       1.297   8.185  21.084  0.00  0.00    +0.000 A 
ATOM      6  C   UNL     1       1.874   7.339  20.123  0.00  0.00    +0.000 A 
ENDROOT
BRANCH   3   7
ATOM      7  C   UNL     1       0.882  11.452  19.144  0.00  0.00    +0.000 C 
ATOM      8  O   UNL     1       1.793  12.269  19.301  0.00  0.00    +0.000 OA
ATOM      9  N   UNL     1      -0.377  11.838  18.663  0.00  0.00    +0.000 N 
ATOM     10  C   UNL     1      -1.527  10.977  18.424  0.00  0.00    +0.000 C 
ATOM     11  C   UNL     1      -0.561  13.230  18.268  0.00  0.00    +0.000 C 
ENDBRANCH   3   7
BRANCH   6  12
ATOM     12  N   UNL     1       2.340   6.046  20.472  0.00  0.00    +0.000 N 
ATOM     13  C   UNL     1       1.582   4.893  20.648  0.00  0.00    +0.000 C 
ATOM     14  O   UNL     1       0.369   4.814  20.494  0.00  0.00    +0.000 OA
ATOM     15  H   UNL     1       3.339   5.953  20.582  0.00  0.00    +0.000 HD
BRANCH  13  16
ATOM     16  C   UNL     1       2.423   3.652  21.003  0.00  0.00    +0.000 C 
ATOM     17  C   UNL     1       1.642   2.764  21.976  0.00  0.00    +0.000 C 
BRANCH  16  18
ATOM     18  C   UNL     1       2.834   2.861  19.774  0.00  0.00    +0.000 A 
ATOM     19  C   UNL     1       2.048   2.798  18.571  0.00  0.00    +0.000 A 
ATOM     20  C   UNL     1       2.650   2.064  17.573  0.00  0.00    +0.000 A 
ATOM     21  S   UNL     1       4.157   1.432  18.067  0.00  0.00    +0.000 S 
ATOM     22  C   UNL     1       4.019   2.163  19.608  0.00  0.00    +0.000 A 
ENDBRANCH  16  18
ENDBRANCH  13  16
ENDBRANCH   6  12
BRANCH   1  23
ATOM     23  O   UNL     1       2.524   7.163  17.724  0.00  0.00    +0.000 OA
BRANCH  23  25
ATOM     24  C   UNL     1       4.333   5.589  17.421  0.00  0.00    +0.000 C 
ATOM     25  C   UNL     1       3.942   7.049  17.583  0.00  0.00    +0.000 C 
ENDBRANCH  23  25
ENDBRANCH   1  23
TORSDOF 6
ENDMDL
