MODEL 1
REMARK VINA RESULT:      -6.6      0.000      0.000
REMARK  Name = 
REMARK  6 active torsions:
REMARK  status: ('A' for Active; 'I' for Inactive)
REMARK    1  A    between atoms: C_1  and  C_2
REMARK    2  A    between atoms: N_4  and  C_5
REMARK    3  A    between atoms: C_5  and  C_6
REMARK    4  A    between atoms: C_9  and  O_10
REMARK    5  A    between atoms: O_10  and  C_11
REMARK    6  A    between atoms: N_14  and  C_15
REMARK                            x       y       z     vdW  Elec       q    Type
REMARK                         _______ _______ _______ _____ _____    ______ ____
ROOT
ATOM      1  C   UNL     1       6.510   4.757  14.535  0.00  0.00    +0.000 A 
ATOM      2  C   UNL     1       5.187   4.910  14.977  0.00  0.00    +0.000 A 
ATOM      3  C   UNL     1       4.887   4.973  16.346  0.00  0.00    +0.000 A 
ATOM      4  C   UNL     1       5.896   4.885  17.306  0.00  0.00    +0.000 A 
ATOM      5  C   UNL     1       7.214   4.762  16.871  0.00  0.00    +0.000 A 
ATOM      6  C   UNL     1       7.518   4.678  15.503  0.00  0.00    +0.000 A 
ENDROOT
BRANCH   1   7
ATOM      7  C   UNL     1       6.839   4.707  13.062  0.00  0.00    +0.000 C 
BRANCH   7  11
ATOM      8  C   UNL     1       5.916   1.414  11.453  0.00  0.00    +0.000 C 
ATOM      9  C   UNL     1       5.728   2.850  11.887  0.00  0.00    +0.000 C 
ATOM     10  O   UNL     1       4.705   3.478  11.687  0.00  0.00    +0.000 OA
ATOM     11  N   UNL     1       6.824   3.355  12.557  0.00  0.00    +0.000 N 
ATOM     12  H   UNL     1       7.705   2.862  12.478  0.00  0.00    +0.000 HD
ENDBRANCH   7  11
ENDBRANCH   1   7
BRANCH   4  13
ATOM     13  O   UNL     1       5.500   4.928  18.621  0.00  0.00    +0.000 OA
BRANCH  13  14
ATOM     14  C   UNL     1       4.220   4.345  18.947  0.00  0.00    +0.000 C 
ATOM     15  C   UNL     1       3.414   5.274  19.859  0.00  0.00    +0.000 C 
ATOM     16  C   UNL     1       2.177   4.595  20.426  0.00  0.00    +0.000 C 
ATOM     17  N   UNL     1       2.519   3.334  21.091  0.00  0.00    +0.000 NA
ATOM     18  C   UNL     1       1.324   2.752  21.703  0.00  0.00    +0.000 C 
ATOM     19  C   UNL     1       3.120   2.390  20.141  0.00  0.00    +0.000 C 
ATOM     20  C   UNL     1       4.419   2.946  19.553  0.00  0.00    +0.000 C 
ENDBRANCH  13  14
ENDBRANCH   4  13
TORSDOF 4
ENDMDL
MODEL 2
REMARK VINA RESULT:      -6.6      1.159      1.679
REMARK  Name = 
REMARK  6 active torsions:
REMARK  status: ('A' for Active; 'I' for Inactive)
REMARK    1  A    between atoms: C_1  and  C_2
REMARK    2  A    between atoms: N_4  and  C_5
REMARK    3  A    between atoms: C_5  and  C_6
REMARK    4  A    between atoms: C_9  and  O_10
REMARK    5  A    between atoms: O_10  and  C_11
REMARK    6  A    between atoms: N_14  and  C_15
REMARK                            x       y       z     vdW  Elec       q    Type
REMARK                         _______ _______ _______ _____ _____    ______ ____
ROOT
ATOM      1  C   UNL     1       6.241   4.414  14.822  0.00  0.00    +0.000 A 
ATOM      2  C   UNL     1       5.183   5.300  15.076  0.00  0.00    +0.000 A 
ATOM      3  C   UNL     1       4.987   5.839  16.358  0.00  0.00    +0.000 A 
ATOM      4  C   UNL     1       5.837   5.506  17.413  0.00  0.00    +0.000 A 
ATOM      5  C   UNL     1       6.905   4.649  17.157  0.00  0.00    +0.000 A 
ATOM      6  C   UNL     1       7.095   4.092  15.883  0.00  0.00    +0.000 A 
ENDROOT
BRANCH   1   7
ATOM      7  C   UNL     1       6.466   3.846  13.440  0.00  0.00    +0.000 C 
BRANCH   7  11
ATOM      8  C   UNL     1       3.681   3.153  10.982  0.00  0.00    +0.000 C 
ATOM      9  C   UNL     1       4.979   2.908  11.717  0.00  0.00    +0.000 C 
ATOM     10  O   UNL     1       5.703   1.955  11.492  0.00  0.00    +0.000 OA
ATOM     11  N   UNL     1       5.266   3.892  12.642  0.00  0.00    +0.000 N 
ATOM     12  H   UNL     1       4.519   4.511  12.933  0.00  0.00    +0.000 HD
ENDBRANCH   7  11
ENDBRANCH   1   7
BRANCH   4  13
ATOM     13  O   UNL     1       5.547   6.062  18.636  0.00  0.00    +0.000 OA
BRANCH  13  14
ATOM     14  C   UNL     1       4.616   5.352  19.481  0.00  0.00    +0.000 C 
ATOM     15  C   UNL     1       4.622   3.854  19.162  0.00  0.00    +0.000 C 
ATOM     16  C   UNL     1       3.485   3.113  19.848  0.00  0.00    +0.000 C 
ATOM     17  N   UNL     1       2.190   3.732  19.549  0.00  0.00    +0.000 NA
ATOM     18  C   UNL     1       1.110   2.945  20.147  0.00  0.00    +0.000 C 
ATOM     19  C   UNL     1       2.147   5.115  20.039  0.00  0.00    +0.000 C 
ATOM     20  C   UNL     1       3.216   5.977  19.362  0.00  0.00    +0.000 C 
ENDBRANCH  13  14
ENDBRANCH   4  13
TORSDOF 4
ENDMDL
MODEL 3
REMARK VINA RESULT:      -6.5      4.315      6.047
REMARK  Name = 
REMARK  6 active torsions:
REMARK  status: ('A' for Active; 'I' for Inactive)
REMARK    1  A    between atoms: C_1  and  C_2
REMARK    2  A    between atoms: N_4  and  C_5
REMARK    3  A    between atoms: C_5  and  C_6
REMARK    4  A    between atoms: C_9  and  O_10
REMARK    5  A    between atoms: O_10  and  C_11
REMARK    6  A    between atoms: N_14  and  C_15
REMARK                            x       y       z     vdW  Elec       q    Type
REMARK                         _______ _______ _______ _____ _____    ______ ____
ROOT
ATOM      1  C   UNL     1       7.783   7.875  17.969  0.00  0.00    +0.000 A 
ATOM      2  C   UNL     1       6.662   7.474  17.226  0.00  0.00    +0.000 A 
ATOM      3  C   UNL     1       6.073   6.217  17.431  0.00  0.00    +0.000 A 
ATOM      4  C   UNL     1       6.587   5.331  18.379  0.00  0.00    +0.000 A 
ATOM      5  C   UNL     1       7.682   5.736  19.139  0.00  0.00    +0.000 A 
ATOM      6  C   UNL     1       8.288   6.985  18.924  0.00  0.00    +0.000 A 
ENDROOT
BRANCH   1   7
ATOM      7  C   UNL     1       8.409   9.234  17.764  0.00  0.00    +0.000 C 
BRANCH   7  11
ATOM      8  C   UNL     1      10.025  11.371  20.429  0.00  0.00    +0.000 C 
ATOM      9  C   UNL     1       9.454  11.042  19.069  0.00  0.00    +0.000 C 
ATOM     10  O   UNL     1       9.436  11.834  18.144  0.00  0.00    +0.000 OA
ATOM     11  N   UNL     1       8.986   9.746  18.983  0.00  0.00    +0.000 N 
ATOM     12  H   UNL     1       8.822   9.237  19.843  0.00  0.00    +0.000 HD
ENDBRANCH   7  11
ENDBRANCH   1   7
BRANCH   4  13
ATOM     13  O   UNL     1       5.960   4.113  18.488  0.00  0.00    +0.000 OA
BRANCH  13  14
ATOM     14  C   UNL     1       4.516   4.106  18.438  0.00  0.00    +0.000 C 
ATOM     15  C   UNL     1       3.924   3.827  19.822  0.00  0.00    +0.000 C 
ATOM     16  C   UNL     1       2.428   3.563  19.767  0.00  0.00    +0.000 C 
ATOM     17  N   UNL     1       2.111   2.499  18.810  0.00  0.00    +0.000 NA
ATOM     18  C   UNL     1       0.676   2.205  18.846  0.00  0.00    +0.000 C 
ATOM     19  C   UNL     1       2.521   2.878  17.452  0.00  0.00    +0.000 C 
ATOM     20  C   UNL     1       4.033   3.107  17.374  0.00  0.00    +0.000 C 
ENDBRANCH  13  14
ENDBRANCH   4  13
TORSDOF 4
ENDMDL
MODEL 4
REMARK VINA RESULT:      -6.5      3.290      4.424
REMARK  Name = 
REMARK  6 active torsions:
REMARK  status: ('A' for Active; 'I' for Inactive)
REMARK    1  A    between atoms: C_1  and  C_2
REMARK    2  A    between atoms: N_4  and  C_5
REMARK    3  A    between atoms: C_5  and  C_6
REMARK    4  A    between atoms: C_9  and  O_10
REMARK    5  A    between atoms: O_10  and  C_11
REMARK    6  A    between atoms: N_14  and  C_15
REMARK                            x       y       z     vdW  Elec       q    Type
REMARK                         _______ _______ _______ _____ _____    ______ ____
ROOT
ATOM      1  C   UNL     1       5.623   4.599  17.050  0.00  0.00    +0.000 A 
ATOM      2  C   UNL     1       5.831   5.329  18.231  0.00  0.00    +0.000 A 
ATOM      3  C   UNL     1       4.748   5.743  19.022  0.00  0.00    +0.000 A 
ATOM      4  C   UNL     1       3.436   5.441  18.656  0.00  0.00    +0.000 A 
ATOM      5  C   UNL     1       3.227   4.691  17.500  0.00  0.00    +0.000 A 
ATOM      6  C   UNL     1       4.305   4.292  16.694  0.00  0.00    +0.000 A 
ENDROOT
BRANCH   1   7
ATOM      7  C   UNL     1       6.786   4.136  16.205  0.00  0.00    +0.000 C 
BRANCH   7  11
ATOM      8  C   UNL     1       6.097   3.502  12.544  0.00  0.00    +0.000 C 
ATOM      9  C   UNL     1       6.662   4.221  13.747  0.00  0.00    +0.000 C 
ATOM     10  O   UNL     1       7.303   5.253  13.667  0.00  0.00    +0.000 OA
ATOM     11  N   UNL     1       6.347   3.600  14.940  0.00  0.00    +0.000 N 
ATOM     12  H   UNL     1       6.022   2.642  14.911  0.00  0.00    +0.000 HD
ENDBRANCH   7  11
ENDBRANCH   1   7
BRANCH   4  13
ATOM     13  O   UNL     1       2.443   5.913  19.480  0.00  0.00    +0.000 OA
BRANCH  13  14
ATOM     14  C   UNL     1       2.348   7.344  19.649  0.00  0.00    +0.000 C 
ATOM     15  C   UNL     1       1.335   7.698  20.741  0.00  0.00    +0.000 C 
ATOM     16  C   UNL     1       1.021   9.186  20.776  0.00  0.00    +0.000 C 
ATOM     17  N   UNL     1       0.600   9.672  19.459  0.00  0.00    +0.000 NA
ATOM     18  C   UNL     1       0.219  11.083  19.546  0.00  0.00    +0.000 C 
ATOM     19  C   UNL     1       1.670   9.491  18.469  0.00  0.00    +0.000 C 
ATOM     20  C   UNL     1       2.025   8.011  18.302  0.00  0.00    +0.000 C 
ENDBRANCH  13  14
ENDBRANCH   4  13
TORSDOF 4
ENDMDL
MODEL 5
REMARK VINA RESULT:      -6.5      1.351      1.832
REMARK  Name = 
REMARK  6 active torsions:
REMARK  status: ('A' for Active; 'I' for Inactive)
REMARK    1  A    between atoms: C_1  and  C_2
REMARK    2  A    between atoms: N_4  and  C_5
REMARK    3  A    between atoms: C_5  and  C_6
REMARK    4  A    between atoms: C_9  and  O_10
REMARK    5  A    between atoms: O_10  and  C_11
REMARK    6  A    between atoms: N_14  and  C_15
REMARK                            x       y       z     vdW  Elec       q    Type
REMARK                         _______ _______ _______ _____ _____    ______ ____
ROOT
ATOM      1  C   UNL     1       6.501   4.946  15.646  0.00  0.00    +0.000 A 
ATOM      2  C   UNL     1       5.260   5.570  15.844  0.00  0.00    +0.000 A 
ATOM      3  C   UNL     1       4.764   5.794  17.137  0.00  0.00    +0.000 A 
ATOM      4  C   UNL     1       5.491   5.404  18.262  0.00  0.00    +0.000 A 
ATOM      5  C   UNL     1       6.738   4.811  18.070  0.00  0.00    +0.000 A 
ATOM      6  C   UNL     1       7.230   4.565  16.779  0.00  0.00    +0.000 A 
ENDROOT
BRANCH   1   7
ATOM      7  C   UNL     1       7.046   4.719  14.256  0.00  0.00    +0.000 C 
BRANCH   7  11
ATOM      8  C   UNL     1       5.607   2.380  11.661  0.00  0.00    +0.000 C 
ATOM      9  C   UNL     1       6.484   3.486  12.200  0.00  0.00    +0.000 C 
ATOM     10  O   UNL     1       7.244   4.134  11.504  0.00  0.00    +0.000 OA
ATOM     11  N   UNL     1       6.307   3.699  13.553  0.00  0.00    +0.000 N 
ATOM     12  H   UNL     1       5.845   2.980  14.096  0.00  0.00    +0.000 HD
ENDBRANCH   7  11
ENDBRANCH   1   7
BRANCH   4  13
ATOM     13  O   UNL     1       4.911   5.641  19.484  0.00  0.00    +0.000 OA
BRANCH  13  14
ATOM     14  C   UNL     1       3.822   4.778  19.878  0.00  0.00    +0.000 C 
ATOM     15  C   UNL     1       4.069   3.341  19.412  0.00  0.00    +0.000 C 
ATOM     16  C   UNL     1       2.841   2.459  19.584  0.00  0.00    +0.000 C 
ATOM     17  N   UNL     1       1.667   3.052  18.937  0.00  0.00    +0.000 NA
ATOM     18  C   UNL     1       0.526   2.139  19.040  0.00  0.00    +0.000 C 
ATOM     19  C   UNL     1       1.340   4.351  19.538  0.00  0.00    +0.000 C 
ATOM     20  C   UNL     1       2.489   5.347  19.364  0.00  0.00    +0.000 C 
ENDBRANCH  13  14
ENDBRANCH   4  13
TORSDOF 4
ENDMDL
MODEL 6
REMARK VINA RESULT:      -6.5      3.222      4.042
REMARK  Name = 
REMARK  6 active torsions:
REMARK  status: ('A' for Active; 'I' for Inactive)
REMARK    1  A    between atoms: C_1  and  C_2
REMARK    2  A    between atoms: N_4  and  C_5
REMARK    3  A    between atoms: C_5  and  C_6
REMARK    4  A    between atoms: C_9  and  O_10
REMARK    5  A    between atoms: O_10  and  C_11
REMARK    6  A    between atoms: N_14  and  C_15
REMARK                            x       y       z     vdW  Elec       q    Type
REMARK                         _______ _______ _______ _____ _____    ______ ____
ROOT
ATOM      1  C   UNL     1       5.707   4.890  15.973  0.00  0.00    +0.000 A 
ATOM      2  C   UNL     1       4.646   4.053  16.350  0.00  0.00    +0.000 A 
ATOM      3  C   UNL     1       3.690   4.479  17.286  0.00  0.00    +0.000 A 
ATOM      4  C   UNL     1       3.768   5.745  17.866  0.00  0.00    +0.000 A 
ATOM      5  C   UNL     1       4.804   6.590  17.472  0.00  0.00    +0.000 A 
ATOM      6  C   UNL     1       5.774   6.163  16.552  0.00  0.00    +0.000 A 
ENDROOT
BRANCH   1   7
ATOM      7  C   UNL     1       6.728   4.443  14.953  0.00  0.00    +0.000 C 
BRANCH   7  11
ATOM      8  C   UNL     1       5.772   2.613  11.789  0.00  0.00    +0.000 C 
ATOM      9  C   UNL     1       6.497   3.628  12.641  0.00  0.00    +0.000 C 
ATOM     10  O   UNL     1       7.281   4.441  12.188  0.00  0.00    +0.000 OA
ATOM     11  N   UNL     1       6.151   3.552  13.976  0.00  0.00    +0.000 N 
ATOM     12  H   UNL     1       5.684   2.716  14.305  0.00  0.00    +0.000 HD
ENDBRANCH   7  11
ENDBRANCH   1   7
BRANCH   4  13
ATOM     13  O   UNL     1       2.803   6.060  18.791  0.00  0.00    +0.000 OA
BRANCH  13  14
ATOM     14  C   UNL     1       2.581   7.461  19.064  0.00  0.00    +0.000 C 
ATOM     15  C   UNL     1       1.732   7.642  20.326  0.00  0.00    +0.000 C 
ATOM     16  C   UNL     1       1.267   9.079  20.507  0.00  0.00    +0.000 C 
ATOM     17  N   UNL     1       0.581   9.571  19.309  0.00  0.00    +0.000 NA
ATOM     18  C   UNL     1       0.066  10.921  19.547  0.00  0.00    +0.000 C 
ATOM     19  C   UNL     1       1.483   9.563  18.151  0.00  0.00    +0.000 C 
ATOM     20  C   UNL     1       1.965   8.146  17.833  0.00  0.00    +0.000 C 
ENDBRANCH  13  14
ENDBRANCH   4  13
TORSDOF 4
ENDMDL
MODEL 7
REMARK VINA RESULT:      -6.5      4.096      5.928
REMARK  Name = 
REMARK  6 active torsions:
REMARK  status: ('A' for Active; 'I' for Inactive)
REMARK    1  A    between atoms: C_1  and  C_2
REMARK    2  A    between atoms: N_4  and  C_5
REMARK    3  A    between atoms: C_5  and  C_6
REMARK    4  A    between atoms: C_9  and  O_10
REMARK    5  A    between atoms: O_10  and  C_11
REMARK    6  A    between atoms: N_14  and  C_15
REMARK                            x       y       z     vdW  Elec       q    Type
REMARK                         _______ _______ _______ _____ _____    ______ ____
ROOT
ATOM      1  C   UNL     1       7.677   7.829  17.890  0.00  0.00    +0.000 A 
ATOM      2  C   UNL     1       8.210   6.920  18.817  0.00  0.00    +0.000 A 
ATOM      3  C   UNL     1       7.638   5.651  18.994  0.00  0.00    +0.000 A 
ATOM      4  C   UNL     1       6.522   5.258  18.253  0.00  0.00    +0.000 A 
ATOM      5  C   UNL     1       6.008   6.146  17.311  0.00  0.00    +0.000 A 
ATOM      6  C   UNL     1       6.564   7.424  17.144  0.00  0.00    +0.000 A 
ENDROOT
BRANCH   1   7
ATOM      7  C   UNL     1       8.301   9.188  17.684  0.00  0.00    +0.000 C 
BRANCH   7  11
ATOM      8  C   UNL     1       9.971  11.308  20.329  0.00  0.00    +0.000 C 
ATOM      9  C   UNL     1       9.416  10.972  18.964  0.00  0.00    +0.000 C 
ATOM     10  O   UNL     1       9.469  11.734  18.017  0.00  0.00    +0.000 OA
ATOM     11  N   UNL     1       8.875   9.703  18.903  0.00  0.00    +0.000 N 
ATOM     12  H   UNL     1       8.659   9.231  19.772  0.00  0.00    +0.000 HD
ENDBRANCH   7  11
ENDBRANCH   1   7
BRANCH   4  13
ATOM     13  O   UNL     1       6.017   4.008  18.517  0.00  0.00    +0.000 OA
BRANCH  13  14
ATOM     14  C   UNL     1       4.589   3.899  18.707  0.00  0.00    +0.000 C 
ATOM     15  C   UNL     1       4.107   4.867  19.791  0.00  0.00    +0.000 C 
ATOM     16  C   UNL     1       2.665   4.608  20.197  0.00  0.00    +0.000 C 
ATOM     17  N   UNL     1       2.465   3.208  20.584  0.00  0.00    +0.000 NA
ATOM     18  C   UNL     1       1.092   3.012  21.055  0.00  0.00    +0.000 C 
ATOM     19  C   UNL     1       2.754   2.310  19.459  0.00  0.00    +0.000 C 
ATOM     20  C   UNL     1       4.210   2.439  19.007  0.00  0.00    +0.000 C 
ENDBRANCH  13  14
ENDBRANCH   4  13
TORSDOF 4
ENDMDL
MODEL 8
REMARK VINA RESULT:      -6.5      3.478      5.387
REMARK  Name = 
REMARK  6 active torsions:
REMARK  status: ('A' for Active; 'I' for Inactive)
REMARK    1  A    between atoms: C_1  and  C_2
REMARK    2  A    between atoms: N_4  and  C_5
REMARK    3  A    between atoms: C_5  and  C_6
REMARK    4  A    between atoms: C_9  and  O_10
REMARK    5  A    between atoms: O_10  and  C_11
REMARK    6  A    between atoms: N_14  and  C_15
REMARK                            x       y       z     vdW  Elec       q    Type
REMARK                         _______ _______ _______ _____ _____    ______ ____
ROOT
ATOM      1  C   UNL     1       7.231   6.656  17.931  0.00  0.00    +0.000 A 
ATOM      2  C   UNL     1       7.258   5.283  18.218  0.00  0.00    +0.000 A 
ATOM      3  C   UNL     1       6.288   4.417  17.690  0.00  0.00    +0.000 A 
ATOM      4  C   UNL     1       5.270   4.898  16.866  0.00  0.00    +0.000 A 
ATOM      5  C   UNL     1       5.257   6.256  16.555  0.00  0.00    +0.000 A 
ATOM      6  C   UNL     1       6.212   7.130  17.097  0.00  0.00    +0.000 A 
ENDROOT
BRANCH   1   7
ATOM      7  C   UNL     1       8.283   7.588  18.483  0.00  0.00    +0.000 C 
BRANCH   7  11
ATOM      8  C   UNL     1       8.513  11.297  17.796  0.00  0.00    +0.000 C 
ATOM      9  C   UNL     1       8.774  10.001  18.528  0.00  0.00    +0.000 C 
ATOM     10  O   UNL     1       9.432   9.933  19.550  0.00  0.00    +0.000 OA
ATOM     11  N   UNL     1       8.163   8.916  17.932  0.00  0.00    +0.000 N 
ATOM     12  H   UNL     1       7.838   9.012  16.977  0.00  0.00    +0.000 HD
ENDBRANCH   7  11
ENDBRANCH   1   7
BRANCH   4  13
ATOM     13  O   UNL     1       4.352   3.978  16.421  0.00  0.00    +0.000 OA
BRANCH  13  14
ATOM     14  C   UNL     1       3.210   3.720  17.267  0.00  0.00    +0.000 C 
ATOM     15  C   UNL     1       3.036   4.834  18.303  0.00  0.00    +0.000 C 
ATOM     16  C   UNL     1       2.007   4.478  19.365  0.00  0.00    +0.000 C 
ATOM     17  N   UNL     1       2.314   3.189  19.992  0.00  0.00    +0.000 NA
ATOM     18  C   UNL     1       1.361   2.919  21.070  0.00  0.00    +0.000 C 
ATOM     19  C   UNL     1       2.286   2.107  19.000  0.00  0.00    +0.000 C 
ATOM     20  C   UNL     1       3.336   2.328  17.908  0.00  0.00    +0.000 C 
ENDBRANCH  13  14
ENDBRANCH   4  13
TORSDOF 4
ENDMDL
MODEL 9
REMARK VINA RESULT:      -6.4      1.312      2.091
REMARK  Name = 
REMARK  6 active torsions:
REMARK  status: ('A' for Active; 'I' for Inactive)
REMARK    1  A    between atoms: C_1  and  C_2
REMARK    2  A    between atoms: N_4  and  C_5
REMARK    3  A    between atoms: C_5  and  C_6
REMARK    4  A    between atoms: C_9  and  O_10
REMARK    5  A    between atoms: O_10  and  C_11
REMARK    6  A    between atoms: N_14  and  C_15
REMARK                            x       y       z     vdW  Elec       q    Type
REMARK                         _______ _______ _______ _____ _____    ______ ____
ROOT
ATOM      1  C   UNL     1       6.554   4.939  15.660  0.00  0.00    +0.000 A 
ATOM      2  C   UNL     1       7.200   4.541  16.840  0.00  0.00    +0.000 A 
ATOM      3  C   UNL     1       6.622   4.783  18.096  0.00  0.00    +0.000 A 
ATOM      4  C   UNL     1       5.389   5.426  18.205  0.00  0.00    +0.000 A 
ATOM      5  C   UNL     1       4.730   5.797  17.035  0.00  0.00    +0.000 A 
ATOM      6  C   UNL     1       5.313   5.576  15.777  0.00  0.00    +0.000 A 
ENDROOT
BRANCH   1   7
ATOM      7  C   UNL     1       7.164   4.665  14.306  0.00  0.00    +0.000 C 
BRANCH   7  11
ATOM      8  C   UNL     1       5.686   2.415  11.654  0.00  0.00    +0.000 C 
ATOM      9  C   UNL     1       6.552   3.520  12.214  0.00  0.00    +0.000 C 
ATOM     10  O   UNL     1       7.262   4.226  11.522  0.00  0.00    +0.000 OA
ATOM     11  N   UNL     1       6.426   3.659  13.582  0.00  0.00    +0.000 N 
ATOM     12  H   UNL     1       6.008   2.900  14.105  0.00  0.00    +0.000 HD
ENDBRANCH   7  11
ENDBRANCH   1   7
BRANCH   4  13
ATOM     13  O   UNL     1       4.918   5.643  19.478  0.00  0.00    +0.000 OA
BRANCH  13  14
ATOM     14  C   UNL     1       3.827   4.811  19.930  0.00  0.00    +0.000 C 
ATOM     15  C   UNL     1       4.049   3.352  19.523  0.00  0.00    +0.000 C 
ATOM     16  C   UNL     1       2.815   2.494  19.757  0.00  0.00    +0.000 C 
ATOM     17  N   UNL     1       1.635   3.071  19.106  0.00  0.00    +0.000 NA
ATOM     18  C   UNL     1       0.486   2.178  19.271  0.00  0.00    +0.000 C 
ATOM     19  C   UNL     1       1.334   4.400  19.655  0.00  0.00    +0.000 C 
ATOM     20  C   UNL     1       2.491   5.373  19.416  0.00  0.00    +0.000 C 
ENDBRANCH  13  14
ENDBRANCH   4  13
TORSDOF 4
ENDMDL
