MODEL 1
REMARK VINA RESULT:      -8.0      0.000      0.000
REMARK  Name = 
REMARK  10 active torsions:
REMARK  status: ('A' for Active; 'I' for Inactive)
REMARK    1  A    between atoms: C_1  and  C_2
REMARK    2  A    between atoms: C_4  and  C_5
REMARK    3  A    between atoms: C_8  and  C_9
REMARK    4  A    between atoms: C_10  and  O_11
REMARK    5  A    between atoms: O_11  and  C_12
REMARK    6  A    between atoms: C_16  and  S_17
REMARK    7  A    between atoms: S_17  and  C_18
REMARK    8  A    between atoms: C_18  and  C_19
REMARK    9  A    between atoms: N_21  and  C_22
REMARK   10  A    between atoms: C_27  and  N_28
REMARK                            x       y       z     vdW  Elec       q    Type
REMARK                         _______ _______ _______ _____ _____    ______ ____
ROOT
ATOM      1  C   UNL     1       6.654   6.589  17.014  0.00  0.00    +0.000 A 
ATOM      2  C   UNL     1       7.037   5.687  17.981  0.00  0.00    +0.000 A 
ATOM      3  C   UNL     1       7.917   6.173  18.912  0.00  0.00    +0.000 A 
ATOM      4  N   UNL     1       8.390   7.431  18.891  0.00  0.00    +0.000 NA
ATOM      5  C   UNL     1       7.993   8.211  17.870  0.00  0.00    +0.000 A 
ATOM      6  N   UNL     1       7.163   7.828  16.891  0.00  0.00    +0.000 NA
ENDROOT
BRANCH   1   7
ATOM      7  O   UNL     1       5.634   6.162  16.178  0.00  0.00    +0.000 OA
BRANCH   7  15
ATOM      8  C   UNL     1       3.506   7.597  17.901  0.00  0.00    +0.000 C 
ATOM      9  C   UNL     1       3.532   6.146  17.500  0.00  0.00    +0.000 A 
ATOM     10  C   UNL     1       2.532   5.336  18.072  0.00  0.00    +0.000 A 
ATOM     11  C   UNL     1       2.529   3.951  17.901  0.00  0.00    +0.000 A 
ATOM     12  C   UNL     1       3.531   3.344  17.149  0.00  0.00    +0.000 A 
ATOM     13  C   UNL     1       4.531   4.116  16.545  0.00  0.00    +0.000 A 
ATOM     14  C   UNL     1       5.618   3.416  15.762  0.00  0.00    +0.000 C 
ATOM     15  C   UNL     1       4.526   5.526  16.706  0.00  0.00    +0.000 A 
BRANCH  11  16
ATOM     16  C   UNL     1       1.528   3.156  18.539  0.00  0.00    +0.000 C 
ATOM     17  N   UNL     1       0.720   2.516  19.063  0.00  0.00    +0.000 NA
ENDBRANCH  11  16
ENDBRANCH   7  15
ENDBRANCH   1   7
BRANCH   5  18
ATOM     18  S   UNL     1       8.556   9.891  17.894  0.00  0.00    +0.000 S 
BRANCH  18  19
ATOM     19  C   UNL     1       9.141  10.001  19.615  0.00  0.00    +0.000 C 
BRANCH  19  20
ATOM     20  C   UNL     1       9.683  11.394  19.861  0.00  0.00    +0.000 C 
ATOM     21  O   UNL     1      10.450  11.636  20.791  0.00  0.00    +0.000 OA
ATOM     22  N   UNL     1       9.179  12.347  18.989  0.00  0.00    +0.000 N 
ATOM     23  H   UNL     1       8.238  12.157  18.644  0.00  0.00    +0.000 HD
BRANCH  22  24
ATOM     24  C   UNL     1       9.586  13.700  19.020  0.00  0.00    +0.000 A 
ATOM     25  C   UNL     1       8.892  14.598  19.845  0.00  0.00    +0.000 A 
ATOM     26  C   UNL     1       9.287  15.934  19.945  0.00  0.00    +0.000 A 
ATOM     27  C   UNL     1      10.374  16.398  19.209  0.00  0.00    +0.000 A 
ATOM     28  C   UNL     1      11.076  15.524  18.378  0.00  0.00    +0.000 A 
ATOM     29  C   UNL     1      10.693  14.173  18.291  0.00  0.00    +0.000 A 
BRANCH  29  30
ATOM     30  N   UNL     1      11.425  13.304  17.355  0.00  0.00    +0.000 N 
ATOM     31  O   UNL     1      12.041  12.329  17.815  0.00  0.00    +0.000 OA
ATOM     32  O   UNL     1      11.398  13.599  16.152  0.00  0.00    +0.000 OA
ENDBRANCH  29  30
ENDBRANCH  22  24
ENDBRANCH  19  20
ENDBRANCH  18  19
ENDBRANCH   5  18
TORSDOF 8
ENDMDL
MODEL 2
REMARK VINA RESULT:      -7.9      6.278      8.848
REMARK  Name = 
REMARK  10 active torsions:
REMARK  status: ('A' for Active; 'I' for Inactive)
REMARK    1  A    between atoms: C_1  and  C_2
REMARK    2  A    between atoms: C_4  and  C_5
REMARK    3  A    between atoms: C_8  and  C_9
REMARK    4  A    between atoms: C_10  and  O_11
REMARK    5  A    between atoms: O_11  and  C_12
REMARK    6  A    between atoms: C_16  and  S_17
REMARK    7  A    between atoms: S_17  and  C_18
REMARK    8  A    between atoms: C_18  and  C_19
REMARK    9  A    between atoms: N_21  and  C_22
REMARK   10  A    between atoms: C_27  and  N_28
REMARK                            x       y       z     vdW  Elec       q    Type
REMARK                         _______ _______ _______ _____ _____    ______ ____
ROOT
ATOM      1  C   UNL     1       2.224   6.268  20.315  0.00  0.00    +0.000 A 
ATOM      2  C   UNL     1       1.079   5.575  20.638  0.00  0.00    +0.000 A 
ATOM      3  C   UNL     1       1.164   4.215  20.497  0.00  0.00    +0.000 A 
ATOM      4  N   UNL     1       2.272   3.589  20.066  0.00  0.00    +0.000 NA
ATOM      5  C   UNL     1       3.316   4.366  19.725  0.00  0.00    +0.000 A 
ATOM      6  N   UNL     1       3.328   5.704  19.794  0.00  0.00    +0.000 NA
ENDROOT
BRANCH   1   7
ATOM      7  O   UNL     1       2.204   7.620  20.624  0.00  0.00    +0.000 OA
BRANCH   7  15
ATOM      8  C   UNL     1       2.589   8.315  17.637  0.00  0.00    +0.000 C 
ATOM      9  C   UNL     1       1.515   8.822  18.564  0.00  0.00    +0.000 A 
ATOM     10  C   UNL     1       0.664   9.810  18.031  0.00  0.00    +0.000 A 
ATOM     11  C   UNL     1      -0.276  10.467  18.825  0.00  0.00    +0.000 A 
ATOM     12  C   UNL     1      -0.385  10.148  20.175  0.00  0.00    +0.000 A 
ATOM     13  C   UNL     1       0.426   9.157  20.738  0.00  0.00    +0.000 A 
ATOM     14  C   UNL     1       0.297   8.863  22.216  0.00  0.00    +0.000 C 
ATOM     15  C   UNL     1       1.373   8.477  19.928  0.00  0.00    +0.000 A 
BRANCH  11  16
ATOM     16  C   UNL     1      -1.086  11.501  18.261  0.00  0.00    +0.000 C 
ATOM     17  N   UNL     1      -1.739  12.342  17.811  0.00  0.00    +0.000 NA
ENDBRANCH  11  16
ENDBRANCH   7  15
ENDBRANCH   1   7
BRANCH   5  18
ATOM     18  S   UNL     1       4.799   3.529  19.237  0.00  0.00    +0.000 S 
BRANCH  18  19
ATOM     19  C   UNL     1       4.221   2.739  17.701  0.00  0.00    +0.000 C 
BRANCH  19  20
ATOM     20  C   UNL     1       4.650   3.590  16.522  0.00  0.00    +0.000 C 
ATOM     21  O   UNL     1       4.029   4.599  16.193  0.00  0.00    +0.000 OA
ATOM     22  N   UNL     1       5.742   3.080  15.838  0.00  0.00    +0.000 N 
ATOM     23  H   UNL     1       5.830   2.065  15.866  0.00  0.00    +0.000 HD
BRANCH  22  24
ATOM     24  C   UNL     1       6.327   3.741  14.734  0.00  0.00    +0.000 A 
ATOM     25  C   UNL     1       6.018   3.299  13.438  0.00  0.00    +0.000 A 
ATOM     26  C   UNL     1       6.534   3.950  12.315  0.00  0.00    +0.000 A 
ATOM     27  C   UNL     1       7.378   5.045  12.469  0.00  0.00    +0.000 A 
ATOM     28  C   UNL     1       7.704   5.500  13.748  0.00  0.00    +0.000 A 
ATOM     29  C   UNL     1       7.170   4.858  14.881  0.00  0.00    +0.000 A 
BRANCH  29  30
ATOM     30  N   UNL     1       7.590   5.335  16.208  0.00  0.00    +0.000 N 
ATOM     31  O   UNL     1       7.996   4.500  17.033  0.00  0.00    +0.000 OA
ATOM     32  O   UNL     1       7.505   6.550  16.440  0.00  0.00    +0.000 OA
ENDBRANCH  29  30
ENDBRANCH  22  24
ENDBRANCH  19  20
ENDBRANCH  18  19
ENDBRANCH   5  18
TORSDOF 8
ENDMDL
MODEL 3
REMARK VINA RESULT:      -7.9      6.252      8.702
REMARK  Name = 
REMARK  10 active torsions:
REMARK  status: ('A' for Active; 'I' for Inactive)
REMARK    1  A    between atoms: C_1  and  C_2
REMARK    2  A    between atoms: C_4  and  C_5
REMARK    3  A    between atoms: C_8  and  C_9
REMARK    4  A    between atoms: C_10  and  O_11
REMARK    5  A    between atoms: O_11  and  C_12
REMARK    6  A    between atoms: C_16  and  S_17
REMARK    7  A    between atoms: S_17  and  C_18
REMARK    8  A    between atoms: C_18  and  C_19
REMARK    9  A    between atoms: N_21  and  C_22
REMARK   10  A    between atoms: C_27  and  N_28
REMARK                            x       y       z     vdW  Elec       q    Type
REMARK                         _______ _______ _______ _____ _____    ______ ____
ROOT
ATOM      1  C   UNL     1       2.260   6.555  20.201  0.00  0.00    +0.000 A 
ATOM      2  C   UNL     1       1.087   5.940  20.578  0.00  0.00    +0.000 A 
ATOM      3  C   UNL     1       1.094   4.573  20.494  0.00  0.00    +0.000 A 
ATOM      4  N   UNL     1       2.156   3.869  20.066  0.00  0.00    +0.000 NA
ATOM      5  C   UNL     1       3.232   4.572  19.670  0.00  0.00    +0.000 A 
ATOM      6  N   UNL     1       3.319   5.909  19.681  0.00  0.00    +0.000 NA
ENDROOT
BRANCH   1   7
ATOM      7  O   UNL     1       2.320   7.917  20.451  0.00  0.00    +0.000 OA
BRANCH   7  15
ATOM      8  C   UNL     1      -0.102   8.927  22.084  0.00  0.00    +0.000 C 
ATOM      9  C   UNL     1       0.230   9.242  20.649  0.00  0.00    +0.000 A 
ATOM     10  C   UNL     1      -0.736   9.989  19.948  0.00  0.00    +0.000 A 
ATOM     11  C   UNL     1      -0.623  10.224  18.577  0.00  0.00    +0.000 A 
ATOM     12  C   UNL     1       0.466   9.715  17.876  0.00  0.00    +0.000 A 
ATOM     13  C   UNL     1       1.460   8.986  18.540  0.00  0.00    +0.000 A 
ATOM     14  C   UNL     1       2.610   8.424  17.735  0.00  0.00    +0.000 C 
ATOM     15  C   UNL     1       1.353   8.759  19.937  0.00  0.00    +0.000 A 
BRANCH  11  16
ATOM     16  C   UNL     1      -1.650  10.942  17.890  0.00  0.00    +0.000 C 
ATOM     17  N   UNL     1      -2.481  11.517  17.329  0.00  0.00    +0.000 NA
ENDBRANCH  11  16
ENDBRANCH   7  15
ENDBRANCH   1   7
BRANCH   5  18
ATOM     18  S   UNL     1       4.655   3.634  19.187  0.00  0.00    +0.000 S 
BRANCH  18  19
ATOM     19  C   UNL     1       4.080   2.997  17.581  0.00  0.00    +0.000 C 
BRANCH  19  20
ATOM     20  C   UNL     1       4.663   3.855  16.476  0.00  0.00    +0.000 C 
ATOM     21  O   UNL     1       4.292   5.014  16.293  0.00  0.00    +0.000 OA
ATOM     22  N   UNL     1       5.580   3.188  15.680  0.00  0.00    +0.000 N 
ATOM     23  H   UNL     1       5.422   2.184  15.595  0.00  0.00    +0.000 HD
BRANCH  22  24
ATOM     24  C   UNL     1       6.271   3.817  14.620  0.00  0.00    +0.000 A 
ATOM     25  C   UNL     1       5.984   3.434  13.301  0.00  0.00    +0.000 A 
ATOM     26  C   UNL     1       6.606   4.061  12.219  0.00  0.00    +0.000 A 
ATOM     27  C   UNL     1       7.536   5.072  12.439  0.00  0.00    +0.000 A 
ATOM     28  C   UNL     1       7.842   5.467  13.742  0.00  0.00    +0.000 A 
ATOM     29  C   UNL     1       7.201   4.851  14.833  0.00  0.00    +0.000 A 
BRANCH  29  30
ATOM     30  N   UNL     1       7.600   5.259  16.190  0.00  0.00    +0.000 N 
ATOM     31  O   UNL     1       7.987   4.382  16.979  0.00  0.00    +0.000 OA
ATOM     32  O   UNL     1       7.520   6.461  16.479  0.00  0.00    +0.000 OA
ENDBRANCH  29  30
ENDBRANCH  22  24
ENDBRANCH  19  20
ENDBRANCH  18  19
ENDBRANCH   5  18
TORSDOF 8
ENDMDL
MODEL 4
REMARK VINA RESULT:      -7.8      5.807      8.301
REMARK  Name = 
REMARK  10 active torsions:
REMARK  status: ('A' for Active; 'I' for Inactive)
REMARK    1  A    between atoms: C_1  and  C_2
REMARK    2  A    between atoms: C_4  and  C_5
REMARK    3  A    between atoms: C_8  and  C_9
REMARK    4  A    between atoms: C_10  and  O_11
REMARK    5  A    between atoms: O_11  and  C_12
REMARK    6  A    between atoms: C_16  and  S_17
REMARK    7  A    between atoms: S_17  and  C_18
REMARK    8  A    between atoms: C_18  and  C_19
REMARK    9  A    between atoms: N_21  and  C_22
REMARK   10  A    between atoms: C_27  and  N_28
REMARK                            x       y       z     vdW  Elec       q    Type
REMARK                         _______ _______ _______ _____ _____    ______ ____
ROOT
ATOM      1  C   UNL     1       2.053   5.785  20.048  0.00  0.00    +0.000 A 
ATOM      2  C   UNL     1       1.579   5.203  21.203  0.00  0.00    +0.000 A 
ATOM      3  C   UNL     1       1.308   3.864  21.110  0.00  0.00    +0.000 A 
ATOM      4  N   UNL     1       1.477   3.156  19.979  0.00  0.00    +0.000 NA
ATOM      5  C   UNL     1       1.892   3.835  18.895  0.00  0.00    +0.000 A 
ATOM      6  N   UNL     1       2.155   5.148  18.867  0.00  0.00    +0.000 NA
ENDROOT
BRANCH   1   7
ATOM      7  O   UNL     1       2.496   7.092  20.183  0.00  0.00    +0.000 OA
BRANCH   7  15
ATOM      8  C   UNL     1       2.758   8.044  17.254  0.00  0.00    +0.000 C 
ATOM      9  C   UNL     1       1.849   8.598  18.319  0.00  0.00    +0.000 A 
ATOM     10  C   UNL     1       1.123   9.751  17.962  0.00  0.00    +0.000 A 
ATOM     11  C   UNL     1       0.358  10.449  18.897  0.00  0.00    +0.000 A 
ATOM     12  C   UNL     1       0.302  10.005  20.215  0.00  0.00    +0.000 A 
ATOM     13  C   UNL     1       0.990   8.850  20.605  0.00  0.00    +0.000 A 
ATOM     14  C   UNL     1       0.928   8.419  22.053  0.00  0.00    +0.000 C 
ATOM     15  C   UNL     1       1.757   8.131  19.651  0.00  0.00    +0.000 A 
BRANCH  11  16
ATOM     16  C   UNL     1      -0.323  11.645  18.511  0.00  0.00    +0.000 C 
ATOM     17  N   UNL     1      -0.868  12.613  18.194  0.00  0.00    +0.000 NA
ENDBRANCH  11  16
ENDBRANCH   7  15
ENDBRANCH   1   7
BRANCH   5  18
ATOM     18  S   UNL     1       2.191   2.881  17.432  0.00  0.00    +0.000 S 
BRANCH  18  19
ATOM     19  C   UNL     1       3.660   1.945  17.962  0.00  0.00    +0.000 C 
BRANCH  19  20
ATOM     20  C   UNL     1       4.698   2.918  18.486  0.00  0.00    +0.000 C 
ATOM     21  O   UNL     1       5.155   2.826  19.624  0.00  0.00    +0.000 OA
ATOM     22  N   UNL     1       5.011   3.929  17.592  0.00  0.00    +0.000 N 
ATOM     23  H   UNL     1       4.255   4.193  16.960  0.00  0.00    +0.000 HD
BRANCH  22  24
ATOM     24  C   UNL     1       5.985   4.916  17.867  0.00  0.00    +0.000 A 
ATOM     25  C   UNL     1       6.543   4.979  19.153  0.00  0.00    +0.000 A 
ATOM     26  C   UNL     1       7.542   5.906  19.458  0.00  0.00    +0.000 A 
ATOM     27  C   UNL     1       7.991   6.795  18.486  0.00  0.00    +0.000 A 
ATOM     28  C   UNL     1       7.448   6.755  17.201  0.00  0.00    +0.000 A 
ATOM     29  C   UNL     1       6.455   5.809  16.885  0.00  0.00    +0.000 A 
BRANCH  29  30
ATOM     30  N   UNL     1       5.869   5.844  15.535  0.00  0.00    +0.000 N 
ATOM     31  O   UNL     1       5.217   6.848  15.202  0.00  0.00    +0.000 OA
ATOM     32  O   UNL     1       6.048   4.863  14.801  0.00  0.00    +0.000 OA
ENDBRANCH  29  30
ENDBRANCH  22  24
ENDBRANCH  19  20
ENDBRANCH  18  19
ENDBRANCH   5  18
TORSDOF 8
ENDMDL
MODEL 5
REMARK VINA RESULT:      -7.7      6.653      8.886
REMARK  Name = 
REMARK  10 active torsions:
REMARK  status: ('A' for Active; 'I' for Inactive)
REMARK    1  A    between atoms: C_1  and  C_2
REMARK    2  A    between atoms: C_4  and  C_5
REMARK    3  A    between atoms: C_8  and  C_9
REMARK    4  A    between atoms: C_10  and  O_11
REMARK    5  A    between atoms: O_11  and  C_12
REMARK    6  A    between atoms: C_16  and  S_17
REMARK    7  A    between atoms: S_17  and  C_18
REMARK    8  A    between atoms: C_18  and  C_19
REMARK    9  A    between atoms: N_21  and  C_22
REMARK   10  A    between atoms: C_27  and  N_28
REMARK                            x       y       z     vdW  Elec       q    Type
REMARK                         _______ _______ _______ _____ _____    ______ ____
ROOT
ATOM      1  C   UNL     1       3.703   4.605  19.879  0.00  0.00    +0.000 A 
ATOM      2  C   UNL     1       2.817   3.700  20.419  0.00  0.00    +0.000 A 
ATOM      3  C   UNL     1       1.592   4.216  20.752  0.00  0.00    +0.000 A 
ATOM      4  N   UNL     1       1.267   5.508  20.581  0.00  0.00    +0.000 NA
ATOM      5  C   UNL     1       2.227   6.317  20.097  0.00  0.00    +0.000 A 
ATOM      6  N   UNL     1       3.465   5.924  19.769  0.00  0.00    +0.000 NA
ENDROOT
BRANCH   1   7
ATOM      7  O   UNL     1       4.874   4.057  19.377  0.00  0.00    +0.000 OA
BRANCH   7  15
ATOM      8  C   UNL     1       3.421   3.049  16.843  0.00  0.00    +0.000 C 
ATOM      9  C   UNL     1       4.650   3.916  16.909  0.00  0.00    +0.000 A 
ATOM     10  C   UNL     1       5.264   4.201  15.674  0.00  0.00    +0.000 A 
ATOM     11  C   UNL     1       6.487   4.869  15.605  0.00  0.00    +0.000 A 
ATOM     12  C   UNL     1       7.125   5.269  16.776  0.00  0.00    +0.000 A 
ATOM     13  C   UNL     1       6.536   5.025  18.023  0.00  0.00    +0.000 A 
ATOM     14  C   UNL     1       7.276   5.448  19.271  0.00  0.00    +0.000 C 
ATOM     15  C   UNL     1       5.285   4.359  18.093  0.00  0.00    +0.000 A 
BRANCH  11  16
ATOM     16  C   UNL     1       7.105   5.094  14.336  0.00  0.00    +0.000 C 
ATOM     17  N   UNL     1       7.601   5.284  13.310  0.00  0.00    +0.000 NA
ENDBRANCH  11  16
ENDBRANCH   7  15
ENDBRANCH   1   7
BRANCH   5  18
ATOM     18  S   UNL     1       1.766   8.001  19.798  0.00  0.00    +0.000 S 
BRANCH  18  19
ATOM     19  C   UNL     1       1.540   8.573  21.512  0.00  0.00    +0.000 C 
BRANCH  19  20
ATOM     20  C   UNL     1       0.153   9.169  21.651  0.00  0.00    +0.000 C 
ATOM     21  O   UNL     1      -0.851   8.462  21.716  0.00  0.00    +0.000 OA
ATOM     22  N   UNL     1       0.141  10.555  21.630  0.00  0.00    +0.000 N 
ATOM     23  H   UNL     1       0.889  10.982  21.084  0.00  0.00    +0.000 HD
BRANCH  22  24
ATOM     24  C   UNL     1      -1.045  11.309  21.787  0.00  0.00    +0.000 A 
ATOM     25  C   UNL     1      -1.583  11.466  23.073  0.00  0.00    +0.000 A 
ATOM     26  C   UNL     1      -2.725  12.242  23.283  0.00  0.00    +0.000 A 
ATOM     27  C   UNL     1      -3.356  12.862  22.209  0.00  0.00    +0.000 A 
ATOM     28  C   UNL     1      -2.841  12.717  20.920  0.00  0.00    +0.000 A 
ATOM     29  C   UNL     1      -1.679  11.952  20.708  0.00  0.00    +0.000 A 
BRANCH  29  30
ATOM     30  N   UNL     1      -1.209  11.777  19.324  0.00  0.00    +0.000 N 
ATOM     31  O   UNL     1      -2.032  11.431  18.461  0.00  0.00    +0.000 OA
ATOM     32  O   UNL     1      -0.008  11.976  19.092  0.00  0.00    +0.000 OA
ENDBRANCH  29  30
ENDBRANCH  22  24
ENDBRANCH  19  20
ENDBRANCH  18  19
ENDBRANCH   5  18
TORSDOF 8
ENDMDL
MODEL 6
REMARK VINA RESULT:      -7.6      6.436      8.144
REMARK  Name = 
REMARK  10 active torsions:
REMARK  status: ('A' for Active; 'I' for Inactive)
REMARK    1  A    between atoms: C_1  and  C_2
REMARK    2  A    between atoms: C_4  and  C_5
REMARK    3  A    between atoms: C_8  and  C_9
REMARK    4  A    between atoms: C_10  and  O_11
REMARK    5  A    between atoms: O_11  and  C_12
REMARK    6  A    between atoms: C_16  and  S_17
REMARK    7  A    between atoms: S_17  and  C_18
REMARK    8  A    between atoms: C_18  and  C_19
REMARK    9  A    between atoms: N_21  and  C_22
REMARK   10  A    between atoms: C_27  and  N_28
REMARK                            x       y       z     vdW  Elec       q    Type
REMARK                         _______ _______ _______ _____ _____    ______ ____
ROOT
ATOM      1  C   UNL     1       3.841   4.032  20.002  0.00  0.00    +0.000 A 
ATOM      2  C   UNL     1       3.012   2.970  20.290  0.00  0.00    +0.000 A 
ATOM      3  C   UNL     1       1.728   3.310  20.625  0.00  0.00    +0.000 A 
ATOM      4  N   UNL     1       1.296   4.581  20.685  0.00  0.00    +0.000 NA
ATOM      5  C   UNL     1       2.203   5.544  20.439  0.00  0.00    +0.000 A 
ATOM      6  N   UNL     1       3.488   5.324  20.133  0.00  0.00    +0.000 NA
ENDROOT
BRANCH   1   7
ATOM      7  O   UNL     1       5.084   3.690  19.492  0.00  0.00    +0.000 OA
BRANCH   7  15
ATOM      8  C   UNL     1       3.711   2.597  16.948  0.00  0.00    +0.000 C 
ATOM      9  C   UNL     1       4.836   3.596  17.024  0.00  0.00    +0.000 A 
ATOM     10  C   UNL     1       5.393   3.984  15.790  0.00  0.00    +0.000 A 
ATOM     11  C   UNL     1       6.531   4.788  15.725  0.00  0.00    +0.000 A 
ATOM     12  C   UNL     1       7.139   5.224  16.899  0.00  0.00    +0.000 A 
ATOM     13  C   UNL     1       6.603   4.879  18.145  0.00  0.00    +0.000 A 
ATOM     14  C   UNL     1       7.311   5.347  19.396  0.00  0.00    +0.000 C 
ATOM     15  C   UNL     1       5.436   4.073  18.212  0.00  0.00    +0.000 A 
BRANCH  11  16
ATOM     16  C   UNL     1       7.099   5.119  14.456  0.00  0.00    +0.000 C 
ATOM     17  N   UNL     1       7.563   5.381  13.431  0.00  0.00    +0.000 NA
ENDBRANCH  11  16
ENDBRANCH   7  15
ENDBRANCH   1   7
BRANCH   5  18
ATOM     18  S   UNL     1       1.606   7.211  20.438  0.00  0.00    +0.000 S 
BRANCH  18  19
ATOM     19  C   UNL     1       2.341   7.807  18.882  0.00  0.00    +0.000 C 
BRANCH  19  20
ATOM     20  C   UNL     1       1.617   9.066  18.449  0.00  0.00    +0.000 C 
ATOM     21  O   UNL     1       1.978   9.715  17.469  0.00  0.00    +0.000 OA
ATOM     22  N   UNL     1       0.579   9.427  19.293  0.00  0.00    +0.000 N 
ATOM     23  H   UNL     1       0.703   9.151  20.267  0.00  0.00    +0.000 HD
BRANCH  22  24
ATOM     24  C   UNL     1      -0.251  10.545  19.047  0.00  0.00    +0.000 A 
ATOM     25  C   UNL     1      -1.392  10.380  18.248  0.00  0.00    +0.000 A 
ATOM     26  C   UNL     1      -2.266  11.444  18.016  0.00  0.00    +0.000 A 
ATOM     27  C   UNL     1      -2.007  12.695  18.569  0.00  0.00    +0.000 A 
ATOM     28  C   UNL     1      -0.875  12.884  19.363  0.00  0.00    +0.000 A 
ATOM     29  C   UNL     1      -0.003  11.809  19.615  0.00  0.00    +0.000 A 
BRANCH  29  30
ATOM     30  N   UNL     1       1.209  12.071  20.408  0.00  0.00    +0.000 N 
ATOM     31  O   UNL     1       2.082  12.810  19.924  0.00  0.00    +0.000 OA
ATOM     32  O   UNL     1       1.301  11.531  21.519  0.00  0.00    +0.000 OA
ENDBRANCH  29  30
ENDBRANCH  22  24
ENDBRANCH  19  20
ENDBRANCH  18  19
ENDBRANCH   5  18
TORSDOF 8
ENDMDL
MODEL 7
REMARK VINA RESULT:      -7.6      6.075      8.031
REMARK  Name = 
REMARK  10 active torsions:
REMARK  status: ('A' for Active; 'I' for Inactive)
REMARK    1  A    between atoms: C_1  and  C_2
REMARK    2  A    between atoms: C_4  and  C_5
REMARK    3  A    between atoms: C_8  and  C_9
REMARK    4  A    between atoms: C_10  and  O_11
REMARK    5  A    between atoms: O_11  and  C_12
REMARK    6  A    between atoms: C_16  and  S_17
REMARK    7  A    between atoms: S_17  and  C_18
REMARK    8  A    between atoms: C_18  and  C_19
REMARK    9  A    between atoms: N_21  and  C_22
REMARK   10  A    between atoms: C_27  and  N_28
REMARK                            x       y       z     vdW  Elec       q    Type
REMARK                         _______ _______ _______ _____ _____    ______ ____
ROOT
ATOM      1  C   UNL     1       3.655   4.284  20.000  0.00  0.00    +0.000 A 
ATOM      2  C   UNL     1       2.773   3.308  20.404  0.00  0.00    +0.000 A 
ATOM      3  C   UNL     1       1.523   3.759  20.739  0.00  0.00    +0.000 A 
ATOM      4  N   UNL     1       1.172   5.055  20.693  0.00  0.00    +0.000 NA
ATOM      5  C   UNL     1       2.128   5.931  20.337  0.00  0.00    +0.000 A 
ATOM      6  N   UNL     1       3.388   5.603  20.020  0.00  0.00    +0.000 NA
ENDROOT
BRANCH   1   7
ATOM      7  O   UNL     1       4.859   3.819  19.492  0.00  0.00    +0.000 OA
BRANCH   7  15
ATOM      8  C   UNL     1       3.494   2.791  16.916  0.00  0.00    +0.000 C 
ATOM      9  C   UNL     1       4.665   3.733  17.018  0.00  0.00    +0.000 A 
ATOM     10  C   UNL     1       5.270   4.091  15.798  0.00  0.00    +0.000 A 
ATOM     11  C   UNL     1       6.448   4.837  15.759  0.00  0.00    +0.000 A 
ATOM     12  C   UNL     1       7.048   5.244  16.947  0.00  0.00    +0.000 A 
ATOM     13  C   UNL     1       6.467   4.929  18.181  0.00  0.00    +0.000 A 
ATOM     14  C   UNL     1       7.167   5.363  19.448  0.00  0.00    +0.000 C 
ATOM     15  C   UNL     1       5.260   4.182  18.220  0.00  0.00    +0.000 A 
BRANCH  11  16
ATOM     16  C   UNL     1       7.061   5.137  14.503  0.00  0.00    +0.000 C 
ATOM     17  N   UNL     1       7.564   5.379  13.492  0.00  0.00    +0.000 NA
ENDBRANCH  11  16
ENDBRANCH   7  15
ENDBRANCH   1   7
BRANCH   5  18
ATOM     18  S   UNL     1       1.635   7.627  20.199  0.00  0.00    +0.000 S 
BRANCH  18  19
ATOM     19  C   UNL     1       2.197   7.980  18.503  0.00  0.00    +0.000 C 
BRANCH  19  20
ATOM     20  C   UNL     1       1.920   9.436  18.187  0.00  0.00    +0.000 C 
ATOM     21  O   UNL     1       2.384   9.981  17.188  0.00  0.00    +0.000 OA
ATOM     22  N   UNL     1       1.165  10.079  19.156  0.00  0.00    +0.000 N 
ATOM     23  H   UNL     1       1.282   9.716  20.102  0.00  0.00    +0.000 HD
BRANCH  22  24
ATOM     24  C   UNL     1       0.759  11.428  19.036  0.00  0.00    +0.000 A 
ATOM     25  C   UNL     1       1.653  12.440  19.415  0.00  0.00    +0.000 A 
ATOM     26  C   UNL     1       1.315  13.788  19.270  0.00  0.00    +0.000 A 
ATOM     27  C   UNL     1       0.072  14.145  18.756  0.00  0.00    +0.000 A 
ATOM     28  C   UNL     1      -0.835  13.155  18.376  0.00  0.00    +0.000 A 
ATOM     29  C   UNL     1      -0.489  11.796  18.502  0.00  0.00    +0.000 A 
BRANCH  29  30
ATOM     30  N   UNL     1      -1.501  10.788  18.146  0.00  0.00    +0.000 N 
ATOM     31  O   UNL     1      -1.177   9.879  17.365  0.00  0.00    +0.000 OA
ATOM     32  O   UNL     1      -2.633  10.906  18.636  0.00  0.00    +0.000 OA
ENDBRANCH  29  30
ENDBRANCH  22  24
ENDBRANCH  19  20
ENDBRANCH  18  19
ENDBRANCH   5  18
TORSDOF 8
ENDMDL
MODEL 8
REMARK VINA RESULT:      -7.6      5.882      8.214
REMARK  Name = 
REMARK  10 active torsions:
REMARK  status: ('A' for Active; 'I' for Inactive)
REMARK    1  A    between atoms: C_1  and  C_2
REMARK    2  A    between atoms: C_4  and  C_5
REMARK    3  A    between atoms: C_8  and  C_9
REMARK    4  A    between atoms: C_10  and  O_11
REMARK    5  A    between atoms: O_11  and  C_12
REMARK    6  A    between atoms: C_16  and  S_17
REMARK    7  A    between atoms: S_17  and  C_18
REMARK    8  A    between atoms: C_18  and  C_19
REMARK    9  A    between atoms: N_21  and  C_22
REMARK   10  A    between atoms: C_27  and  N_28
REMARK                            x       y       z     vdW  Elec       q    Type
REMARK                         _______ _______ _______ _____ _____    ______ ____
ROOT
ATOM      1  C   UNL     1       2.156   5.884  19.935  0.00  0.00    +0.000 A 
ATOM      2  C   UNL     1       1.706   5.348  21.120  0.00  0.00    +0.000 A 
ATOM      3  C   UNL     1       1.388   4.016  21.072  0.00  0.00    +0.000 A 
ATOM      4  N   UNL     1       1.493   3.276  19.955  0.00  0.00    +0.000 NA
ATOM      5  C   UNL     1       1.891   3.912  18.839  0.00  0.00    +0.000 A 
ATOM      6  N   UNL     1       2.195   5.215  18.768  0.00  0.00    +0.000 NA
ENDROOT
BRANCH   1   7
ATOM      7  O   UNL     1       2.646   7.178  20.019  0.00  0.00    +0.000 OA
BRANCH   7  15
ATOM      8  C   UNL     1       0.612   8.371  22.018  0.00  0.00    +0.000 C 
ATOM      9  C   UNL     1       0.882   8.823  20.607  0.00  0.00    +0.000 A 
ATOM     10  C   UNL     1       0.028   9.829  20.114  0.00  0.00    +0.000 A 
ATOM     11  C   UNL     1       0.074  10.234  18.780  0.00  0.00    +0.000 A 
ATOM     12  C   UNL     1       0.980   9.640  17.906  0.00  0.00    +0.000 A 
ATOM     13  C   UNL     1       1.861   8.653  18.362  0.00  0.00    +0.000 A 
ATOM     14  C   UNL     1       2.808   8.010  17.374  0.00  0.00    +0.000 C 
ATOM     15  C   UNL     1       1.826   8.250  19.723  0.00  0.00    +0.000 A 
BRANCH  11  16
ATOM     16  C   UNL     1      -0.843  11.221  18.303  0.00  0.00    +0.000 C 
ATOM     17  N   UNL     1      -1.591  12.015  17.921  0.00  0.00    +0.000 NA
ENDBRANCH  11  16
ENDBRANCH   7  15
ENDBRANCH   1   7
BRANCH   5  18
ATOM     18  S   UNL     1       2.104   2.912  17.393  0.00  0.00    +0.000 S 
BRANCH  18  19
ATOM     19  C   UNL     1       3.539   1.916  17.909  0.00  0.00    +0.000 C 
BRANCH  19  20
ATOM     20  C   UNL     1       4.596   2.840  18.482  0.00  0.00    +0.000 C 
ATOM     21  O   UNL     1       5.014   2.711  19.631  0.00  0.00    +0.000 OA
ATOM     22  N   UNL     1       4.975   3.853  17.615  0.00  0.00    +0.000 N 
ATOM     23  H   UNL     1       4.249   4.156  16.966  0.00  0.00    +0.000 HD
BRANCH  22  24
ATOM     24  C   UNL     1       5.976   4.797  17.937  0.00  0.00    +0.000 A 
ATOM     25  C   UNL     1       6.299   5.010  19.286  0.00  0.00    +0.000 A 
ATOM     26  C   UNL     1       7.314   5.898  19.650  0.00  0.00    +0.000 A 
ATOM     27  C   UNL     1       8.014   6.598  18.672  0.00  0.00    +0.000 A 
ATOM     28  C   UNL     1       7.708   6.406  17.324  0.00  0.00    +0.000 A 
ATOM     29  C   UNL     1       6.699   5.497  16.953  0.00  0.00    +0.000 A 
BRANCH  29  30
ATOM     30  N   UNL     1       6.370   5.374  15.524  0.00  0.00    +0.000 N 
ATOM     31  O   UNL     1       7.303   5.348  14.705  0.00  0.00    +0.000 OA
ATOM     32  O   UNL     1       5.173   5.313  15.209  0.00  0.00    +0.000 OA
ENDBRANCH  29  30
ENDBRANCH  22  24
ENDBRANCH  19  20
ENDBRANCH  18  19
ENDBRANCH   5  18
TORSDOF 8
ENDMDL
MODEL 9
REMARK VINA RESULT:      -7.6      1.148      1.224
REMARK  Name = 
REMARK  10 active torsions:
REMARK  status: ('A' for Active; 'I' for Inactive)
REMARK    1  A    between atoms: C_1  and  C_2
REMARK    2  A    between atoms: C_4  and  C_5
REMARK    3  A    between atoms: C_8  and  C_9
REMARK    4  A    between atoms: C_10  and  O_11
REMARK    5  A    between atoms: O_11  and  C_12
REMARK    6  A    between atoms: C_16  and  S_17
REMARK    7  A    between atoms: S_17  and  C_18
REMARK    8  A    between atoms: C_18  and  C_19
REMARK    9  A    between atoms: N_21  and  C_22
REMARK   10  A    between atoms: C_27  and  N_28
REMARK                            x       y       z     vdW  Elec       q    Type
REMARK                         _______ _______ _______ _____ _____    ______ ____
ROOT
ATOM      1  C   UNL     1       6.791   6.958  17.016  0.00  0.00    +0.000 A 
ATOM      2  C   UNL     1       7.176   5.973  17.898  0.00  0.00    +0.000 A 
ATOM      3  C   UNL     1       8.063   6.372  18.863  0.00  0.00    +0.000 A 
ATOM      4  N   UNL     1       8.541   7.625  18.949  0.00  0.00    +0.000 NA
ATOM      5  C   UNL     1       8.142   8.494  18.003  0.00  0.00    +0.000 A 
ATOM      6  N   UNL     1       7.305   8.201  16.999  0.00  0.00    +0.000 NA
ENDROOT
BRANCH   1   7
ATOM      7  O   UNL     1       5.764   6.609  16.152  0.00  0.00    +0.000 OA
BRANCH   7  15
ATOM      8  C   UNL     1       3.507   7.637  17.997  0.00  0.00    +0.000 C 
ATOM      9  C   UNL     1       3.675   6.247  17.443  0.00  0.00    +0.000 A 
ATOM     10  C   UNL     1       2.758   5.287  17.914  0.00  0.00    +0.000 A 
ATOM     11  C   UNL     1       2.890   3.935  17.595  0.00  0.00    +0.000 A 
ATOM     12  C   UNL     1       3.947   3.513  16.792  0.00  0.00    +0.000 A 
ATOM     13  C   UNL     1       4.866   4.439  16.285  0.00  0.00    +0.000 A 
ATOM     14  C   UNL     1       6.017   3.936  15.444  0.00  0.00    +0.000 C 
ATOM     15  C   UNL     1       4.724   5.816  16.597  0.00  0.00    +0.000 A 
BRANCH  11  16
ATOM     16  C   UNL     1       1.971   2.982  18.134  0.00  0.00    +0.000 C 
ATOM     17  N   UNL     1       1.223   2.213  18.563  0.00  0.00    +0.000 NA
ENDBRANCH  11  16
ENDBRANCH   7  15
ENDBRANCH   1   7
BRANCH   5  18
ATOM     18  S   UNL     1       8.712  10.163  18.171  0.00  0.00    +0.000 S 
BRANCH  18  19
ATOM     19  C   UNL     1       9.151  10.167  19.939  0.00  0.00    +0.000 C 
BRANCH  19  20
ATOM     20  C   UNL     1       9.977  11.403  20.235  0.00  0.00    +0.000 C 
ATOM     21  O   UNL     1      11.200  11.352  20.349  0.00  0.00    +0.000 OA
ATOM     22  N   UNL     1       9.215  12.545  20.426  0.00  0.00    +0.000 N 
ATOM     23  H   UNL     1       8.283  12.381  20.806  0.00  0.00    +0.000 HD
BRANCH  22  24
ATOM     24  C   UNL     1       9.790  13.813  20.672  0.00  0.00    +0.000 A 
ATOM     25  C   UNL     1       9.768  14.325  21.978  0.00  0.00    +0.000 A 
ATOM     26  C   UNL     1      10.365  15.551  22.279  0.00  0.00    +0.000 A 
ATOM     27  C   UNL     1      10.983  16.292  21.276  0.00  0.00    +0.000 A 
ATOM     28  C   UNL     1      11.013  15.805  19.969  0.00  0.00    +0.000 A 
ATOM     29  C   UNL     1      10.430  14.561  19.666  0.00  0.00    +0.000 A 
BRANCH  29  30
ATOM     30  N   UNL     1      10.433  14.117  18.263  0.00  0.00    +0.000 N 
ATOM     31  O   UNL     1       9.343  13.993  17.681  0.00  0.00    +0.000 OA
ATOM     32  O   UNL     1      11.529  13.879  17.735  0.00  0.00    +0.000 OA
ENDBRANCH  29  30
ENDBRANCH  22  24
ENDBRANCH  19  20
ENDBRANCH  18  19
ENDBRANCH   5  18
TORSDOF 8
ENDMDL
