MODEL 1
REMARK VINA RESULT:      -7.9      0.000      0.000
REMARK  Name = 
REMARK  10 active torsions:
REMARK  status: ('A' for Active; 'I' for Inactive)
REMARK    1  A    between atoms: C_1  and  O_2
REMARK    2  A    between atoms: O_2  and  C_3
REMARK    3  A    between atoms: C_3  and  C_5
REMARK    4  A    between atoms: C_6  and  S_7
REMARK    5  A    between atoms: S_7  and  C_8
REMARK    6  A    between atoms: C_16  and  O_17
REMARK    7  A    between atoms: O_17  and  C_18
REMARK    8  A    between atoms: C_18  and  C_19
REMARK    9  A    between atoms: C_22  and  C_23
REMARK   10  A    between atoms: C_25  and  C_26
REMARK                            x       y       z     vdW  Elec       q    Type
REMARK                         _______ _______ _______ _____ _____    ______ ____
ROOT
ATOM      1  C   UNL     1       4.630   5.494  17.296  0.00  0.00    +0.000 A 
ATOM      2  C   UNL     1       4.834   4.239  16.723  0.00  0.00    +0.000 A 
ATOM      3  N   UNL     1       4.003   3.197  16.975  0.00  0.00    +0.000 NA
ATOM      4  C   UNL     1       2.980   3.345  17.816  0.00  0.00    +0.000 A 
ATOM      5  C   UNL     1       2.207   2.212  18.052  0.00  0.00    +0.000 A 
ATOM      6  C   UNL     1       1.137   2.214  18.942  0.00  0.00    +0.000 A 
ATOM      7  C   UNL     1       0.842   3.367  19.636  0.00  0.00    +0.000 A 
ATOM      8  C   UNL     1       1.618   4.508  19.427  0.00  0.00    +0.000 A 
ATOM      9  C   UNL     1       2.688   4.550  18.490  0.00  0.00    +0.000 A 
ATOM     10  C   UNL     1       3.525   5.667  18.168  0.00  0.00    +0.000 A 
ENDROOT
BRANCH   1  11
ATOM     11  C   UNL     1       5.518   6.621  16.932  0.00  0.00    +0.000 C 
ATOM     12  O   UNL     1       5.356   7.341  15.957  0.00  0.00    +0.000 OA
BRANCH  11  14
ATOM     13  C   UNL     1       7.569   7.661  17.474  0.00  0.00    +0.000 C 
ATOM     14  O   UNL     1       6.528   6.745  17.833  0.00  0.00    +0.000 OA
ENDBRANCH  11  14
ENDBRANCH   1  11
BRANCH   2  15
ATOM     15  S   UNL     1       6.240   3.828  15.677  0.00  0.00    +0.000 S 
ATOM     16  C   UNL     1       5.587   4.168  14.015  0.00  0.00    +0.000 C 
ENDBRANCH   2  15
BRANCH  10  17
ATOM     17  O   UNL     1       3.414   6.909  18.755  0.00  0.00    +0.000 OA
BRANCH  17  18
ATOM     18  C   UNL     1       2.450   7.841  18.272  0.00  0.00    +0.000 C 
BRANCH  18  19
ATOM     19  C   UNL     1       1.589   8.374  19.401  0.00  0.00    +0.000 A 
ATOM     20  C   UNL     1       1.744   7.815  20.682  0.00  0.00    +0.000 A 
ATOM     21  C   UNL     1       1.099   8.364  21.789  0.00  0.00    +0.000 A 
ATOM     22  C   UNL     1       0.281   9.485  21.647  0.00  0.00    +0.000 A 
ATOM     23  C   UNL     1      -0.404  10.099  22.831  0.00  0.00    +0.000 C 
ATOM     24  C   UNL     1       0.111  10.044  20.375  0.00  0.00    +0.000 A 
ATOM     25  C   UNL     1       0.759   9.508  19.247  0.00  0.00    +0.000 A 
ATOM     26  C   UNL     1       0.585  10.201  17.921  0.00  0.00    +0.000 C 
ENDBRANCH  18  19
ENDBRANCH  17  18
ENDBRANCH  10  17
TORSDOF 6
ENDMDL
MODEL 2
REMARK VINA RESULT:      -7.7      0.867      1.760
REMARK  Name = 
REMARK  10 active torsions:
REMARK  status: ('A' for Active; 'I' for Inactive)
REMARK    1  A    between atoms: C_1  and  O_2
REMARK    2  A    between atoms: O_2  and  C_3
REMARK    3  A    between atoms: C_3  and  C_5
REMARK    4  A    between atoms: C_6  and  S_7
REMARK    5  A    between atoms: S_7  and  C_8
REMARK    6  A    between atoms: C_16  and  O_17
REMARK    7  A    between atoms: O_17  and  C_18
REMARK    8  A    between atoms: C_18  and  C_19
REMARK    9  A    between atoms: C_22  and  C_23
REMARK   10  A    between atoms: C_25  and  C_26
REMARK                            x       y       z     vdW  Elec       q    Type
REMARK                         _______ _______ _______ _____ _____    ______ ____
ROOT
ATOM      1  C   UNL     1       4.498   5.551  16.963  0.00  0.00    +0.000 A 
ATOM      2  C   UNL     1       5.034   4.280  16.754  0.00  0.00    +0.000 A 
ATOM      3  N   UNL     1       4.410   3.162  17.200  0.00  0.00    +0.000 NA
ATOM      4  C   UNL     1       3.272   3.259  17.888  0.00  0.00    +0.000 A 
ATOM      5  C   UNL     1       2.727   2.064  18.347  0.00  0.00    +0.000 A 
ATOM      6  C   UNL     1       1.567   2.023  19.117  0.00  0.00    +0.000 A 
ATOM      7  C   UNL     1       0.947   3.204  19.461  0.00  0.00    +0.000 A 
ATOM      8  C   UNL     1       1.491   4.413  19.026  0.00  0.00    +0.000 A 
ATOM      9  C   UNL     1       2.648   4.485  18.200  0.00  0.00    +0.000 A 
ATOM     10  C   UNL     1       3.272   5.660  17.667  0.00  0.00    +0.000 A 
ENDROOT
BRANCH   1  11
ATOM     11  C   UNL     1       5.174   6.738  16.392  0.00  0.00    +0.000 C 
ATOM     12  O   UNL     1       5.113   7.068  15.217  0.00  0.00    +0.000 OA
BRANCH  11  14
ATOM     13  C   UNL     1       7.282   7.218  17.344  0.00  0.00    +0.000 C 
ATOM     14  O   UNL     1       5.862   7.406  17.355  0.00  0.00    +0.000 OA
ENDBRANCH  11  14
ENDBRANCH   1  11
BRANCH   2  15
ATOM     15  S   UNL     1       6.624   3.978  15.968  0.00  0.00    +0.000 S 
ATOM     16  C   UNL     1       6.167   3.890  14.211  0.00  0.00    +0.000 C 
ENDBRANCH   2  15
BRANCH  10  17
ATOM     17  O   UNL     1       2.826   6.943  17.901  0.00  0.00    +0.000 OA
BRANCH  17  18
ATOM     18  C   UNL     1       2.559   7.372  19.233  0.00  0.00    +0.000 C 
BRANCH  18  19
ATOM     19  C   UNL     1       1.589   8.539  19.249  0.00  0.00    +0.000 A 
ATOM     20  C   UNL     1       1.204   9.105  18.021  0.00  0.00    +0.000 A 
ATOM     21  C   UNL     1       0.201  10.072  17.958  0.00  0.00    +0.000 A 
ATOM     22  C   UNL     1      -0.443  10.499  19.120  0.00  0.00    +0.000 A 
ATOM     23  C   UNL     1      -1.537  11.523  19.066  0.00  0.00    +0.000 C 
ATOM     24  C   UNL     1      -0.061   9.949  20.349  0.00  0.00    +0.000 A 
ATOM     25  C   UNL     1       0.943   8.968  20.432  0.00  0.00    +0.000 A 
ATOM     26  C   UNL     1       1.257   8.371  21.778  0.00  0.00    +0.000 C 
ENDBRANCH  18  19
ENDBRANCH  17  18
ENDBRANCH  10  17
TORSDOF 6
ENDMDL
MODEL 3
REMARK VINA RESULT:      -7.3      2.016      4.281
REMARK  Name = 
REMARK  10 active torsions:
REMARK  status: ('A' for Active; 'I' for Inactive)
REMARK    1  A    between atoms: C_1  and  O_2
REMARK    2  A    between atoms: O_2  and  C_3
REMARK    3  A    between atoms: C_3  and  C_5
REMARK    4  A    between atoms: C_6  and  S_7
REMARK    5  A    between atoms: S_7  and  C_8
REMARK    6  A    between atoms: C_16  and  O_17
REMARK    7  A    between atoms: O_17  and  C_18
REMARK    8  A    between atoms: C_18  and  C_19
REMARK    9  A    between atoms: C_22  and  C_23
REMARK   10  A    between atoms: C_25  and  C_26
REMARK                            x       y       z     vdW  Elec       q    Type
REMARK                         _______ _______ _______ _____ _____    ______ ____
ROOT
ATOM      1  C   UNL     1       3.237   4.625  19.034  0.00  0.00    +0.000 A 
ATOM      2  C   UNL     1       4.275   3.777  19.420  0.00  0.00    +0.000 A 
ATOM      3  N   UNL     1       5.575   4.102  19.211  0.00  0.00    +0.000 NA
ATOM      4  C   UNL     1       5.890   5.238  18.591  0.00  0.00    +0.000 A 
ATOM      5  C   UNL     1       7.245   5.468  18.377  0.00  0.00    +0.000 A 
ATOM      6  C   UNL     1       7.712   6.592  17.700  0.00  0.00    +0.000 A 
ATOM      7  C   UNL     1       6.804   7.501  17.201  0.00  0.00    +0.000 A 
ATOM      8  C   UNL     1       5.440   7.277  17.390  0.00  0.00    +0.000 A 
ATOM      9  C   UNL     1       4.935   6.162  18.116  0.00  0.00    +0.000 A 
ATOM     10  C   UNL     1       3.566   5.851  18.401  0.00  0.00    +0.000 A 
ENDROOT
BRANCH   1  11
ATOM     11  C   UNL     1       1.836   4.266  19.351  0.00  0.00    +0.000 C 
ATOM     12  O   UNL     1       1.268   4.557  20.394  0.00  0.00    +0.000 OA
BRANCH  11  14
ATOM     13  C   UNL     1       0.532   2.409  18.694  0.00  0.00    +0.000 C 
ATOM     14  O   UNL     1       1.275   3.576  18.323  0.00  0.00    +0.000 OA
ENDBRANCH  11  14
ENDBRANCH   1  11
BRANCH   2  15
ATOM     15  S   UNL     1       4.025   2.149  20.143  0.00  0.00    +0.000 S 
ATOM     16  C   UNL     1       3.879   1.098  18.667  0.00  0.00    +0.000 C 
ENDBRANCH   2  15
BRANCH  10  17
ATOM     17  O   UNL     1       2.498   6.615  17.983  0.00  0.00    +0.000 OA
BRANCH  17  18
ATOM     18  C   UNL     1       2.509   8.025  18.185  0.00  0.00    +0.000 C 
BRANCH  18  19
ATOM     19  C   UNL     1       1.604   8.421  19.337  0.00  0.00    +0.000 A 
ATOM     20  C   UNL     1       1.837   7.848  20.599  0.00  0.00    +0.000 A 
ATOM     21  C   UNL     1       1.145   8.287  21.727  0.00  0.00    +0.000 A 
ATOM     22  C   UNL     1       0.200   9.308  21.623  0.00  0.00    +0.000 A 
ATOM     23  C   UNL     1      -0.540   9.802  22.831  0.00  0.00    +0.000 C 
ATOM     24  C   UNL     1      -0.048   9.879  20.370  0.00  0.00    +0.000 A 
ATOM     25  C   UNL     1       0.645   9.455  19.222  0.00  0.00    +0.000 A 
ATOM     26  C   UNL     1       0.377  10.160  17.919  0.00  0.00    +0.000 C 
ENDBRANCH  18  19
ENDBRANCH  17  18
ENDBRANCH  10  17
TORSDOF 6
ENDMDL
MODEL 4
REMARK VINA RESULT:      -7.2      2.813      5.748
REMARK  Name = 
REMARK  10 active torsions:
REMARK  status: ('A' for Active; 'I' for Inactive)
REMARK    1  A    between atoms: C_1  and  O_2
REMARK    2  A    between atoms: O_2  and  C_3
REMARK    3  A    between atoms: C_3  and  C_5
REMARK    4  A    between atoms: C_6  and  S_7
REMARK    5  A    between atoms: S_7  and  C_8
REMARK    6  A    between atoms: C_16  and  O_17
REMARK    7  A    between atoms: O_17  and  C_18
REMARK    8  A    between atoms: C_18  and  C_19
REMARK    9  A    between atoms: C_22  and  C_23
REMARK   10  A    between atoms: C_25  and  C_26
REMARK                            x       y       z     vdW  Elec       q    Type
REMARK                         _______ _______ _______ _____ _____    ______ ____
ROOT
ATOM      1  C   UNL     1       5.647   5.456  17.168  0.00  0.00    +0.000 A 
ATOM      2  C   UNL     1       6.902   6.022  16.946  0.00  0.00    +0.000 A 
ATOM      3  N   UNL     1       7.538   5.897  15.755  0.00  0.00    +0.000 NA
ATOM      4  C   UNL     1       6.985   5.190  14.770  0.00  0.00    +0.000 A 
ATOM      5  C   UNL     1       7.729   5.075  13.600  0.00  0.00    +0.000 A 
ATOM      6  C   UNL     1       7.290   4.328  12.510  0.00  0.00    +0.000 A 
ATOM      7  C   UNL     1       6.091   3.656  12.595  0.00  0.00    +0.000 A 
ATOM      8  C   UNL     1       5.340   3.744  13.768  0.00  0.00    +0.000 A 
ATOM      9  C   UNL     1       5.739   4.536  14.881  0.00  0.00    +0.000 A 
ATOM     10  C   UNL     1       5.037   4.728  16.115  0.00  0.00    +0.000 A 
ENDROOT
BRANCH   1  11
ATOM     11  C   UNL     1       4.956   5.683  18.458  0.00  0.00    +0.000 C 
ATOM     12  O   UNL     1       5.231   5.105  19.499  0.00  0.00    +0.000 OA
BRANCH  11  14
ATOM     13  C   UNL     1       2.965   6.612  19.327  0.00  0.00    +0.000 C 
ATOM     14  O   UNL     1       3.984   6.624  18.320  0.00  0.00    +0.000 OA
ENDBRANCH  11  14
ENDBRANCH   1  11
BRANCH   2  15
ATOM     15  S   UNL     1       7.851   6.888  18.205  0.00  0.00    +0.000 S 
ATOM     16  C   UNL     1       7.827   8.598  17.588  0.00  0.00    +0.000 C 
ENDBRANCH   2  15
BRANCH  10  17
ATOM     17  O   UNL     1       3.829   4.137  16.415  0.00  0.00    +0.000 OA
BRANCH  17  18
ATOM     18  C   UNL     1       3.792   2.789  16.876  0.00  0.00    +0.000 C 
BRANCH  18  19
ATOM     19  C   UNL     1       3.075   2.685  18.209  0.00  0.00    +0.000 A 
ATOM     20  C   UNL     1       3.740   2.062  19.279  0.00  0.00    +0.000 A 
ATOM     21  C   UNL     1       3.201   2.074  20.565  0.00  0.00    +0.000 A 
ATOM     22  C   UNL     1       1.983   2.708  20.815  0.00  0.00    +0.000 A 
ATOM     23  C   UNL     1       1.401   2.745  22.197  0.00  0.00    +0.000 C 
ATOM     24  C   UNL     1       1.307   3.323  19.755  0.00  0.00    +0.000 A 
ATOM     25  C   UNL     1       1.838   3.327  18.453  0.00  0.00    +0.000 A 
ATOM     26  C   UNL     1       1.091   4.065  17.374  0.00  0.00    +0.000 C 
ENDBRANCH  18  19
ENDBRANCH  17  18
ENDBRANCH  10  17
TORSDOF 6
ENDMDL
MODEL 5
REMARK VINA RESULT:      -7.1      1.386      1.989
REMARK  Name = 
REMARK  10 active torsions:
REMARK  status: ('A' for Active; 'I' for Inactive)
REMARK    1  A    between atoms: C_1  and  O_2
REMARK    2  A    between atoms: O_2  and  C_3
REMARK    3  A    between atoms: C_3  and  C_5
REMARK    4  A    between atoms: C_6  and  S_7
REMARK    5  A    between atoms: S_7  and  C_8
REMARK    6  A    between atoms: C_16  and  O_17
REMARK    7  A    between atoms: O_17  and  C_18
REMARK    8  A    between atoms: C_18  and  C_19
REMARK    9  A    between atoms: C_22  and  C_23
REMARK   10  A    between atoms: C_25  and  C_26
REMARK                            x       y       z     vdW  Elec       q    Type
REMARK                         _______ _______ _______ _____ _____    ______ ____
ROOT
ATOM      1  C   UNL     1       4.755   5.675  17.860  0.00  0.00    +0.000 A 
ATOM      2  C   UNL     1       5.597   4.700  18.395  0.00  0.00    +0.000 A 
ATOM      3  N   UNL     1       5.130   3.732  19.222  0.00  0.00    +0.000 NA
ATOM      4  C   UNL     1       3.845   3.713  19.573  0.00  0.00    +0.000 A 
ATOM      5  C   UNL     1       3.464   2.712  20.461  0.00  0.00    +0.000 A 
ATOM      6  C   UNL     1       2.163   2.604  20.946  0.00  0.00    +0.000 A 
ATOM      7  C   UNL     1       1.221   3.532  20.557  0.00  0.00    +0.000 A 
ATOM      8  C   UNL     1       1.590   4.553  19.681  0.00  0.00    +0.000 A 
ATOM      9  C   UNL     1       2.899   4.663  19.133  0.00  0.00    +0.000 A 
ATOM     10  C   UNL     1       3.379   5.642  18.204  0.00  0.00    +0.000 A 
ENDROOT
BRANCH   1  11
ATOM     11  C   UNL     1       5.293   6.666  16.901  0.00  0.00    +0.000 C 
ATOM     12  O   UNL     1       6.007   7.608  17.210  0.00  0.00    +0.000 OA
BRANCH  11  14
ATOM     13  C   UNL     1       5.645   5.367  14.959  0.00  0.00    +0.000 C 
ATOM     14  O   UNL     1       4.888   6.377  15.636  0.00  0.00    +0.000 OA
ENDBRANCH  11  14
ENDBRANCH   1  11
BRANCH   2  15
ATOM     15  S   UNL     1       7.377   4.660  18.136  0.00  0.00    +0.000 S 
ATOM     16  C   UNL     1       7.976   5.758  19.455  0.00  0.00    +0.000 C 
ENDBRANCH   2  15
BRANCH  10  17
ATOM     17  O   UNL     1       2.611   6.669  17.699  0.00  0.00    +0.000 OA
BRANCH  17  18
ATOM     18  C   UNL     1       2.804   8.000  18.168  0.00  0.00    +0.000 C 
BRANCH  18  19
ATOM     19  C   UNL     1       1.822   8.340  19.274  0.00  0.00    +0.000 A 
ATOM     20  C   UNL     1       1.996   7.737  20.531  0.00  0.00    +0.000 A 
ATOM     21  C   UNL     1       1.228   8.125  21.628  0.00  0.00    +0.000 A 
ATOM     22  C   UNL     1       0.264   9.125  21.496  0.00  0.00    +0.000 A 
ATOM     23  C   UNL     1      -0.558   9.566  22.671  0.00  0.00    +0.000 C 
ATOM     24  C   UNL     1       0.074   9.726  20.246  0.00  0.00    +0.000 A 
ATOM     25  C   UNL     1       0.845   9.353  19.131  0.00  0.00    +0.000 A 
ATOM     26  C   UNL     1       0.636  10.088  17.833  0.00  0.00    +0.000 C 
ENDBRANCH  18  19
ENDBRANCH  17  18
ENDBRANCH  10  17
TORSDOF 6
ENDMDL
MODEL 6
REMARK VINA RESULT:      -7.1      1.886      4.240
REMARK  Name = 
REMARK  10 active torsions:
REMARK  status: ('A' for Active; 'I' for Inactive)
REMARK    1  A    between atoms: C_1  and  O_2
REMARK    2  A    between atoms: O_2  and  C_3
REMARK    3  A    between atoms: C_3  and  C_5
REMARK    4  A    between atoms: C_6  and  S_7
REMARK    5  A    between atoms: S_7  and  C_8
REMARK    6  A    between atoms: C_16  and  O_17
REMARK    7  A    between atoms: O_17  and  C_18
REMARK    8  A    between atoms: C_18  and  C_19
REMARK    9  A    between atoms: C_22  and  C_23
REMARK   10  A    between atoms: C_25  and  C_26
REMARK                            x       y       z     vdW  Elec       q    Type
REMARK                         _______ _______ _______ _____ _____    ______ ____
ROOT
ATOM      1  C   UNL     1       3.284   4.590  18.308  0.00  0.00    +0.000 A 
ATOM      2  C   UNL     1       4.254   3.651  18.658  0.00  0.00    +0.000 A 
ATOM      3  N   UNL     1       5.574   3.963  18.673  0.00  0.00    +0.000 NA
ATOM      4  C   UNL     1       5.979   5.181  18.313  0.00  0.00    +0.000 A 
ATOM      5  C   UNL     1       7.353   5.399  18.313  0.00  0.00    +0.000 A 
ATOM      6  C   UNL     1       7.914   6.609  17.916  0.00  0.00    +0.000 A 
ATOM      7  C   UNL     1       7.088   7.623  17.483  0.00  0.00    +0.000 A 
ATOM      8  C   UNL     1       5.708   7.417  17.458  0.00  0.00    +0.000 A 
ATOM      9  C   UNL     1       5.102   6.207  17.902  0.00  0.00    +0.000 A 
ATOM     10  C   UNL     1       3.705   5.897  17.954  0.00  0.00    +0.000 A 
ENDROOT
BRANCH   1  11
ATOM     11  C   UNL     1       1.850   4.227  18.380  0.00  0.00    +0.000 C 
ATOM     12  O   UNL     1       1.193   3.821  17.433  0.00  0.00    +0.000 OA
BRANCH  11  14
ATOM     13  C   UNL     1       0.780   3.249  20.245  0.00  0.00    +0.000 C 
ATOM     14  O   UNL     1       1.375   4.403  19.642  0.00  0.00    +0.000 OA
ENDBRANCH  11  14
ENDBRANCH   1  11
BRANCH   2  15
ATOM     15  S   UNL     1       3.896   1.929  19.035  0.00  0.00    +0.000 S 
ATOM     16  C   UNL     1       4.581   1.757  20.709  0.00  0.00    +0.000 C 
ENDBRANCH   2  15
BRANCH  10  17
ATOM     17  O   UNL     1       2.707   6.760  17.554  0.00  0.00    +0.000 OA
BRANCH  17  18
ATOM     18  C   UNL     1       2.754   8.131  17.942  0.00  0.00    +0.000 C 
BRANCH  18  19
ATOM     19  C   UNL     1       1.818   8.404  19.104  0.00  0.00    +0.000 A 
ATOM     20  C   UNL     1       1.917   7.593  20.248  0.00  0.00    +0.000 A 
ATOM     21  C   UNL     1       1.198   7.891  21.405  0.00  0.00    +0.000 A 
ATOM     22  C   UNL     1       0.360   9.005  21.449  0.00  0.00    +0.000 A 
ATOM     23  C   UNL     1      -0.405   9.349  22.692  0.00  0.00    +0.000 C 
ATOM     24  C   UNL     1       0.246   9.815  20.313  0.00  0.00    +0.000 A 
ATOM     25  C   UNL     1       0.969   9.535  19.140  0.00  0.00    +0.000 A 
ATOM     26  C   UNL     1       0.851  10.486  17.978  0.00  0.00    +0.000 C 
ENDBRANCH  18  19
ENDBRANCH  17  18
ENDBRANCH  10  17
TORSDOF 6
ENDMDL
MODEL 7
REMARK VINA RESULT:      -6.9      1.854      4.073
REMARK  Name = 
REMARK  10 active torsions:
REMARK  status: ('A' for Active; 'I' for Inactive)
REMARK    1  A    between atoms: C_1  and  O_2
REMARK    2  A    between atoms: O_2  and  C_3
REMARK    3  A    between atoms: C_3  and  C_5
REMARK    4  A    between atoms: C_6  and  S_7
REMARK    5  A    between atoms: S_7  and  C_8
REMARK    6  A    between atoms: C_16  and  O_17
REMARK    7  A    between atoms: O_17  and  C_18
REMARK    8  A    between atoms: C_18  and  C_19
REMARK    9  A    between atoms: C_22  and  C_23
REMARK   10  A    between atoms: C_25  and  C_26
REMARK                            x       y       z     vdW  Elec       q    Type
REMARK                         _______ _______ _______ _____ _____    ______ ____
ROOT
ATOM      1  C   UNL     1       2.721   4.595  19.230  0.00  0.00    +0.000 A 
ATOM      2  C   UNL     1       2.961   3.407  18.539  0.00  0.00    +0.000 A 
ATOM      3  N   UNL     1       3.765   3.368  17.448  0.00  0.00    +0.000 NA
ATOM      4  C   UNL     1       4.322   4.487  16.986  0.00  0.00    +0.000 A 
ATOM      5  C   UNL     1       5.093   4.362  15.835  0.00  0.00    +0.000 A 
ATOM      6  C   UNL     1       5.695   5.456  15.219  0.00  0.00    +0.000 A 
ATOM      7  C   UNL     1       5.503   6.714  15.748  0.00  0.00    +0.000 A 
ATOM      8  C   UNL     1       4.716   6.862  16.891  0.00  0.00    +0.000 A 
ATOM      9  C   UNL     1       4.127   5.757  17.569  0.00  0.00    +0.000 A 
ATOM     10  C   UNL     1       3.335   5.785  18.762  0.00  0.00    +0.000 A 
ENDROOT
BRANCH   1  11
ATOM     11  C   UNL     1       1.898   4.577  20.461  0.00  0.00    +0.000 C 
ATOM     12  O   UNL     1       0.725   4.917  20.512  0.00  0.00    +0.000 OA
BRANCH  11  14
ATOM     13  C   UNL     1       2.159   2.912  22.117  0.00  0.00    +0.000 C 
ATOM     14  O   UNL     1       2.627   4.126  21.516  0.00  0.00    +0.000 OA
ENDBRANCH  11  14
ENDBRANCH   1  11
BRANCH   2  15
ATOM     15  S   UNL     1       2.183   1.836  18.943  0.00  0.00    +0.000 S 
ATOM     16  C   UNL     1       0.430   2.186  18.616  0.00  0.00    +0.000 C 
ENDBRANCH   2  15
BRANCH  10  17
ATOM     17  O   UNL     1       3.007   6.937  19.444  0.00  0.00    +0.000 OA
BRANCH  17  18
ATOM     18  C   UNL     1       2.169   7.913  18.832  0.00  0.00    +0.000 C 
BRANCH  18  19
ATOM     19  C   UNL     1       1.272   8.584  19.855  0.00  0.00    +0.000 A 
ATOM     20  C   UNL     1       1.453   8.270  21.212  0.00  0.00    +0.000 A 
ATOM     21  C   UNL     1       0.771   8.967  22.210  0.00  0.00    +0.000 A 
ATOM     22  C   UNL     1      -0.111   9.994  21.876  0.00  0.00    +0.000 A 
ATOM     23  C   UNL     1      -0.838  10.765  22.937  0.00  0.00    +0.000 C 
ATOM     24  C   UNL     1      -0.307  10.310  20.526  0.00  0.00    +0.000 A 
ATOM     25  C   UNL     1       0.377   9.623  19.508  0.00  0.00    +0.000 A 
ATOM     26  C   UNL     1       0.169  10.059  18.081  0.00  0.00    +0.000 C 
ENDBRANCH  18  19
ENDBRANCH  17  18
ENDBRANCH  10  17
TORSDOF 6
ENDMDL
MODEL 8
REMARK VINA RESULT:      -6.8      2.124      4.634
REMARK  Name = 
REMARK  10 active torsions:
REMARK  status: ('A' for Active; 'I' for Inactive)
REMARK    1  A    between atoms: C_1  and  O_2
REMARK    2  A    between atoms: O_2  and  C_3
REMARK    3  A    between atoms: C_3  and  C_5
REMARK    4  A    between atoms: C_6  and  S_7
REMARK    5  A    between atoms: S_7  and  C_8
REMARK    6  A    between atoms: C_16  and  O_17
REMARK    7  A    between atoms: O_17  and  C_18
REMARK    8  A    between atoms: C_18  and  C_19
REMARK    9  A    between atoms: C_22  and  C_23
REMARK   10  A    between atoms: C_25  and  C_26
REMARK                            x       y       z     vdW  Elec       q    Type
REMARK                         _______ _______ _______ _____ _____    ______ ____
ROOT
ATOM      1  C   UNL     1       3.397   4.554  19.455  0.00  0.00    +0.000 A 
ATOM      2  C   UNL     1       4.437   3.625  19.472  0.00  0.00    +0.000 A 
ATOM      3  N   UNL     1       5.665   3.922  18.980  0.00  0.00    +0.000 NA
ATOM      4  C   UNL     1       5.896   5.114  18.430  0.00  0.00    +0.000 A 
ATOM      5  C   UNL     1       7.170   5.315  17.909  0.00  0.00    +0.000 A 
ATOM      6  C   UNL     1       7.532   6.496  17.265  0.00  0.00    +0.000 A 
ATOM      7  C   UNL     1       6.594   7.494  17.114  0.00  0.00    +0.000 A 
ATOM      8  C   UNL     1       5.306   7.302  17.613  0.00  0.00    +0.000 A 
ATOM      9  C   UNL     1       4.919   6.126  18.316  0.00  0.00    +0.000 A 
ATOM     10  C   UNL     1       3.644   5.835  18.899  0.00  0.00    +0.000 A 
ENDROOT
BRANCH   1  11
ATOM     11  C   UNL     1       2.095   4.212  20.073  0.00  0.00    +0.000 C 
ATOM     12  O   UNL     1       1.882   4.211  21.277  0.00  0.00    +0.000 OA
BRANCH  11  14
ATOM     13  C   UNL     1       0.625   2.589  19.188  0.00  0.00    +0.000 C 
ATOM     14  O   UNL     1       1.177   3.909  19.118  0.00  0.00    +0.000 OA
ENDBRANCH  11  14
ENDBRANCH   1  11
BRANCH   2  15
ATOM     15  S   UNL     1       4.260   1.930  20.050  0.00  0.00    +0.000 S 
ATOM     16  C   UNL     1       3.820   1.053  18.521  0.00  0.00    +0.000 C 
ENDBRANCH   2  15
BRANCH  10  17
ATOM     17  O   UNL     1       2.561   6.686  18.850  0.00  0.00    +0.000 OA
BRANCH  17  18
ATOM     18  C   UNL     1       2.212   7.462  19.993  0.00  0.00    +0.000 C 
BRANCH  18  19
ATOM     19  C   UNL     1       1.365   8.659  19.607  0.00  0.00    +0.000 A 
ATOM     20  C   UNL     1       1.266   8.997  18.246  0.00  0.00    +0.000 A 
ATOM     21  C   UNL     1       0.382   9.985  17.812  0.00  0.00    +0.000 A 
ATOM     22  C   UNL     1      -0.426  10.661  18.727  0.00  0.00    +0.000 A 
ATOM     23  C   UNL     1      -1.395  11.712  18.274  0.00  0.00    +0.000 C 
ATOM     24  C   UNL     1      -0.329  10.339  20.086  0.00  0.00    +0.000 A 
ATOM     25  C   UNL     1       0.551   9.342  20.541  0.00  0.00    +0.000 A 
ATOM     26  C   UNL     1       0.555   9.000  22.008  0.00  0.00    +0.000 C 
ENDBRANCH  18  19
ENDBRANCH  17  18
ENDBRANCH  10  17
TORSDOF 6
ENDMDL
MODEL 9
REMARK VINA RESULT:      -6.8      2.739      5.814
REMARK  Name = 
REMARK  10 active torsions:
REMARK  status: ('A' for Active; 'I' for Inactive)
REMARK    1  A    between atoms: C_1  and  O_2
REMARK    2  A    between atoms: O_2  and  C_3
REMARK    3  A    between atoms: C_3  and  C_5
REMARK    4  A    between atoms: C_6  and  S_7
REMARK    5  A    between atoms: S_7  and  C_8
REMARK    6  A    between atoms: C_16  and  O_17
REMARK    7  A    between atoms: O_17  and  C_18
REMARK    8  A    between atoms: C_18  and  C_19
REMARK    9  A    between atoms: C_22  and  C_23
REMARK   10  A    between atoms: C_25  and  C_26
REMARK                            x       y       z     vdW  Elec       q    Type
REMARK                         _______ _______ _______ _____ _____    ______ ____
ROOT
ATOM      1  C   UNL     1       5.509   5.566  17.313  0.00  0.00    +0.000 A 
ATOM      2  C   UNL     1       6.796   6.033  17.051  0.00  0.00    +0.000 A 
ATOM      3  N   UNL     1       7.403   5.816  15.858  0.00  0.00    +0.000 NA
ATOM      4  C   UNL     1       6.786   5.110  14.911  0.00  0.00    +0.000 A 
ATOM      5  C   UNL     1       7.501   4.896  13.737  0.00  0.00    +0.000 A 
ATOM      6  C   UNL     1       6.995   4.138  12.685  0.00  0.00    +0.000 A 
ATOM      7  C   UNL     1       5.753   3.555  12.814  0.00  0.00    +0.000 A 
ATOM      8  C   UNL     1       5.029   3.742  13.992  0.00  0.00    +0.000 A 
ATOM      9  C   UNL     1       5.500   4.550  15.065  0.00  0.00    +0.000 A 
ATOM     10  C   UNL     1       4.833   4.840  16.299  0.00  0.00    +0.000 A 
ENDROOT
BRANCH   1  11
ATOM     11  C   UNL     1       4.856   5.893  18.601  0.00  0.00    +0.000 C 
ATOM     12  O   UNL     1       5.173   5.409  19.678  0.00  0.00    +0.000 OA
BRANCH  11  14
ATOM     13  C   UNL     1       2.726   6.662  19.274  0.00  0.00    +0.000 C 
ATOM     14  O   UNL     1       3.865   6.805  18.418  0.00  0.00    +0.000 OA
ENDBRANCH  11  14
ENDBRANCH   1  11
BRANCH   2  15
ATOM     15  S   UNL     1       7.823   6.882  18.261  0.00  0.00    +0.000 S 
ATOM     16  C   UNL     1       7.792   8.593  17.650  0.00  0.00    +0.000 C 
ENDBRANCH   2  15
BRANCH  10  17
ATOM     17  O   UNL     1       3.592   4.347  16.640  0.00  0.00    +0.000 OA
BRANCH  17  18
ATOM     18  C   UNL     1       3.465   3.015  17.128  0.00  0.00    +0.000 C 
BRANCH  18  19
ATOM     19  C   UNL     1       2.883   2.997  18.529  0.00  0.00    +0.000 A 
ATOM     20  C   UNL     1       1.532   3.347  18.696  0.00  0.00    +0.000 A 
ATOM     21  C   UNL     1       0.898   3.199  19.930  0.00  0.00    +0.000 A 
ATOM     22  C   UNL     1       1.598   2.699  21.028  0.00  0.00    +0.000 A 
ATOM     23  C   UNL     1       0.925   2.517  22.356  0.00  0.00    +0.000 C 
ATOM     24  C   UNL     1       2.947   2.357  20.876  0.00  0.00    +0.000 A 
ATOM     25  C   UNL     1       3.601   2.492  19.638  0.00  0.00    +0.000 A 
ATOM     26  C   UNL     1       5.034   2.042  19.529  0.00  0.00    +0.000 C 
ENDBRANCH  18  19
ENDBRANCH  17  18
ENDBRANCH  10  17
TORSDOF 6
ENDMDL
