MODEL 1
REMARK VINA RESULT:      -7.5      0.000      0.000
REMARK  Name = 
REMARK  7 active torsions:
REMARK  status: ('A' for Active; 'I' for Inactive)
REMARK    1  A    between atoms: N_4  and  C_5
REMARK    2  A    between atoms: C_5  and  C_6
REMARK    3  A    between atoms: C_6  and  N_7
REMARK    4  A    between atoms: N_15  and  C_16
REMARK    5  A    between atoms: C_16  and  C_17
REMARK    6  A    between atoms: C_21  and  O_22
REMARK    7  A    between atoms: O_22  and  C_23
REMARK                            x       y       z     vdW  Elec       q    Type
REMARK                         _______ _______ _______ _____ _____    ______ ____
ROOT
ATOM      1  O   UNL     1       1.017  10.595  21.172  0.00  0.00    +0.000 OA
ATOM      2  S   UNL     1       0.472   9.347  20.676  0.00  0.00    +0.000 S 
ATOM      3  O   UNL     1      -0.520   8.591  21.402  0.00  0.00    +0.000 OA
ATOM      4  N   UNL     1       1.765   8.366  20.191  0.00  0.00    +0.000 NA
ATOM      5  C   UNL     1       2.004   8.526  18.740  0.00  0.00    +0.000 C 
ATOM      6  C   UNL     1       1.121   9.667  18.238  0.00  0.00    +0.000 C 
ATOM      7  N   UNL     1      -0.100   9.644  19.078  0.00  0.00    +0.000 NA
ENDROOT
BRANCH   4   8
ATOM      8  C   UNL     1       1.728   6.954  20.647  0.00  0.00    +0.000 C 
BRANCH   8   9
ATOM      9  C   UNL     1       2.530   5.991  19.727  0.00  0.00    +0.000 C 
BRANCH   9  10
ATOM     10  N   UNL     1       1.850   4.745  19.309  0.00  0.00    +0.000 NA
ATOM     11  C   UNL     1       2.790   3.738  18.772  0.00  0.00    +0.000 C 
ATOM     12  C   UNL     1       3.766   3.173  19.831  0.00  0.00    +0.000 C 
ATOM     13  N   UNL     1       3.087   2.617  21.011  0.00  0.00    +0.000 NA
ATOM     14  C   UNL     1       2.069   3.538  21.537  0.00  0.00    +0.000 C 
ATOM     15  C   UNL     1       1.136   4.120  20.447  0.00  0.00    +0.000 C 
ATOM     16  H   UNL     1       3.774   2.418  21.736  0.00  0.00    +0.000 HD
ENDBRANCH   9  10
ENDBRANCH   8   9
ENDBRANCH   4   8
BRANCH   7  17
ATOM     17  C   UNL     1      -0.946  10.869  19.014  0.00  0.00    +0.000 C 
BRANCH  17  18
ATOM     18  C   UNL     1      -2.131  10.866  18.056  0.00  0.00    +0.000 A 
ATOM     19  C   UNL     1      -2.093  10.310  16.768  0.00  0.00    +0.000 A 
ATOM     20  C   UNL     1      -3.192  10.354  15.912  0.00  0.00    +0.000 A 
ATOM     21  C   UNL     1      -4.339  11.033  16.291  0.00  0.00    +0.000 A 
ATOM     22  C   UNL     1      -4.380  11.676  17.526  0.00  0.00    +0.000 A 
ATOM     23  C   UNL     1      -3.300  11.563  18.416  0.00  0.00    +0.000 A 
BRANCH  22  24
ATOM     24  O   UNL     1      -5.544  12.352  17.802  0.00  0.00    +0.000 OA
BRANCH  24  25
ATOM     25  C   UNL     1      -6.149  12.187  19.026  0.00  0.00    +0.000 A 
ATOM     26  C   UNL     1      -6.051  13.095  20.084  0.00  0.00    +0.000 A 
ATOM     27  C   UNL     1      -6.691  12.822  21.294  0.00  0.00    +0.000 A 
ATOM     28  C   UNL     1      -7.466  11.671  21.430  0.00  0.00    +0.000 A 
ATOM     29  C   UNL     1      -7.612  10.796  20.354  0.00  0.00    +0.000 A 
ATOM     30  C   UNL     1      -6.956  11.056  19.151  0.00  0.00    +0.000 A 
ENDBRANCH  24  25
ENDBRANCH  22  24
ENDBRANCH  17  18
ENDBRANCH   7  17
TORSDOF 7
ENDMDL
MODEL 2
REMARK VINA RESULT:      -7.5      5.681      9.274
REMARK  Name = 
REMARK  7 active torsions:
REMARK  status: ('A' for Active; 'I' for Inactive)
REMARK    1  A    between atoms: N_4  and  C_5
REMARK    2  A    between atoms: C_5  and  C_6
REMARK    3  A    between atoms: C_6  and  N_7
REMARK    4  A    between atoms: N_15  and  C_16
REMARK    5  A    between atoms: C_16  and  C_17
REMARK    6  A    between atoms: C_21  and  O_22
REMARK    7  A    between atoms: O_22  and  C_23
REMARK                            x       y       z     vdW  Elec       q    Type
REMARK                         _______ _______ _______ _____ _____    ______ ____
ROOT
ATOM      1  O   UNL     1       7.379   5.696  16.023  0.00  0.00    +0.000 OA
ATOM      2  S   UNL     1       6.771   6.639  16.940  0.00  0.00    +0.000 S 
ATOM      3  O   UNL     1       5.646   7.465  16.572  0.00  0.00    +0.000 OA
ATOM      4  N   UNL     1       8.008   7.557  17.646  0.00  0.00    +0.000 NA
ATOM      5  C   UNL     1       8.401   6.962  18.942  0.00  0.00    +0.000 C 
ATOM      6  C   UNL     1       7.682   5.622  19.086  0.00  0.00    +0.000 C 
ATOM      7  N   UNL     1       6.389   5.770  18.379  0.00  0.00    +0.000 NA
ENDROOT
BRANCH   4   8
ATOM      8  C   UNL     1       7.795   9.025  17.693  0.00  0.00    +0.000 C 
BRANCH   8   9
ATOM      9  C   UNL     1       8.987   9.798  18.323  0.00  0.00    +0.000 C 
BRANCH   9  10
ATOM     10  N   UNL     1       8.701  11.147  18.859  0.00  0.00    +0.000 NA
ATOM     11  C   UNL     1       9.466  11.443  20.089  0.00  0.00    +0.000 C 
ATOM     12  C   UNL     1      10.991  11.559  19.859  0.00  0.00    +0.000 C 
ATOM     13  N   UNL     1      11.351  12.537  18.821  0.00  0.00    +0.000 NA
ATOM     14  C   UNL     1      10.553  12.353  17.601  0.00  0.00    +0.000 C 
ATOM     15  C   UNL     1       9.036  12.196  17.868  0.00  0.00    +0.000 C 
ATOM     16  H   UNL     1      12.341  12.449  18.599  0.00  0.00    +0.000 HD
ENDBRANCH   9  10
ENDBRANCH   8   9
ENDBRANCH   4   8
BRANCH   7  17
ATOM     17  C   UNL     1       5.671   4.499  18.079  0.00  0.00    +0.000 C 
BRANCH  17  18
ATOM     18  C   UNL     1       4.222   4.376  18.535  0.00  0.00    +0.000 A 
ATOM     19  C   UNL     1       3.298   3.482  17.973  0.00  0.00    +0.000 A 
ATOM     20  C   UNL     1       1.973   3.421  18.400  0.00  0.00    +0.000 A 
ATOM     21  C   UNL     1       1.511   4.317  19.351  0.00  0.00    +0.000 A 
ATOM     22  C   UNL     1       2.375   5.281  19.865  0.00  0.00    +0.000 A 
ATOM     23  C   UNL     1       3.728   5.286  19.489  0.00  0.00    +0.000 A 
BRANCH  22  24
ATOM     24  O   UNL     1       1.821   6.147  20.776  0.00  0.00    +0.000 OA
BRANCH  24  25
ATOM     25  C   UNL     1       1.515   7.431  20.391  0.00  0.00    +0.000 A 
ATOM     26  C   UNL     1       0.854   8.361  21.199  0.00  0.00    +0.000 A 
ATOM     27  C   UNL     1       0.573   9.635  20.704  0.00  0.00    +0.000 A 
ATOM     28  C   UNL     1       0.994   9.995  19.424  0.00  0.00    +0.000 A 
ATOM     29  C   UNL     1       1.706   9.086  18.641  0.00  0.00    +0.000 A 
ATOM     30  C   UNL     1       1.968   7.806  19.126  0.00  0.00    +0.000 A 
ENDBRANCH  24  25
ENDBRANCH  22  24
ENDBRANCH  17  18
ENDBRANCH   7  17
TORSDOF 7
ENDMDL
MODEL 3
REMARK VINA RESULT:      -7.5      3.263      9.921
REMARK  Name = 
REMARK  7 active torsions:
REMARK  status: ('A' for Active; 'I' for Inactive)
REMARK    1  A    between atoms: N_4  and  C_5
REMARK    2  A    between atoms: C_5  and  C_6
REMARK    3  A    between atoms: C_6  and  N_7
REMARK    4  A    between atoms: N_15  and  C_16
REMARK    5  A    between atoms: C_16  and  C_17
REMARK    6  A    between atoms: C_21  and  O_22
REMARK    7  A    between atoms: O_22  and  C_23
REMARK                            x       y       z     vdW  Elec       q    Type
REMARK                         _______ _______ _______ _____ _____    ______ ____
ROOT
ATOM      1  O   UNL     1      -0.413   8.271  21.371  0.00  0.00    +0.000 OA
ATOM      2  S   UNL     1       0.842   8.993  21.313  0.00  0.00    +0.000 S 
ATOM      3  O   UNL     1       1.565   9.389  22.497  0.00  0.00    +0.000 OA
ATOM      4  N   UNL     1       0.652  10.290  20.241  0.00  0.00    +0.000 NA
ATOM      5  C   UNL     1       1.122   9.904  18.892  0.00  0.00    +0.000 C 
ATOM      6  C   UNL     1       1.429   8.408  18.908  0.00  0.00    +0.000 C 
ATOM      7  N   UNL     1       1.892   8.097  20.281  0.00  0.00    +0.000 NA
ENDROOT
BRANCH   4   8
ATOM      8  C   UNL     1       1.157  11.607  20.703  0.00  0.00    +0.000 C 
BRANCH   8   9
ATOM      9  C   UNL     1       0.031  12.552  21.212  0.00  0.00    +0.000 C 
BRANCH   9  10
ATOM     10  N   UNL     1      -0.423  13.611  20.284  0.00  0.00    +0.000 NA
ATOM     11  C   UNL     1      -0.842  13.073  18.971  0.00  0.00    +0.000 C 
ATOM     12  C   UNL     1      -2.117  12.201  19.035  0.00  0.00    +0.000 C 
ATOM     13  N   UNL     1      -3.259  12.884  19.662  0.00  0.00    +0.000 NA
ATOM     14  C   UNL     1      -2.882  13.522  20.931  0.00  0.00    +0.000 C 
ATOM     15  C   UNL     1      -1.577  14.351  20.845  0.00  0.00    +0.000 C 
ATOM     16  H   UNL     1      -4.008  12.213  19.826  0.00  0.00    +0.000 HD
ENDBRANCH   9  10
ENDBRANCH   8   9
ENDBRANCH   4   8
BRANCH   7  17
ATOM     17  C   UNL     1       1.915   6.650  20.640  0.00  0.00    +0.000 C 
BRANCH  17  18
ATOM     18  C   UNL     1       2.220   5.648  19.533  0.00  0.00    +0.000 A 
ATOM     19  C   UNL     1       1.452   4.501  19.284  0.00  0.00    +0.000 A 
ATOM     20  C   UNL     1       1.782   3.593  18.279  0.00  0.00    +0.000 A 
ATOM     21  C   UNL     1       2.945   3.766  17.546  0.00  0.00    +0.000 A 
ATOM     22  C   UNL     1       3.782   4.844  17.827  0.00  0.00    +0.000 A 
ATOM     23  C   UNL     1       3.404   5.797  18.786  0.00  0.00    +0.000 A 
BRANCH  22  24
ATOM     24  O   UNL     1       4.928   4.916  17.074  0.00  0.00    +0.000 OA
BRANCH  24  25
ATOM     25  C   UNL     1       5.985   5.674  17.519  0.00  0.00    +0.000 A 
ATOM     26  C   UNL     1       6.325   6.931  17.010  0.00  0.00    +0.000 A 
ATOM     27  C   UNL     1       7.432   7.610  17.521  0.00  0.00    +0.000 A 
ATOM     28  C   UNL     1       8.168   7.058  18.569  0.00  0.00    +0.000 A 
ATOM     29  C   UNL     1       7.792   5.831  19.116  0.00  0.00    +0.000 A 
ATOM     30  C   UNL     1       6.700   5.141  18.592  0.00  0.00    +0.000 A 
ENDBRANCH  24  25
ENDBRANCH  22  24
ENDBRANCH  17  18
ENDBRANCH   7  17
TORSDOF 7
ENDMDL
MODEL 4
REMARK VINA RESULT:      -7.4      0.917      1.746
REMARK  Name = 
REMARK  7 active torsions:
REMARK  status: ('A' for Active; 'I' for Inactive)
REMARK    1  A    between atoms: N_4  and  C_5
REMARK    2  A    between atoms: C_5  and  C_6
REMARK    3  A    between atoms: C_6  and  N_7
REMARK    4  A    between atoms: N_15  and  C_16
REMARK    5  A    between atoms: C_16  and  C_17
REMARK    6  A    between atoms: C_21  and  O_22
REMARK    7  A    between atoms: O_22  and  C_23
REMARK                            x       y       z     vdW  Elec       q    Type
REMARK                         _______ _______ _______ _____ _____    ______ ____
ROOT
ATOM      1  O   UNL     1       1.438  10.107  21.115  0.00  0.00    +0.000 OA
ATOM      2  S   UNL     1       0.812   8.928  20.551  0.00  0.00    +0.000 S 
ATOM      3  O   UNL     1      -0.220   8.193  21.242  0.00  0.00    +0.000 OA
ATOM      4  N   UNL     1       2.038   7.900  19.993  0.00  0.00    +0.000 NA
ATOM      5  C   UNL     1       2.275   8.133  18.551  0.00  0.00    +0.000 C 
ATOM      6  C   UNL     1       1.462   9.355  18.130  0.00  0.00    +0.000 C 
ATOM      7  N   UNL     1       0.249   9.357  18.980  0.00  0.00    +0.000 NA
ENDROOT
BRANCH   4   8
ATOM      8  C   UNL     1       1.916   6.468  20.364  0.00  0.00    +0.000 C 
BRANCH   8   9
ATOM      9  C   UNL     1       3.031   5.577  19.746  0.00  0.00    +0.000 C 
BRANCH   9  10
ATOM     10  N   UNL     1       2.910   4.117  19.950  0.00  0.00    +0.000 NA
ATOM     11  C   UNL     1       1.583   3.597  19.554  0.00  0.00    +0.000 C 
ATOM     12  C   UNL     1       1.310   3.684  18.035  0.00  0.00    +0.000 C 
ATOM     13  N   UNL     1       2.345   3.032  17.218  0.00  0.00    +0.000 NA
ATOM     14  C   UNL     1       3.697   3.439  17.628  0.00  0.00    +0.000 C 
ATOM     15  C   UNL     1       3.924   3.383  19.159  0.00  0.00    +0.000 C 
ATOM     16  H   UNL     1       2.201   3.265  16.237  0.00  0.00    +0.000 HD
ENDBRANCH   9  10
ENDBRANCH   8   9
ENDBRANCH   4   8
BRANCH   7  17
ATOM     17  C   UNL     1      -0.520  10.634  19.000  0.00  0.00    +0.000 C 
BRANCH  17  18
ATOM     18  C   UNL     1      -1.816  10.696  18.202  0.00  0.00    +0.000 A 
ATOM     19  C   UNL     1      -1.962  10.181  16.905  0.00  0.00    +0.000 A 
ATOM     20  C   UNL     1      -3.158  10.283  16.198  0.00  0.00    +0.000 A 
ATOM     21  C   UNL     1      -4.224  10.984  16.740  0.00  0.00    +0.000 A 
ATOM     22  C   UNL     1      -4.087  11.589  17.987  0.00  0.00    +0.000 A 
ATOM     23  C   UNL     1      -2.907  11.415  18.728  0.00  0.00    +0.000 A 
BRANCH  22  24
ATOM     24  O   UNL     1      -5.182  12.290  18.429  0.00  0.00    +0.000 OA
BRANCH  24  25
ATOM     25  C   UNL     1      -6.085  11.679  19.267  0.00  0.00    +0.000 A 
ATOM     26  C   UNL     1      -6.530  10.362  19.123  0.00  0.00    +0.000 A 
ATOM     27  C   UNL     1      -7.465   9.843  20.020  0.00  0.00    +0.000 A 
ATOM     28  C   UNL     1      -7.916  10.621  21.086  0.00  0.00    +0.000 A 
ATOM     29  C   UNL     1      -7.426  11.915  21.264  0.00  0.00    +0.000 A 
ATOM     30  C   UNL     1      -6.509  12.442  20.356  0.00  0.00    +0.000 A 
ENDBRANCH  24  25
ENDBRANCH  22  24
ENDBRANCH  17  18
ENDBRANCH   7  17
TORSDOF 7
ENDMDL
MODEL 5
REMARK VINA RESULT:      -7.3      3.568     10.013
REMARK  Name = 
REMARK  7 active torsions:
REMARK  status: ('A' for Active; 'I' for Inactive)
REMARK    1  A    between atoms: N_4  and  C_5
REMARK    2  A    between atoms: C_5  and  C_6
REMARK    3  A    between atoms: C_6  and  N_7
REMARK    4  A    between atoms: N_15  and  C_16
REMARK    5  A    between atoms: C_16  and  C_17
REMARK    6  A    between atoms: C_21  and  O_22
REMARK    7  A    between atoms: O_22  and  C_23
REMARK                            x       y       z     vdW  Elec       q    Type
REMARK                         _______ _______ _______ _____ _____    ______ ____
ROOT
ATOM      1  O   UNL     1      -0.340   8.242  21.399  0.00  0.00    +0.000 OA
ATOM      2  S   UNL     1       0.892   8.999  21.305  0.00  0.00    +0.000 S 
ATOM      3  O   UNL     1       1.649   9.396  22.468  0.00  0.00    +0.000 OA
ATOM      4  N   UNL     1       0.625  10.308  20.263  0.00  0.00    +0.000 NA
ATOM      5  C   UNL     1       1.052   9.956  18.891  0.00  0.00    +0.000 C 
ATOM      6  C   UNL     1       1.401   8.469  18.870  0.00  0.00    +0.000 C 
ATOM      7  N   UNL     1       1.926   8.150  20.219  0.00  0.00    +0.000 NA
ENDROOT
BRANCH   4   8
ATOM      8  C   UNL     1       1.111  11.631  20.729  0.00  0.00    +0.000 C 
BRANCH   8   9
ATOM      9  C   UNL     1       0.010  12.477  21.429  0.00  0.00    +0.000 C 
BRANCH   9  10
ATOM     10  N   UNL     1      -1.349  11.895  21.482  0.00  0.00    +0.000 NA
ATOM     11  C   UNL     1      -1.921  11.913  22.845  0.00  0.00    +0.000 C 
ATOM     12  C   UNL     1      -2.213  13.335  23.377  0.00  0.00    +0.000 C 
ATOM     13  N   UNL     1      -3.073  14.126  22.484  0.00  0.00    +0.000 NA
ATOM     14  C   UNL     1      -2.607  14.070  21.091  0.00  0.00    +0.000 C 
ATOM     15  C   UNL     1      -2.281  12.637  20.602  0.00  0.00    +0.000 C 
ATOM     16  H   UNL     1      -3.091  15.094  22.799  0.00  0.00    +0.000 HD
ENDBRANCH   9  10
ENDBRANCH   8   9
ENDBRANCH   4   8
BRANCH   7  17
ATOM     17  C   UNL     1       2.001   6.699  20.551  0.00  0.00    +0.000 C 
BRANCH  17  18
ATOM     18  C   UNL     1       2.302   5.724  19.419  0.00  0.00    +0.000 A 
ATOM     19  C   UNL     1       1.399   4.751  18.965  0.00  0.00    +0.000 A 
ATOM     20  C   UNL     1       1.724   3.859  17.944  0.00  0.00    +0.000 A 
ATOM     21  C   UNL     1       3.000   3.862  17.403  0.00  0.00    +0.000 A 
ATOM     22  C   UNL     1       3.952   4.753  17.892  0.00  0.00    +0.000 A 
ATOM     23  C   UNL     1       3.596   5.701  18.865  0.00  0.00    +0.000 A 
BRANCH  22  24
ATOM     24  O   UNL     1       5.198   4.662  17.320  0.00  0.00    +0.000 OA
BRANCH  24  25
ATOM     25  C   UNL     1       6.192   5.523  17.719  0.00  0.00    +0.000 A 
ATOM     26  C   UNL     1       7.100   5.258  18.749  0.00  0.00    +0.000 A 
ATOM     27  C   UNL     1       8.062   6.211  19.089  0.00  0.00    +0.000 A 
ATOM     28  C   UNL     1       8.148   7.403  18.370  0.00  0.00    +0.000 A 
ATOM     29  C   UNL     1       7.280   7.640  17.304  0.00  0.00    +0.000 A 
ATOM     30  C   UNL     1       6.305   6.699  16.978  0.00  0.00    +0.000 A 
ENDBRANCH  24  25
ENDBRANCH  22  24
ENDBRANCH  17  18
ENDBRANCH   7  17
TORSDOF 7
ENDMDL
MODEL 6
REMARK VINA RESULT:      -7.3      3.153      5.698
REMARK  Name = 
REMARK  7 active torsions:
REMARK  status: ('A' for Active; 'I' for Inactive)
REMARK    1  A    between atoms: N_4  and  C_5
REMARK    2  A    between atoms: C_5  and  C_6
REMARK    3  A    between atoms: C_6  and  N_7
REMARK    4  A    between atoms: N_15  and  C_16
REMARK    5  A    between atoms: C_16  and  C_17
REMARK    6  A    between atoms: C_21  and  O_22
REMARK    7  A    between atoms: O_22  and  C_23
REMARK                            x       y       z     vdW  Elec       q    Type
REMARK                         _______ _______ _______ _____ _____    ______ ____
ROOT
ATOM      1  O   UNL     1       0.856   3.684  19.690  0.00  0.00    +0.000 OA
ATOM      2  S   UNL     1       1.885   4.126  18.771  0.00  0.00    +0.000 S 
ATOM      3  O   UNL     1       1.584   4.628  17.452  0.00  0.00    +0.000 OA
ATOM      4  N   UNL     1       3.090   2.936  18.720  0.00  0.00    +0.000 NA
ATOM      5  C   UNL     1       4.173   3.273  19.671  0.00  0.00    +0.000 C 
ATOM      6  C   UNL     1       3.720   4.474  20.497  0.00  0.00    +0.000 C 
ATOM      7  N   UNL     1       2.850   5.282  19.610  0.00  0.00    +0.000 NA
ENDROOT
BRANCH   4   8
ATOM      8  C   UNL     1       3.569   2.540  17.372  0.00  0.00    +0.000 C 
BRANCH   8   9
ATOM      9  C   UNL     1       4.838   3.315  16.919  0.00  0.00    +0.000 C 
BRANCH   9  10
ATOM     10  N   UNL     1       4.627   4.503  16.063  0.00  0.00    +0.000 NA
ATOM     11  C   UNL     1       4.938   5.768  16.761  0.00  0.00    +0.000 C 
ATOM     12  C   UNL     1       6.438   5.939  17.098  0.00  0.00    +0.000 C 
ATOM     13  N   UNL     1       7.317   5.806  15.927  0.00  0.00    +0.000 NA
ATOM     14  C   UNL     1       6.993   4.611  15.136  0.00  0.00    +0.000 C 
ATOM     15  C   UNL     1       5.480   4.445  14.853  0.00  0.00    +0.000 C 
ATOM     16  H   UNL     1       8.287   5.761  16.233  0.00  0.00    +0.000 HD
ENDBRANCH   9  10
ENDBRANCH   8   9
ENDBRANCH   4   8
BRANCH   7  17
ATOM     17  C   UNL     1       2.011   6.308  20.292  0.00  0.00    +0.000 C 
BRANCH  17  18
ATOM     18  C   UNL     1       1.806   7.642  19.586  0.00  0.00    +0.000 A 
ATOM     19  C   UNL     1       2.416   7.985  18.370  0.00  0.00    +0.000 A 
ATOM     20  C   UNL     1       2.224   9.229  17.771  0.00  0.00    +0.000 A 
ATOM     21  C   UNL     1       1.477  10.201  18.418  0.00  0.00    +0.000 A 
ATOM     22  C   UNL     1       0.932   9.928  19.671  0.00  0.00    +0.000 A 
ATOM     23  C   UNL     1       1.063   8.648  20.233  0.00  0.00    +0.000 A 
BRANCH  22  24
ATOM     24  O   UNL     1       0.237  10.961  20.251  0.00  0.00    +0.000 OA
BRANCH  24  25
ATOM     25  C   UNL     1      -1.028  11.263  19.805  0.00  0.00    +0.000 A 
ATOM     26  C   UNL     1      -1.841  12.260  20.352  0.00  0.00    +0.000 A 
ATOM     27  C   UNL     1      -3.120  12.473  19.836  0.00  0.00    +0.000 A 
ATOM     28  C   UNL     1      -3.566  11.727  18.745  0.00  0.00    +0.000 A 
ATOM     29  C   UNL     1      -2.731  10.775  18.161  0.00  0.00    +0.000 A 
ATOM     30  C   UNL     1      -1.461  10.545  18.690  0.00  0.00    +0.000 A 
ENDBRANCH  24  25
ENDBRANCH  22  24
ENDBRANCH  17  18
ENDBRANCH   7  17
TORSDOF 7
ENDMDL
MODEL 7
REMARK VINA RESULT:      -7.1      3.996      6.346
REMARK  Name = 
REMARK  7 active torsions:
REMARK  status: ('A' for Active; 'I' for Inactive)
REMARK    1  A    between atoms: N_4  and  C_5
REMARK    2  A    between atoms: C_5  and  C_6
REMARK    3  A    between atoms: C_6  and  N_7
REMARK    4  A    between atoms: N_15  and  C_16
REMARK    5  A    between atoms: C_16  and  C_17
REMARK    6  A    between atoms: C_21  and  O_22
REMARK    7  A    between atoms: O_22  and  C_23
REMARK                            x       y       z     vdW  Elec       q    Type
REMARK                         _______ _______ _______ _____ _____    ______ ____
ROOT
ATOM      1  O   UNL     1       1.558  11.599  19.280  0.00  0.00    +0.000 OA
ATOM      2  S   UNL     1       0.343  12.224  19.764  0.00  0.00    +0.000 S 
ATOM      3  O   UNL     1      -0.258  13.362  19.111  0.00  0.00    +0.000 OA
ATOM      4  N   UNL     1       0.515  12.485  21.429  0.00  0.00    +0.000 NA
ATOM      5  C   UNL     1      -0.083  11.360  22.181  0.00  0.00    +0.000 C 
ATOM      6  C   UNL     1      -0.470  10.274  21.180  0.00  0.00    +0.000 C 
ATOM      7  N   UNL     1      -0.835  10.977  19.928  0.00  0.00    +0.000 NA
ENDROOT
BRANCH   4   8
ATOM      8  C   UNL     1       0.123  13.826  21.930  0.00  0.00    +0.000 C 
BRANCH   8   9
ATOM      9  C   UNL     1      -0.987  13.775  23.017  0.00  0.00    +0.000 C 
BRANCH   9  10
ATOM     10  N   UNL     1      -2.348  14.185  22.603  0.00  0.00    +0.000 NA
ATOM     11  C   UNL     1      -3.289  13.047  22.540  0.00  0.00    +0.000 C 
ATOM     12  C   UNL     1      -3.601  12.422  23.919  0.00  0.00    +0.000 C 
ATOM     13  N   UNL     1      -4.092  13.397  24.904  0.00  0.00    +0.000 NA
ATOM     14  C   UNL     1      -3.246  14.599  24.946  0.00  0.00    +0.000 C 
ATOM     15  C   UNL     1      -2.915  15.175  23.547  0.00  0.00    +0.000 C 
ATOM     16  H   UNL     1      -4.118  12.966  25.826  0.00  0.00    +0.000 HD
ENDBRANCH   9  10
ENDBRANCH   8   9
ENDBRANCH   4   8
BRANCH   7  17
ATOM     17  C   UNL     1      -0.907  10.123  18.709  0.00  0.00    +0.000 C 
BRANCH  17  18
ATOM     18  C   UNL     1      -2.066  10.354  17.746  0.00  0.00    +0.000 A 
ATOM     19  C   UNL     1      -2.067   9.932  16.408  0.00  0.00    +0.000 A 
ATOM     20  C   UNL     1      -3.136  10.188  15.552  0.00  0.00    +0.000 A 
ATOM     21  C   UNL     1      -4.205  10.953  15.991  0.00  0.00    +0.000 A 
ATOM     22  C   UNL     1      -4.198  11.468  17.285  0.00  0.00    +0.000 A 
ATOM     23  C   UNL     1      -3.155  11.141  18.167  0.00  0.00    +0.000 A 
BRANCH  22  24
ATOM     24  O   UNL     1      -5.282  12.241  17.621  0.00  0.00    +0.000 OA
BRANCH  24  25
ATOM     25  C   UNL     1      -6.005  11.941  18.751  0.00  0.00    +0.000 A 
ATOM     26  C   UNL     1      -6.735  10.763  18.931  0.00  0.00    +0.000 A 
ATOM     27  C   UNL     1      -7.452  10.564  20.112  0.00  0.00    +0.000 A 
ATOM     28  C   UNL     1      -7.400  11.517  21.129  0.00  0.00    +0.000 A 
ATOM     29  C   UNL     1      -6.623  12.664  20.973  0.00  0.00    +0.000 A 
ATOM     30  C   UNL     1      -5.924  12.875  19.785  0.00  0.00    +0.000 A 
ENDBRANCH  24  25
ENDBRANCH  22  24
ENDBRANCH  17  18
ENDBRANCH   7  17
TORSDOF 7
ENDMDL
MODEL 8
REMARK VINA RESULT:      -7.1      4.334      6.534
REMARK  Name = 
REMARK  7 active torsions:
REMARK  status: ('A' for Active; 'I' for Inactive)
REMARK    1  A    between atoms: N_4  and  C_5
REMARK    2  A    between atoms: C_5  and  C_6
REMARK    3  A    between atoms: C_6  and  N_7
REMARK    4  A    between atoms: N_15  and  C_16
REMARK    5  A    between atoms: C_16  and  C_17
REMARK    6  A    between atoms: C_21  and  O_22
REMARK    7  A    between atoms: O_22  and  C_23
REMARK                            x       y       z     vdW  Elec       q    Type
REMARK                         _______ _______ _______ _____ _____    ______ ____
ROOT
ATOM      1  O   UNL     1       1.318  12.440  20.073  0.00  0.00    +0.000 OA
ATOM      2  S   UNL     1      -0.023  12.904  20.369  0.00  0.00    +0.000 S 
ATOM      3  O   UNL     1      -0.645  13.989  19.651  0.00  0.00    +0.000 OA
ATOM      4  N   UNL     1      -0.144  13.120  22.045  0.00  0.00    +0.000 NA
ATOM      5  C   UNL     1      -0.715  11.907  22.672  0.00  0.00    +0.000 C 
ATOM      6  C   UNL     1      -0.809  10.822  21.601  0.00  0.00    +0.000 C 
ATOM      7  N   UNL     1      -1.056  11.525  20.321  0.00  0.00    +0.000 NA
ENDROOT
BRANCH   4   8
ATOM      8  C   UNL     1      -0.765  14.388  22.503  0.00  0.00    +0.000 C 
BRANCH   8   9
ATOM      9  C   UNL     1      -1.888  14.176  23.557  0.00  0.00    +0.000 C 
BRANCH   9  10
ATOM     10  N   UNL     1      -3.223  14.724  23.231  0.00  0.00    +0.000 NA
ATOM     11  C   UNL     1      -3.745  14.220  21.943  0.00  0.00    +0.000 C 
ATOM     12  C   UNL     1      -4.067  12.708  21.953  0.00  0.00    +0.000 C 
ATOM     13  N   UNL     1      -4.986  12.314  23.031  0.00  0.00    +0.000 NA
ATOM     14  C   UNL     1      -4.571  12.866  24.328  0.00  0.00    +0.000 C 
ATOM     15  C   UNL     1      -4.213  14.372  24.276  0.00  0.00    +0.000 C 
ATOM     16  H   UNL     1      -5.027  11.298  23.090  0.00  0.00    +0.000 HD
ENDBRANCH   9  10
ENDBRANCH   8   9
ENDBRANCH   4   8
BRANCH   7  17
ATOM     17  C   UNL     1      -0.836  10.715  19.090  0.00  0.00    +0.000 C 
BRANCH  17  18
ATOM     18  C   UNL     1      -1.964  10.655  18.066  0.00  0.00    +0.000 A 
ATOM     19  C   UNL     1      -1.875   9.972  16.844  0.00  0.00    +0.000 A 
ATOM     20  C   UNL     1      -2.921   9.966  15.922  0.00  0.00    +0.000 A 
ATOM     21  C   UNL     1      -4.059  10.718  16.163  0.00  0.00    +0.000 A 
ATOM     22  C   UNL     1      -4.146  11.483  17.324  0.00  0.00    +0.000 A 
ATOM     23  C   UNL     1      -3.124  11.423  18.285  0.00  0.00    +0.000 A 
BRANCH  22  24
ATOM     24  O   UNL     1      -5.296  12.222  17.462  0.00  0.00    +0.000 OA
BRANCH  24  25
ATOM     25  C   UNL     1      -6.106  12.017  18.553  0.00  0.00    +0.000 A 
ATOM     26  C   UNL     1      -6.496  10.759  19.022  0.00  0.00    +0.000 A 
ATOM     27  C   UNL     1      -7.339  10.662  20.130  0.00  0.00    +0.000 A 
ATOM     28  C   UNL     1      -7.751  11.815  20.797  0.00  0.00    +0.000 A 
ATOM     29  C   UNL     1      -7.313  13.067  20.365  0.00  0.00    +0.000 A 
ATOM     30  C   UNL     1      -6.489  13.167  19.245  0.00  0.00    +0.000 A 
ENDBRANCH  24  25
ENDBRANCH  22  24
ENDBRANCH  17  18
ENDBRANCH   7  17
TORSDOF 7
ENDMDL
MODEL 9
REMARK VINA RESULT:      -7.1      4.540     10.088
REMARK  Name = 
REMARK  7 active torsions:
REMARK  status: ('A' for Active; 'I' for Inactive)
REMARK    1  A    between atoms: N_4  and  C_5
REMARK    2  A    between atoms: C_5  and  C_6
REMARK    3  A    between atoms: C_6  and  N_7
REMARK    4  A    between atoms: N_15  and  C_16
REMARK    5  A    between atoms: C_16  and  C_17
REMARK    6  A    between atoms: C_21  and  O_22
REMARK    7  A    between atoms: O_22  and  C_23
REMARK                            x       y       z     vdW  Elec       q    Type
REMARK                         _______ _______ _______ _____ _____    ______ ____
ROOT
ATOM      1  O   UNL     1      -0.381   8.440  21.485  0.00  0.00    +0.000 OA
ATOM      2  S   UNL     1       0.868   9.163  21.348  0.00  0.00    +0.000 S 
ATOM      3  O   UNL     1       1.667   9.554  22.484  0.00  0.00    +0.000 OA
ATOM      4  N   UNL     1       0.607  10.466  20.296  0.00  0.00    +0.000 NA
ATOM      5  C   UNL     1       0.986  10.086  18.917  0.00  0.00    +0.000 C 
ATOM      6  C   UNL     1       1.295   8.591  18.906  0.00  0.00    +0.000 C 
ATOM      7  N   UNL     1       1.848   8.273  20.244  0.00  0.00    +0.000 NA
ENDROOT
BRANCH   4   8
ATOM      8  C   UNL     1       1.140  11.781  20.731  0.00  0.00    +0.000 C 
BRANCH   8   9
ATOM      9  C   UNL     1       0.363  12.987  20.132  0.00  0.00    +0.000 C 
BRANCH   9  10
ATOM     10  N   UNL     1       1.030  13.738  19.045  0.00  0.00    +0.000 NA
ATOM     11  C   UNL     1       0.514  15.117  18.909  0.00  0.00    +0.000 C 
ATOM     12  C   UNL     1       0.850  16.027  20.114  0.00  0.00    +0.000 C 
ATOM     13  N   UNL     1       2.287  16.078  20.423  0.00  0.00    +0.000 NA
ATOM     14  C   UNL     1       2.880  14.734  20.479  0.00  0.00    +0.000 C 
ATOM     15  C   UNL     1       2.489  13.834  19.281  0.00  0.00    +0.000 C 
ATOM     16  H   UNL     1       2.427  16.550  21.315  0.00  0.00    +0.000 HD
ENDBRANCH   9  10
ENDBRANCH   8   9
ENDBRANCH   4   8
BRANCH   7  17
ATOM     17  C   UNL     1       1.895   6.825  20.593  0.00  0.00    +0.000 C 
BRANCH  17  18
ATOM     18  C   UNL     1       2.208   5.835  19.478  0.00  0.00    +0.000 A 
ATOM     19  C   UNL     1       1.454   4.679  19.225  0.00  0.00    +0.000 A 
ATOM     20  C   UNL     1       1.792   3.783  18.212  0.00  0.00    +0.000 A 
ATOM     21  C   UNL     1       2.948   3.977  17.474  0.00  0.00    +0.000 A 
ATOM     22  C   UNL     1       3.772   5.064  17.758  0.00  0.00    +0.000 A 
ATOM     23  C   UNL     1       3.386   6.005  18.726  0.00  0.00    +0.000 A 
BRANCH  22  24
ATOM     24  O   UNL     1       4.913   5.157  16.999  0.00  0.00    +0.000 OA
BRANCH  24  25
ATOM     25  C   UNL     1       6.007   5.823  17.499  0.00  0.00    +0.000 A 
ATOM     26  C   UNL     1       6.435   7.080  17.060  0.00  0.00    +0.000 A 
ATOM     27  C   UNL     1       7.572   7.660  17.623  0.00  0.00    +0.000 A 
ATOM     28  C   UNL     1       8.252   7.011  18.653  0.00  0.00    +0.000 A 
ATOM     29  C   UNL     1       7.789   5.785  19.131  0.00  0.00    +0.000 A 
ATOM     30  C   UNL     1       6.666   5.193  18.555  0.00  0.00    +0.000 A 
ENDBRANCH  24  25
ENDBRANCH  22  24
ENDBRANCH  17  18
ENDBRANCH   7  17
TORSDOF 7
ENDMDL
