MODEL 1
REMARK VINA RESULT:      -6.5      0.000      0.000
REMARK  Name = 
REMARK  6 active torsions:
REMARK  status: ('A' for Active; 'I' for Inactive)
REMARK    1  A    between atoms: C_1  and  C_2
REMARK    2  A    between atoms: C_2  and  C_3
REMARK    3  A    between atoms: N_7  and  C_8
REMARK    4  A    between atoms: C_13  and  C_15
REMARK    5  A    between atoms: N_19  and  C_20
REMARK    6  A    between atoms: N_19  and  C_21
REMARK                            x       y       z     vdW  Elec       q    Type
REMARK                         _______ _______ _______ _____ _____    ______ ____
ROOT
ATOM      1  C   UNL     1      -3.215  12.180  18.245  0.00  0.00    +0.000 C 
ATOM      2  C   UNL     1      -3.880  11.021  17.493  0.00  0.00    +0.000 C 
ATOM      3  C   UNL     1      -3.199   9.677  17.740  0.00  0.00    +0.000 C 
ATOM      4  C   UNL     1      -1.668   9.695  17.653  0.00  0.00    +0.000 C 
ATOM      5  N   UNL     1      -1.052  10.881  18.247  0.00  0.00    +0.000 N 
ATOM      6  C   UNL     1       0.236  10.923  18.814  0.00  0.00    +0.000 C 
ATOM      7  O   UNL     1       0.683  11.976  19.284  0.00  0.00    +0.000 OA
ATOM      8  C   UNL     1      -1.704  12.171  17.977  0.00  0.00    +0.000 C 
ENDROOT
BRANCH   6   9
ATOM      9  C   UNL     1       1.130   9.731  18.899  0.00  0.00    +0.000 A 
ATOM     10  C   UNL     1       1.899   9.383  17.804  0.00  0.00    +0.000 A 
ATOM     11  C   UNL     1       2.614   8.180  17.818  0.00  0.00    +0.000 A 
ATOM     12  C   UNL     1       2.562   7.326  18.914  0.00  0.00    +0.000 A 
ATOM     13  N   UNL     1       3.144   6.064  18.902  0.00  0.00    +0.000 N 
ATOM     14  C   UNL     1       3.015   5.247  20.107  0.00  0.00    +0.000 C 
ATOM     15  C   UNL     1       4.274   5.721  18.049  0.00  0.00    +0.000 C 
ATOM     16  N   UNL     1       1.817   7.730  19.973  0.00  0.00    +0.000 NA
ATOM     17  N   UNL     1       1.085   8.926  19.973  0.00  0.00    +0.000 NA
ENDBRANCH   6   9
BRANCH   1  22
ATOM     18  C   UNL     1      -4.839  12.268  20.218  0.00  0.00    +0.000 A 
ATOM     19  N   UNL     1      -4.776  12.495  21.517  0.00  0.00    +0.000 NA
ATOM     20  C   UNL     1      -3.453  12.568  21.828  0.00  0.00    +0.000 A 
ATOM     21  C   UNL     1      -2.686  12.366  20.709  0.00  0.00    +0.000 A 
ATOM     22  N   UNL     1      -3.569  12.243  19.667  0.00  0.00    +0.000 N 
BRANCH  18  24
ATOM     23  C   UNL     1      -7.141  11.277  20.354  0.00  0.00    +0.000 C 
ATOM     24  C   UNL     1      -6.126  12.019  19.501  0.00  0.00    +0.000 C 
ENDBRANCH  18  24
ENDBRANCH   1  22
TORSDOF 3
ENDMDL
MODEL 2
REMARK VINA RESULT:      -6.5      3.109      4.088
REMARK  Name = 
REMARK  6 active torsions:
REMARK  status: ('A' for Active; 'I' for Inactive)
REMARK    1  A    between atoms: C_1  and  C_2
REMARK    2  A    between atoms: C_2  and  C_3
REMARK    3  A    between atoms: N_7  and  C_8
REMARK    4  A    between atoms: C_13  and  C_15
REMARK    5  A    between atoms: N_19  and  C_20
REMARK    6  A    between atoms: N_19  and  C_21
REMARK                            x       y       z     vdW  Elec       q    Type
REMARK                         _______ _______ _______ _____ _____    ______ ____
ROOT
ATOM      1  C   UNL     1      -0.702  11.179  21.341  0.00  0.00    +0.000 C 
ATOM      2  C   UNL     1      -0.670  10.383  22.652  0.00  0.00    +0.000 C 
ATOM      3  C   UNL     1       0.515   9.424  22.741  0.00  0.00    +0.000 C 
ATOM      4  C   UNL     1       0.772   8.586  21.484  0.00  0.00    +0.000 C 
ATOM      5  N   UNL     1       0.595   9.320  20.231  0.00  0.00    +0.000 N 
ATOM      6  C   UNL     1       1.270   9.040  19.028  0.00  0.00    +0.000 C 
ATOM      7  O   UNL     1       1.048   9.707  18.011  0.00  0.00    +0.000 OA
ATOM      8  C   UNL     1      -0.565  10.219  20.151  0.00  0.00    +0.000 C 
ENDROOT
BRANCH   6   9
ATOM      9  C   UNL     1       2.284   7.953  18.896  0.00  0.00    +0.000 A 
ATOM     10  C   UNL     1       3.088   7.912  17.772  0.00  0.00    +0.000 A 
ATOM     11  C   UNL     1       3.926   6.810  17.563  0.00  0.00    +0.000 A 
ATOM     12  C   UNL     1       3.962   5.754  18.467  0.00  0.00    +0.000 A 
ATOM     13  N   UNL     1       4.675   4.587  18.218  0.00  0.00    +0.000 N 
ATOM     14  C   UNL     1       4.630   3.537  19.234  0.00  0.00    +0.000 C 
ATOM     15  C   UNL     1       5.835   4.539  17.340  0.00  0.00    +0.000 C 
ATOM     16  N   UNL     1       3.177   5.861  19.567  0.00  0.00    +0.000 NA
ATOM     17  N   UNL     1       2.323   6.951  19.788  0.00  0.00    +0.000 NA
ENDBRANCH   6   9
BRANCH   1  22
ATOM     18  C   UNL     1       0.100  13.530  21.944  0.00  0.00    +0.000 A 
ATOM     19  N   UNL     1       1.053  14.359  21.558  0.00  0.00    +0.000 NA
ATOM     20  C   UNL     1       1.846  13.657  20.703  0.00  0.00    +0.000 A 
ATOM     21  C   UNL     1       1.389  12.371  20.572  0.00  0.00    +0.000 A 
ATOM     22  N   UNL     1       0.234  12.306  21.310  0.00  0.00    +0.000 N 
BRANCH  18  24
ATOM     23  C   UNL     1      -2.169  14.516  22.369  0.00  0.00    +0.000 C 
ATOM     24  C   UNL     1      -0.921  13.892  22.972  0.00  0.00    +0.000 C 
ENDBRANCH  18  24
ENDBRANCH   1  22
TORSDOF 3
ENDMDL
MODEL 3
REMARK VINA RESULT:      -6.3      1.285      1.643
REMARK  Name = 
REMARK  6 active torsions:
REMARK  status: ('A' for Active; 'I' for Inactive)
REMARK    1  A    between atoms: C_1  and  C_2
REMARK    2  A    between atoms: C_2  and  C_3
REMARK    3  A    between atoms: N_7  and  C_8
REMARK    4  A    between atoms: C_13  and  C_15
REMARK    5  A    between atoms: N_19  and  C_20
REMARK    6  A    between atoms: N_19  and  C_21
REMARK                            x       y       z     vdW  Elec       q    Type
REMARK                         _______ _______ _______ _____ _____    ______ ____
ROOT
ATOM      1  C   UNL     1      -2.305  12.592  19.093  0.00  0.00    +0.000 C 
ATOM      2  C   UNL     1      -3.232  11.762  18.197  0.00  0.00    +0.000 C 
ATOM      3  C   UNL     1      -2.816  10.296  18.099  0.00  0.00    +0.000 C 
ATOM      4  C   UNL     1      -1.320  10.057  17.857  0.00  0.00    +0.000 C 
ATOM      5  N   UNL     1      -0.445  10.956  18.609  0.00  0.00    +0.000 N 
ATOM      6  C   UNL     1       0.859  10.643  19.037  0.00  0.00    +0.000 C 
ATOM      7  O   UNL     1       1.535  11.471  19.658  0.00  0.00    +0.000 OA
ATOM      8  C   UNL     1      -0.845  12.369  18.672  0.00  0.00    +0.000 C 
ENDROOT
BRANCH   6   9
ATOM      9  C   UNL     1       1.503   9.319  18.788  0.00  0.00    +0.000 A 
ATOM     10  C   UNL     1       1.577   8.399  19.817  0.00  0.00    +0.000 A 
ATOM     11  C   UNL     1       2.319   7.226  19.641  0.00  0.00    +0.000 A 
ATOM     12  C   UNL     1       2.987   6.969  18.448  0.00  0.00    +0.000 A 
ATOM     13  N   UNL     1       3.843   5.886  18.293  0.00  0.00    +0.000 N 
ATOM     14  C   UNL     1       4.501   5.723  16.998  0.00  0.00    +0.000 C 
ATOM     15  C   UNL     1       3.725   4.664  19.077  0.00  0.00    +0.000 C 
ATOM     16  N   UNL     1       2.855   7.891  17.462  0.00  0.00    +0.000 NA
ATOM     17  N   UNL     1       2.126   9.077  17.623  0.00  0.00    +0.000 NA
ENDBRANCH   6   9
BRANCH   1  22
ATOM     18  C   UNL     1      -3.687  12.745  21.238  0.00  0.00    +0.000 A 
ATOM     19  N   UNL     1      -3.488  12.591  22.534  0.00  0.00    +0.000 NA
ATOM     20  C   UNL     1      -2.224  12.102  22.671  0.00  0.00    +0.000 A 
ATOM     21  C   UNL     1      -1.641  11.934  21.441  0.00  0.00    +0.000 A 
ATOM     22  N   UNL     1      -2.547  12.409  20.527  0.00  0.00    +0.000 N 
BRANCH  18  24
ATOM     23  C   UNL     1      -6.109  12.161  20.927  0.00  0.00    +0.000 C 
ATOM     24  C   UNL     1      -5.001  13.168  20.665  0.00  0.00    +0.000 C 
ENDBRANCH  18  24
ENDBRANCH   1  22
TORSDOF 3
ENDMDL
MODEL 4
REMARK VINA RESULT:      -6.2      6.780      9.307
REMARK  Name = 
REMARK  6 active torsions:
REMARK  status: ('A' for Active; 'I' for Inactive)
REMARK    1  A    between atoms: C_1  and  C_2
REMARK    2  A    between atoms: C_2  and  C_3
REMARK    3  A    between atoms: N_7  and  C_8
REMARK    4  A    between atoms: C_13  and  C_15
REMARK    5  A    between atoms: N_19  and  C_20
REMARK    6  A    between atoms: N_19  and  C_21
REMARK                            x       y       z     vdW  Elec       q    Type
REMARK                         _______ _______ _______ _____ _____    ______ ____
ROOT
ATOM      1  C   UNL     1       2.745   5.283  20.244  0.00  0.00    +0.000 C 
ATOM      2  C   UNL     1       2.104   6.562  19.691  0.00  0.00    +0.000 C 
ATOM      3  C   UNL     1       2.361   6.762  18.199  0.00  0.00    +0.000 C 
ATOM      4  C   UNL     1       3.809   6.531  17.749  0.00  0.00    +0.000 C 
ATOM      5  N   UNL     1       4.459   5.392  18.396  0.00  0.00    +0.000 N 
ATOM      6  C   UNL     1       5.485   4.616  17.824  0.00  0.00    +0.000 C 
ATOM      7  O   UNL     1       5.987   3.676  18.450  0.00  0.00    +0.000 OA
ATOM      8  C   UNL     1       4.224   5.227  19.838  0.00  0.00    +0.000 C 
ENDROOT
BRANCH   6   9
ATOM      9  C   UNL     1       6.022   4.857  16.452  0.00  0.00    +0.000 A 
ATOM     10  C   UNL     1       5.523   4.122  15.392  0.00  0.00    +0.000 A 
ATOM     11  C   UNL     1       6.131   4.225  14.136  0.00  0.00    +0.000 A 
ATOM     12  C   UNL     1       7.231   5.052  13.935  0.00  0.00    +0.000 A 
ATOM     13  N   UNL     1       7.940   5.068  12.740  0.00  0.00    +0.000 N 
ATOM     14  C   UNL     1       9.088   5.968  12.647  0.00  0.00    +0.000 C 
ATOM     15  C   UNL     1       7.349   4.697  11.462  0.00  0.00    +0.000 C 
ATOM     16  N   UNL     1       7.659   5.773  15.001  0.00  0.00    +0.000 NA
ATOM     17  N   UNL     1       7.071   5.675  16.270  0.00  0.00    +0.000 NA
ENDBRANCH   6   9
BRANCH   1  22
ATOM     18  C   UNL     1       2.257   2.777  20.377  0.00  0.00    +0.000 A 
ATOM     19  N   UNL     1       1.475   1.906  19.765  0.00  0.00    +0.000 NA
ATOM     20  C   UNL     1       0.660   2.632  18.951  0.00  0.00    +0.000 A 
ATOM     21  C   UNL     1       0.928   3.971  19.076  0.00  0.00    +0.000 A 
ATOM     22  N   UNL     1       1.994   4.062  19.934  0.00  0.00    +0.000 N 
BRANCH  18  24
ATOM     23  C   UNL     1       4.504   1.776  20.875  0.00  0.00    +0.000 C 
ATOM     24  C   UNL     1       3.231   2.383  21.440  0.00  0.00    +0.000 C 
ENDBRANCH  18  24
ENDBRANCH   1  22
TORSDOF 3
ENDMDL
MODEL 5
REMARK VINA RESULT:      -6.1      3.167      9.603
REMARK  Name = 
REMARK  6 active torsions:
REMARK  status: ('A' for Active; 'I' for Inactive)
REMARK    1  A    between atoms: C_1  and  C_2
REMARK    2  A    between atoms: C_2  and  C_3
REMARK    3  A    between atoms: N_7  and  C_8
REMARK    4  A    between atoms: C_13  and  C_15
REMARK    5  A    between atoms: N_19  and  C_20
REMARK    6  A    between atoms: N_19  and  C_21
REMARK                            x       y       z     vdW  Elec       q    Type
REMARK                         _______ _______ _______ _____ _____    ______ ____
ROOT
ATOM      1  C   UNL     1       4.591   3.128  17.683  0.00  0.00    +0.000 C 
ATOM      2  C   UNL     1       3.289   2.533  17.132  0.00  0.00    +0.000 C 
ATOM      3  C   UNL     1       2.218   3.586  16.860  0.00  0.00    +0.000 C 
ATOM      4  C   UNL     1       2.020   4.620  17.975  0.00  0.00    +0.000 C 
ATOM      5  N   UNL     1       3.266   5.073  18.594  0.00  0.00    +0.000 N 
ATOM      6  C   UNL     1       3.464   6.338  19.180  0.00  0.00    +0.000 C 
ATOM      7  O   UNL     1       4.549   6.632  19.693  0.00  0.00    +0.000 OA
ATOM      8  C   UNL     1       4.277   4.044  18.875  0.00  0.00    +0.000 C 
ENDROOT
BRANCH   6   9
ATOM      9  C   UNL     1       2.410   7.395  19.214  0.00  0.00    +0.000 A 
ATOM     10  C   UNL     1       2.182   8.159  18.085  0.00  0.00    +0.000 A 
ATOM     11  C   UNL     1       1.314   9.255  18.158  0.00  0.00    +0.000 A 
ATOM     12  C   UNL     1       0.677   9.589  19.349  0.00  0.00    +0.000 A 
ATOM     13  N   UNL     1      -0.077  10.748  19.489  0.00  0.00    +0.000 N 
ATOM     14  C   UNL     1      -0.689  11.004  20.790  0.00  0.00    +0.000 C 
ATOM     15  C   UNL     1      -0.726  11.411  18.366  0.00  0.00    +0.000 C 
ATOM     16  N   UNL     1       0.913   8.787  20.417  0.00  0.00    +0.000 NA
ATOM     17  N   UNL     1       1.788   7.693  20.366  0.00  0.00    +0.000 NA
ENDBRANCH   6   9
BRANCH   1  22
ATOM     18  C   UNL     1       6.546   4.555  16.860  0.00  0.00    +0.000 A 
ATOM     19  N   UNL     1       6.958   5.069  15.715  0.00  0.00    +0.000 NA
ATOM     20  C   UNL     1       6.145   4.556  14.752  0.00  0.00    +0.000 A 
ATOM     21  C   UNL     1       5.228   3.698  15.305  0.00  0.00    +0.000 A 
ATOM     22  N   UNL     1       5.437   3.749  16.660  0.00  0.00    +0.000 N 
BRANCH  18  24
ATOM     23  C   UNL     1       7.745   6.223  18.303  0.00  0.00    +0.000 C 
ATOM     24  C   UNL     1       7.251   4.793  18.155  0.00  0.00    +0.000 C 
ENDBRANCH  18  24
ENDBRANCH   1  22
TORSDOF 3
ENDMDL
MODEL 6
REMARK VINA RESULT:      -6.1      2.761      3.925
REMARK  Name = 
REMARK  6 active torsions:
REMARK  status: ('A' for Active; 'I' for Inactive)
REMARK    1  A    between atoms: C_1  and  C_2
REMARK    2  A    between atoms: C_2  and  C_3
REMARK    3  A    between atoms: N_7  and  C_8
REMARK    4  A    between atoms: C_13  and  C_15
REMARK    5  A    between atoms: N_19  and  C_20
REMARK    6  A    between atoms: N_19  and  C_21
REMARK                            x       y       z     vdW  Elec       q    Type
REMARK                         _______ _______ _______ _____ _____    ______ ____
ROOT
ATOM      1  C   UNL     1      -1.652  12.522  21.949  0.00  0.00    +0.000 C 
ATOM      2  C   UNL     1      -1.821  11.518  23.096  0.00  0.00    +0.000 C 
ATOM      3  C   UNL     1      -0.743  10.437  23.108  0.00  0.00    +0.000 C 
ATOM      4  C   UNL     1      -0.441   9.800  21.746  0.00  0.00    +0.000 C 
ATOM      5  N   UNL     1      -0.428  10.751  20.634  0.00  0.00    +0.000 N 
ATOM      6  C   UNL     1       0.334  10.608  19.459  0.00  0.00    +0.000 C 
ATOM      7  O   UNL     1       0.274  11.457  18.562  0.00  0.00    +0.000 OA
ATOM      8  C   UNL     1      -1.488  11.769  20.622  0.00  0.00    +0.000 C 
ENDROOT
BRANCH   6   9
ATOM      9  C   UNL     1       1.253   9.457  19.217  0.00  0.00    +0.000 A 
ATOM     10  C   UNL     1       1.793   9.277  17.957  0.00  0.00    +0.000 A 
ATOM     11  C   UNL     1       2.523   8.115  17.680  0.00  0.00    +0.000 A 
ATOM     12  C   UNL     1       2.713   7.137  18.650  0.00  0.00    +0.000 A 
ATOM     13  N   UNL     1       3.310   5.914  18.367  0.00  0.00    +0.000 N 
ATOM     14  C   UNL     1       3.446   4.957  19.463  0.00  0.00    +0.000 C 
ATOM     15  C   UNL     1       4.251   5.727  17.271  0.00  0.00    +0.000 C 
ATOM     16  N   UNL     1       2.189   7.380  19.877  0.00  0.00    +0.000 NA
ATOM     17  N   UNL     1       1.445   8.531  20.170  0.00  0.00    +0.000 NA
ENDBRANCH   6   9
BRANCH   1  22
ATOM     18  C   UNL     1      -0.639  14.547  23.138  0.00  0.00    +0.000 A 
ATOM     19  N   UNL     1       0.382  15.365  22.961  0.00  0.00    +0.000 NA
ATOM     20  C   UNL     1       1.105  14.855  21.925  0.00  0.00    +0.000 A 
ATOM     21  C   UNL     1       0.533  13.695  21.468  0.00  0.00    +0.000 A 
ATOM     22  N   UNL     1      -0.619  13.533  22.194  0.00  0.00    +0.000 N 
BRANCH  18  24
ATOM     23  C   UNL     1      -1.703  16.131  24.769  0.00  0.00    +0.000 C 
ATOM     24  C   UNL     1      -1.618  14.703  24.255  0.00  0.00    +0.000 C 
ENDBRANCH  18  24
ENDBRANCH   1  22
TORSDOF 3
ENDMDL
MODEL 7
REMARK VINA RESULT:      -6.0      9.823     11.859
REMARK  Name = 
REMARK  6 active torsions:
REMARK  status: ('A' for Active; 'I' for Inactive)
REMARK    1  A    between atoms: C_1  and  C_2
REMARK    2  A    between atoms: C_2  and  C_3
REMARK    3  A    between atoms: N_7  and  C_8
REMARK    4  A    between atoms: C_13  and  C_15
REMARK    5  A    between atoms: N_19  and  C_20
REMARK    6  A    between atoms: N_19  and  C_21
REMARK                            x       y       z     vdW  Elec       q    Type
REMARK                         _______ _______ _______ _____ _____    ______ ____
ROOT
ATOM      1  C   UNL     1      10.463  13.183  19.017  0.00  0.00    +0.000 C 
ATOM      2  C   UNL     1      10.469  11.691  18.661  0.00  0.00    +0.000 C 
ATOM      3  C   UNL     1       9.447  10.882  19.455  0.00  0.00    +0.000 C 
ATOM      4  C   UNL     1       9.409  11.175  20.960  0.00  0.00    +0.000 C 
ATOM      5  N   UNL     1       9.552  12.591  21.295  0.00  0.00    +0.000 N 
ATOM      6  C   UNL     1       9.011  13.209  22.438  0.00  0.00    +0.000 C 
ATOM      7  O   UNL     1       9.192  14.414  22.649  0.00  0.00    +0.000 OA
ATOM      8  C   UNL     1      10.559  13.351  20.540  0.00  0.00    +0.000 C 
ENDROOT
BRANCH   6   9
ATOM      9  C   UNL     1       8.191  12.479  23.450  0.00  0.00    +0.000 A 
ATOM     10  C   UNL     1       6.881  12.153  23.150  0.00  0.00    +0.000 A 
ATOM     11  C   UNL     1       6.060  11.616  24.148  0.00  0.00    +0.000 A 
ATOM     12  C   UNL     1       6.537  11.406  25.437  0.00  0.00    +0.000 A 
ATOM     13  N   UNL     1       5.711  11.008  26.481  0.00  0.00    +0.000 N 
ATOM     14  C   UNL     1       6.321  10.831  27.797  0.00  0.00    +0.000 C 
ATOM     15  C   UNL     1       4.476  10.264  26.274  0.00  0.00    +0.000 C 
ATOM     16  N   UNL     1       7.838  11.714  25.667  0.00  0.00    +0.000 NA
ATOM     17  N   UNL     1       8.673  12.264  24.684  0.00  0.00    +0.000 NA
ENDBRANCH   6   9
BRANCH   1  22
ATOM     18  C   UNL     1       9.296  15.301  18.187  0.00  0.00    +0.000 A 
ATOM     19  N   UNL     1       8.093  15.644  17.764  0.00  0.00    +0.000 NA
ATOM     20  C   UNL     1       7.383  14.487  17.653  0.00  0.00    +0.000 A 
ATOM     21  C   UNL     1       8.164  13.412  17.994  0.00  0.00    +0.000 A 
ATOM     22  N   UNL     1       9.365  13.934  18.402  0.00  0.00    +0.000 N 
BRANCH  18  24
ATOM     23  C   UNL     1      10.168  17.574  17.574  0.00  0.00    +0.000 C 
ATOM     24  C   UNL     1      10.413  16.282  18.336  0.00  0.00    +0.000 C 
ENDBRANCH  18  24
ENDBRANCH   1  22
TORSDOF 3
ENDMDL
MODEL 8
REMARK VINA RESULT:      -5.9      1.666      2.730
REMARK  Name = 
REMARK  6 active torsions:
REMARK  status: ('A' for Active; 'I' for Inactive)
REMARK    1  A    between atoms: C_1  and  C_2
REMARK    2  A    between atoms: C_2  and  C_3
REMARK    3  A    between atoms: N_7  and  C_8
REMARK    4  A    between atoms: C_13  and  C_15
REMARK    5  A    between atoms: N_19  and  C_20
REMARK    6  A    between atoms: N_19  and  C_21
REMARK                            x       y       z     vdW  Elec       q    Type
REMARK                         _______ _______ _______ _____ _____    ______ ____
ROOT
ATOM      1  C   UNL     1      -1.081  12.807  20.165  0.00  0.00    +0.000 C 
ATOM      2  C   UNL     1      -0.055  13.669  19.420  0.00  0.00    +0.000 C 
ATOM      3  C   UNL     1       0.879  12.852  18.529  0.00  0.00    +0.000 C 
ATOM      4  C   UNL     1       1.461  11.591  19.177  0.00  0.00    +0.000 C 
ATOM      5  N   UNL     1       0.509  10.854  20.007  0.00  0.00    +0.000 N 
ATOM      6  C   UNL     1       0.544   9.465  20.238  0.00  0.00    +0.000 C 
ATOM      7  O   UNL     1      -0.297   8.926  20.967  0.00  0.00    +0.000 OA
ATOM      8  C   UNL     1      -0.364  11.652  20.879  0.00  0.00    +0.000 C 
ENDROOT
BRANCH   6   9
ATOM      9  C   UNL     1       1.565   8.562  19.629  0.00  0.00    +0.000 A 
ATOM     10  C   UNL     1       2.006   8.811  18.342  0.00  0.00    +0.000 A 
ATOM     11  C   UNL     1       2.837   7.881  17.707  0.00  0.00    +0.000 A 
ATOM     12  C   UNL     1       3.227   6.710  18.347  0.00  0.00    +0.000 A 
ATOM     13  N   UNL     1       3.933   5.706  17.695  0.00  0.00    +0.000 N 
ATOM     14  C   UNL     1       4.278   4.512  18.465  0.00  0.00    +0.000 C 
ATOM     15  C   UNL     1       4.786   5.958  16.542  0.00  0.00    +0.000 C 
ATOM     16  N   UNL     1       2.791   6.532  19.619  0.00  0.00    +0.000 NA
ATOM     17  N   UNL     1       1.949   7.445  20.268  0.00  0.00    +0.000 NA
ENDBRANCH   6   9
BRANCH   1  22
ATOM     18  C   UNL     1      -3.551  12.346  19.695  0.00  0.00    +0.000 A 
ATOM     19  N   UNL     1      -4.266  11.757  18.754  0.00  0.00    +0.000 NA
ATOM     20  C   UNL     1      -3.399  11.453  17.750  0.00  0.00    +0.000 A 
ATOM     21  C   UNL     1      -2.133  11.876  18.065  0.00  0.00    +0.000 A 
ATOM     22  N   UNL     1      -2.214  12.385  19.336  0.00  0.00    +0.000 N 
BRANCH  18  24
ATOM     23  C   UNL     1      -5.669  12.766  20.976  0.00  0.00    +0.000 C 
ATOM     24  C   UNL     1      -4.159  12.929  20.929  0.00  0.00    +0.000 C 
ENDBRANCH  18  24
ENDBRANCH   1  22
TORSDOF 3
ENDMDL
MODEL 9
REMARK VINA RESULT:      -5.9      1.945      2.765
REMARK  Name = 
REMARK  6 active torsions:
REMARK  status: ('A' for Active; 'I' for Inactive)
REMARK    1  A    between atoms: C_1  and  C_2
REMARK    2  A    between atoms: C_2  and  C_3
REMARK    3  A    between atoms: N_7  and  C_8
REMARK    4  A    between atoms: C_13  and  C_15
REMARK    5  A    between atoms: N_19  and  C_20
REMARK    6  A    between atoms: N_19  and  C_21
REMARK                            x       y       z     vdW  Elec       q    Type
REMARK                         _______ _______ _______ _____ _____    ______ ____
ROOT
ATOM      1  C   UNL     1      -3.391  13.765  21.320  0.00  0.00    +0.000 C 
ATOM      2  C   UNL     1      -4.101  13.414  20.007  0.00  0.00    +0.000 C 
ATOM      3  C   UNL     1      -3.735  12.028  19.481  0.00  0.00    +0.000 C 
ATOM      4  C   UNL     1      -2.238  11.696  19.501  0.00  0.00    +0.000 C 
ATOM      5  N   UNL     1      -1.540  12.167  20.697  0.00  0.00    +0.000 N 
ATOM      6  C   UNL     1      -0.398  11.563  21.255  0.00  0.00    +0.000 C 
ATOM      7  O   UNL     1       0.136  12.038  22.264  0.00  0.00    +0.000 OA
ATOM      8  C   UNL     1      -1.884  13.514  21.176  0.00  0.00    +0.000 C 
ENDROOT
BRANCH   6   9
ATOM      9  C   UNL     1       0.232  10.332  20.693  0.00  0.00    +0.000 A 
ATOM     10  C   UNL     1       0.412   9.231  21.510  0.00  0.00    +0.000 A 
ATOM     11  C   UNL     1       1.145   8.136  21.040  0.00  0.00    +0.000 A 
ATOM     12  C   UNL     1       1.697   8.135  19.763  0.00  0.00    +0.000 A 
ATOM     13  N   UNL     1       2.545   7.127  19.319  0.00  0.00    +0.000 N 
ATOM     14  C   UNL     1       3.077   7.238  17.963  0.00  0.00    +0.000 C 
ATOM     15  C   UNL     1       2.513   5.774  19.856  0.00  0.00    +0.000 C 
ATOM     16  N   UNL     1       1.463   9.227  18.993  0.00  0.00    +0.000 NA
ATOM     17  N   UNL     1       0.742  10.339  19.451  0.00  0.00    +0.000 NA
ENDBRANCH   6   9
BRANCH   1  22
ATOM     18  C   UNL     1      -5.337  13.024  22.804  0.00  0.00    +0.000 A 
ATOM     19  N   UNL     1      -5.500  12.552  24.027  0.00  0.00    +0.000 NA
ATOM     20  C   UNL     1      -4.251  12.308  24.512  0.00  0.00    +0.000 A 
ATOM     21  C   UNL     1      -3.303  12.616  23.569  0.00  0.00    +0.000 A 
ATOM     22  N   UNL     1      -3.990  13.139  22.503  0.00  0.00    +0.000 N 
BRANCH  18  24
ATOM     23  C   UNL     1      -7.303  12.085  21.558  0.00  0.00    +0.000 C 
ATOM     24  C   UNL     1      -6.481  13.319  21.891  0.00  0.00    +0.000 C 
ENDBRANCH  18  24
ENDBRANCH   1  22
TORSDOF 3
ENDMDL
