MODEL 1
REMARK VINA RESULT:      -9.1      0.000      0.000
REMARK  Name = 
REMARK  9 active torsions:
REMARK  status: ('A' for Active; 'I' for Inactive)
REMARK    1  A    between atoms: C_1  and  N_2
REMARK    2  A    between atoms: N_7  and  C_8
REMARK    3  A    between atoms: C_8  and  C_9
REMARK    4  A    between atoms: C_9  and  C_10
REMARK    5  A    between atoms: C_10  and  O_11
REMARK    6  A    between atoms: C_13  and  C_14
REMARK    7  A    between atoms: C_18  and  N_19
REMARK    8  A    between atoms: N_22  and  C_23
REMARK    9  A    between atoms: C_23  and  C_24
REMARK                            x       y       z     vdW  Elec       q    Type
REMARK                         _______ _______ _______ _____ _____    ______ ____
ROOT
ATOM      1  C   UNL     1       2.273   7.690  19.052  0.00  0.00    +0.000 A 
ATOM      2  C   UNL     1       2.351   8.545  17.959  0.00  0.00    +0.000 A 
ATOM      3  C   UNL     1       1.676   9.764  17.957  0.00  0.00    +0.000 A 
ATOM      4  C   UNL     1       0.913  10.138  19.067  0.00  0.00    +0.000 A 
ATOM      5  C   UNL     1       0.796   9.326  20.176  0.00  0.00    +0.000 A 
ATOM      6  C   UNL     1       1.473   8.102  20.144  0.00  0.00    +0.000 A 
ENDROOT
BRANCH   1  15
ATOM      7  C   UNL     1       1.860   2.987  21.547  0.00  0.00    +0.000 C 
ATOM      8  N   UNL     1       2.959   3.203  20.636  0.00  0.00    +0.000 N 
ATOM      9  C   UNL     1       3.949   2.312  20.340  0.00  0.00    +0.000 A 
ATOM     10  N   UNL     1       4.819   2.825  19.483  0.00  0.00    +0.000 NA
ATOM     11  C   UNL     1       4.355   4.093  19.207  0.00  0.00    +0.000 A 
ATOM     12  C   UNL     1       4.829   5.148  18.397  0.00  0.00    +0.000 A 
ATOM     13  N   UNL     1       5.991   5.074  17.638  0.00  0.00    +0.000 N 
ATOM     14  N   UNL     1       4.103   6.286  18.365  0.00  0.00    +0.000 NA
ATOM     15  C   UNL     1       2.972   6.397  19.103  0.00  0.00    +0.000 A 
ATOM     16  N   UNL     1       2.441   5.444  19.909  0.00  0.00    +0.000 NA
ATOM     17  C   UNL     1       3.181   4.342  19.920  0.00  0.00    +0.000 A 
ATOM     18  H   UNL     1       6.037   4.277  17.013  0.00  0.00    +0.000 HD
BRANCH  13  19
ATOM     19  C   UNL     1       6.730   6.290  17.344  0.00  0.00    +0.000 C 
BRANCH  19  20
ATOM     20  C   UNL     1       7.726   6.642  18.447  0.00  0.00    +0.000 C 
BRANCH  20  21
ATOM     21  C   UNL     1       8.189   5.393  19.174  0.00  0.00    +0.000 C 
BRANCH  21  22
ATOM     22  O   UNL     1       7.968   5.546  20.562  0.00  0.00    +0.000 OA
ATOM     23  H   UNL     1       7.732   4.647  20.845  0.00  0.00    +0.000 HD
ENDBRANCH  21  22
ENDBRANCH  20  21
ENDBRANCH  19  20
ENDBRANCH  13  19
ENDBRANCH   1  15
BRANCH   5  24
ATOM     24  N   UNL     1       0.052   9.699  21.330  0.00  0.00    +0.000 N 
ATOM     25  C   UNL     1      -0.325  10.989  21.607  0.00  0.00    +0.000 C 
ATOM     26  O   UNL     1      -0.107  11.978  20.883  0.00  0.00    +0.000 OA
ATOM     27  N   UNL     1      -0.979  11.156  22.801  0.00  0.00    +0.000 N 
ATOM     28  H   UNL     1      -0.205   8.978  21.978  0.00  0.00    +0.000 HD
ATOM     29  H   UNL     1      -1.478  10.376  23.211  0.00  0.00    +0.000 HD
BRANCH  27  30
ATOM     30  C   UNL     1      -1.399  12.510  23.117  0.00  0.00    +0.000 C 
BRANCH  30  31
ATOM     31  C   UNL     1      -2.886  12.694  23.061  0.00  0.00    +0.000 A 
ATOM     32  C   UNL     1      -3.644  12.608  24.239  0.00  0.00    +0.000 A 
ATOM     33  C   UNL     1      -5.036  12.675  24.191  0.00  0.00    +0.000 A 
ATOM     34  C   UNL     1      -5.678  12.871  22.971  0.00  0.00    +0.000 A 
ATOM     35  C   UNL     1      -4.933  13.009  21.801  0.00  0.00    +0.000 A 
ATOM     36  C   UNL     1      -3.539  12.925  21.846  0.00  0.00    +0.000 A 
ENDBRANCH  30  31
ENDBRANCH  27  30
ENDBRANCH   5  24
TORSDOF 8
ENDMDL
MODEL 2
REMARK VINA RESULT:      -8.9      0.741      1.214
REMARK  Name = 
REMARK  9 active torsions:
REMARK  status: ('A' for Active; 'I' for Inactive)
REMARK    1  A    between atoms: C_1  and  N_2
REMARK    2  A    between atoms: N_7  and  C_8
REMARK    3  A    between atoms: C_8  and  C_9
REMARK    4  A    between atoms: C_9  and  C_10
REMARK    5  A    between atoms: C_10  and  O_11
REMARK    6  A    between atoms: C_13  and  C_14
REMARK    7  A    between atoms: C_18  and  N_19
REMARK    8  A    between atoms: N_22  and  C_23
REMARK    9  A    between atoms: C_23  and  C_24
REMARK                            x       y       z     vdW  Elec       q    Type
REMARK                         _______ _______ _______ _____ _____    ______ ____
ROOT
ATOM      1  C   UNL     1       2.362   7.634  18.945  0.00  0.00    +0.000 A 
ATOM      2  C   UNL     1       2.429   8.503  17.862  0.00  0.00    +0.000 A 
ATOM      3  C   UNL     1       1.740   9.714  17.876  0.00  0.00    +0.000 A 
ATOM      4  C   UNL     1       0.973  10.065  18.991  0.00  0.00    +0.000 A 
ATOM      5  C   UNL     1       0.868   9.238  20.091  0.00  0.00    +0.000 A 
ATOM      6  C   UNL     1       1.559   8.023  20.043  0.00  0.00    +0.000 A 
ENDROOT
BRANCH   1  15
ATOM      7  C   UNL     1       2.167   2.990  21.573  0.00  0.00    +0.000 C 
ATOM      8  N   UNL     1       3.200   3.193  20.586  0.00  0.00    +0.000 N 
ATOM      9  C   UNL     1       4.178   2.303  20.244  0.00  0.00    +0.000 A 
ATOM     10  N   UNL     1       4.983   2.804  19.319  0.00  0.00    +0.000 NA
ATOM     11  C   UNL     1       4.488   4.060  19.044  0.00  0.00    +0.000 A 
ATOM     12  C   UNL     1       4.895   5.099  18.180  0.00  0.00    +0.000 A 
ATOM     13  N   UNL     1       6.005   5.017  17.346  0.00  0.00    +0.000 N 
ATOM     14  N   UNL     1       4.157   6.230  18.170  0.00  0.00    +0.000 NA
ATOM     15  C   UNL     1       3.077   6.348  18.980  0.00  0.00    +0.000 A 
ATOM     16  N   UNL     1       2.611   5.411  19.842  0.00  0.00    +0.000 NA
ATOM     17  C   UNL     1       3.362   4.316  19.829  0.00  0.00    +0.000 A 
ATOM     18  H   UNL     1       6.017   4.206  16.738  0.00  0.00    +0.000 HD
BRANCH  13  19
ATOM     19  C   UNL     1       6.709   6.232  16.975  0.00  0.00    +0.000 C 
BRANCH  19  20
ATOM     20  C   UNL     1       7.622   6.736  18.091  0.00  0.00    +0.000 C 
BRANCH  20  21
ATOM     21  C   UNL     1       7.966   8.200  17.886  0.00  0.00    +0.000 C 
BRANCH  21  22
ATOM     22  O   UNL     1       8.834   8.628  18.917  0.00  0.00    +0.000 OA
ATOM     23  H   UNL     1       9.713   8.549  18.508  0.00  0.00    +0.000 HD
ENDBRANCH  21  22
ENDBRANCH  20  21
ENDBRANCH  19  20
ENDBRANCH  13  19
ENDBRANCH   1  15
BRANCH   5  24
ATOM     24  N   UNL     1       0.120   9.588  21.249  0.00  0.00    +0.000 N 
ATOM     25  C   UNL     1      -0.272  10.870  21.542  0.00  0.00    +0.000 C 
ATOM     26  O   UNL     1      -0.068  11.870  20.829  0.00  0.00    +0.000 OA
ATOM     27  N   UNL     1      -0.927  11.015  22.739  0.00  0.00    +0.000 N 
ATOM     28  H   UNL     1      -0.126   8.857  21.890  0.00  0.00    +0.000 HD
ATOM     29  H   UNL     1      -1.415  10.223  23.140  0.00  0.00    +0.000 HD
BRANCH  27  30
ATOM     30  C   UNL     1      -1.363  12.359  23.071  0.00  0.00    +0.000 C 
BRANCH  30  31
ATOM     31  C   UNL     1      -2.851  12.532  22.996  0.00  0.00    +0.000 A 
ATOM     32  C   UNL     1      -3.465  12.754  21.754  0.00  0.00    +0.000 A 
ATOM     33  C   UNL     1      -4.833  13.018  21.678  0.00  0.00    +0.000 A 
ATOM     34  C   UNL     1      -5.603  13.019  22.838  0.00  0.00    +0.000 A 
ATOM     35  C   UNL     1      -5.013  12.749  24.071  0.00  0.00    +0.000 A 
ATOM     36  C   UNL     1      -3.640  12.502  24.150  0.00  0.00    +0.000 A 
ENDBRANCH  30  31
ENDBRANCH  27  30
ENDBRANCH   5  24
TORSDOF 8
ENDMDL
MODEL 3
REMARK VINA RESULT:      -8.9      4.317     10.240
REMARK  Name = 
REMARK  9 active torsions:
REMARK  status: ('A' for Active; 'I' for Inactive)
REMARK    1  A    between atoms: C_1  and  N_2
REMARK    2  A    between atoms: N_7  and  C_8
REMARK    3  A    between atoms: C_8  and  C_9
REMARK    4  A    between atoms: C_9  and  C_10
REMARK    5  A    between atoms: C_10  and  O_11
REMARK    6  A    between atoms: C_13  and  C_14
REMARK    7  A    between atoms: C_18  and  N_19
REMARK    8  A    between atoms: N_22  and  C_23
REMARK    9  A    between atoms: C_23  and  C_24
REMARK                            x       y       z     vdW  Elec       q    Type
REMARK                         _______ _______ _______ _____ _____    ______ ____
ROOT
ATOM      1  C   UNL     1      -1.516  11.890  19.379  0.00  0.00    +0.000 A 
ATOM      2  C   UNL     1      -0.765  13.054  19.502  0.00  0.00    +0.000 A 
ATOM      3  C   UNL     1       0.525  13.019  20.027  0.00  0.00    +0.000 A 
ATOM      4  C   UNL     1       1.077  11.801  20.434  0.00  0.00    +0.000 A 
ATOM      5  C   UNL     1       0.375  10.616  20.339  0.00  0.00    +0.000 A 
ATOM      6  C   UNL     1      -0.923  10.684  19.822  0.00  0.00    +0.000 A 
ENDROOT
BRANCH   1  15
ATOM      7  C   UNL     1      -6.496  13.058  20.912  0.00  0.00    +0.000 C 
ATOM      8  N   UNL     1      -6.276  12.536  19.583  0.00  0.00    +0.000 N 
ATOM      9  C   UNL     1      -7.234  12.286  18.645  0.00  0.00    +0.000 A 
ATOM     10  N   UNL     1      -6.705  11.790  17.536  0.00  0.00    +0.000 NA
ATOM     11  C   UNL     1      -5.348  11.738  17.770  0.00  0.00    +0.000 A 
ATOM     12  C   UNL     1      -4.245  11.296  17.008  0.00  0.00    +0.000 A 
ATOM     13  N   UNL     1      -4.355  10.779  15.722  0.00  0.00    +0.000 N 
ATOM     14  N   UNL     1      -3.020  11.388  17.569  0.00  0.00    +0.000 NA
ATOM     15  C   UNL     1      -2.878  11.876  18.826  0.00  0.00    +0.000 A 
ATOM     16  N   UNL     1      -3.873  12.320  19.633  0.00  0.00    +0.000 NA
ATOM     17  C   UNL     1      -5.062  12.211  19.052  0.00  0.00    +0.000 A 
ATOM     18  H   UNL     1      -4.852  11.374  15.069  0.00  0.00    +0.000 HD
BRANCH  13  19
ATOM     19  C   UNL     1      -3.367   9.824  15.251  0.00  0.00    +0.000 C 
BRANCH  19  20
ATOM     20  C   UNL     1      -3.094   9.963  13.755  0.00  0.00    +0.000 C 
BRANCH  20  21
ATOM     21  C   UNL     1      -4.387   9.888  12.963  0.00  0.00    +0.000 C 
BRANCH  21  22
ATOM     22  O   UNL     1      -4.141  10.273  11.624  0.00  0.00    +0.000 OA
ATOM     23  H   UNL     1      -4.698   9.659  11.116  0.00  0.00    +0.000 HD
ENDBRANCH  21  22
ENDBRANCH  20  21
ENDBRANCH  19  20
ENDBRANCH  13  19
ENDBRANCH   1  15
BRANCH   5  24
ATOM     24  N   UNL     1       0.928   9.361  20.716  0.00  0.00    +0.000 N 
ATOM     25  C   UNL     1       1.618   8.545  19.856  0.00  0.00    +0.000 C 
ATOM     26  O   UNL     1       1.884   8.806  18.667  0.00  0.00    +0.000 OA
ATOM     27  N   UNL     1       2.014   7.345  20.389  0.00  0.00    +0.000 N 
ATOM     28  H   UNL     1       0.798   9.054  21.662  0.00  0.00    +0.000 HD
ATOM     29  H   UNL     1       2.141   7.261  21.391  0.00  0.00    +0.000 HD
BRANCH  27  30
ATOM     30  C   UNL     1       2.755   6.464  19.504  0.00  0.00    +0.000 C 
BRANCH  30  31
ATOM     31  C   UNL     1       2.327   5.031  19.605  0.00  0.00    +0.000 A 
ATOM     32  C   UNL     1       2.880   4.075  18.739  0.00  0.00    +0.000 A 
ATOM     33  C   UNL     1       2.419   2.759  18.749  0.00  0.00    +0.000 A 
ATOM     34  C   UNL     1       1.432   2.378  19.656  0.00  0.00    +0.000 A 
ATOM     35  C   UNL     1       0.911   3.307  20.555  0.00  0.00    +0.000 A 
ATOM     36  C   UNL     1       1.360   4.630  20.533  0.00  0.00    +0.000 A 
ENDBRANCH  30  31
ENDBRANCH  27  30
ENDBRANCH   5  24
TORSDOF 8
ENDMDL
MODEL 4
REMARK VINA RESULT:      -8.8      1.015      1.458
REMARK  Name = 
REMARK  9 active torsions:
REMARK  status: ('A' for Active; 'I' for Inactive)
REMARK    1  A    between atoms: C_1  and  N_2
REMARK    2  A    between atoms: N_7  and  C_8
REMARK    3  A    between atoms: C_8  and  C_9
REMARK    4  A    between atoms: C_9  and  C_10
REMARK    5  A    between atoms: C_10  and  O_11
REMARK    6  A    between atoms: C_13  and  C_14
REMARK    7  A    between atoms: C_18  and  N_19
REMARK    8  A    between atoms: N_22  and  C_23
REMARK    9  A    between atoms: C_23  and  C_24
REMARK                            x       y       z     vdW  Elec       q    Type
REMARK                         _______ _______ _______ _____ _____    ______ ____
ROOT
ATOM      1  C   UNL     1       2.403   7.386  19.301  0.00  0.00    +0.000 A 
ATOM      2  C   UNL     1       2.483   8.153  18.144  0.00  0.00    +0.000 A 
ATOM      3  C   UNL     1       1.824   9.377  18.053  0.00  0.00    +0.000 A 
ATOM      4  C   UNL     1       1.075   9.846  19.137  0.00  0.00    +0.000 A 
ATOM      5  C   UNL     1       0.958   9.124  20.307  0.00  0.00    +0.000 A 
ATOM      6  C   UNL     1       1.618   7.892  20.364  0.00  0.00    +0.000 A 
ENDROOT
BRANCH   1  15
ATOM      7  C   UNL     1       1.471   2.556  21.379  0.00  0.00    +0.000 C 
ATOM      8  N   UNL     1       2.751   2.819  20.764  0.00  0.00    +0.000 N 
ATOM      9  C   UNL     1       3.793   1.944  20.662  0.00  0.00    +0.000 A 
ATOM     10  N   UNL     1       4.834   2.502  20.062  0.00  0.00    +0.000 NA
ATOM     11  C   UNL     1       4.433   3.784  19.751  0.00  0.00    +0.000 A 
ATOM     12  C   UNL     1       5.071   4.881  19.132  0.00  0.00    +0.000 A 
ATOM     13  N   UNL     1       6.380   4.846  18.664  0.00  0.00    +0.000 N 
ATOM     14  N   UNL     1       4.360   6.019  18.991  0.00  0.00    +0.000 NA
ATOM     15  C   UNL     1       3.086   6.091  19.447  0.00  0.00    +0.000 A 
ATOM     16  N   UNL     1       2.392   5.097  20.054  0.00  0.00    +0.000 NA
ATOM     17  C   UNL     1       3.122   3.995  20.181  0.00  0.00    +0.000 A 
ATOM     18  H   UNL     1       6.580   4.084  18.026  0.00  0.00    +0.000 HD
BRANCH  13  19
ATOM     19  C   UNL     1       7.152   6.075  18.616  0.00  0.00    +0.000 C 
BRANCH  19  20
ATOM     20  C   UNL     1       7.388   6.556  17.186  0.00  0.00    +0.000 C 
BRANCH  20  21
ATOM     21  C   UNL     1       6.693   5.645  16.190  0.00  0.00    +0.000 C 
BRANCH  21  22
ATOM     22  O   UNL     1       7.592   4.639  15.764  0.00  0.00    +0.000 OA
ATOM     23  H   UNL     1       8.074   4.420  16.579  0.00  0.00    +0.000 HD
ENDBRANCH  21  22
ENDBRANCH  20  21
ENDBRANCH  19  20
ENDBRANCH  13  19
ENDBRANCH   1  15
BRANCH   5  24
ATOM     24  N   UNL     1       0.228   9.595  21.434  0.00  0.00    +0.000 N 
ATOM     25  C   UNL     1      -0.217  10.886  21.565  0.00  0.00    +0.000 C 
ATOM     26  O   UNL     1      -0.082  11.788  20.717  0.00  0.00    +0.000 OA
ATOM     27  N   UNL     1      -0.843  11.164  22.753  0.00  0.00    +0.000 N 
ATOM     28  H   UNL     1       0.036   8.948  22.175  0.00  0.00    +0.000 HD
ATOM     29  H   UNL     1      -1.280  10.414  23.275  0.00  0.00    +0.000 HD
BRANCH  27  30
ATOM     30  C   UNL     1      -1.334  12.521  22.917  0.00  0.00    +0.000 C 
BRANCH  30  31
ATOM     31  C   UNL     1      -2.830  12.610  22.915  0.00  0.00    +0.000 A 
ATOM     32  C   UNL     1      -3.517  12.791  21.704  0.00  0.00    +0.000 A 
ATOM     33  C   UNL     1      -4.899  12.978  21.695  0.00  0.00    +0.000 A 
ATOM     34  C   UNL     1      -5.610  12.944  22.893  0.00  0.00    +0.000 A 
ATOM     35  C   UNL     1      -4.946  12.714  24.096  0.00  0.00    +0.000 A 
ATOM     36  C   UNL     1      -3.559  12.544  24.107  0.00  0.00    +0.000 A 
ENDBRANCH  30  31
ENDBRANCH  27  30
ENDBRANCH   5  24
TORSDOF 8
ENDMDL
MODEL 5
REMARK VINA RESULT:      -8.8      4.418     10.322
REMARK  Name = 
REMARK  9 active torsions:
REMARK  status: ('A' for Active; 'I' for Inactive)
REMARK    1  A    between atoms: C_1  and  N_2
REMARK    2  A    between atoms: N_7  and  C_8
REMARK    3  A    between atoms: C_8  and  C_9
REMARK    4  A    between atoms: C_9  and  C_10
REMARK    5  A    between atoms: C_10  and  O_11
REMARK    6  A    between atoms: C_13  and  C_14
REMARK    7  A    between atoms: C_18  and  N_19
REMARK    8  A    between atoms: N_22  and  C_23
REMARK    9  A    between atoms: C_23  and  C_24
REMARK                            x       y       z     vdW  Elec       q    Type
REMARK                         _______ _______ _______ _____ _____    ______ ____
ROOT
ATOM      1  C   UNL     1      -1.486  11.532  19.246  0.00  0.00    +0.000 A 
ATOM      2  C   UNL     1      -0.958  12.400  20.194  0.00  0.00    +0.000 A 
ATOM      3  C   UNL     1       0.328  12.212  20.697  0.00  0.00    +0.000 A 
ATOM      4  C   UNL     1       1.102  11.140  20.242  0.00  0.00    +0.000 A 
ATOM      5  C   UNL     1       0.627  10.245  19.306  0.00  0.00    +0.000 A 
ATOM      6  C   UNL     1      -0.673  10.451  18.830  0.00  0.00    +0.000 A 
ENDROOT
BRANCH   1  15
ATOM      7  C   UNL     1      -6.321  13.193  20.784  0.00  0.00    +0.000 C 
ATOM      8  N   UNL     1      -6.145  12.703  19.438  0.00  0.00    +0.000 N 
ATOM      9  C   UNL     1      -7.114  12.599  18.482  0.00  0.00    +0.000 A 
ATOM     10  N   UNL     1      -6.630  12.090  17.359  0.00  0.00    +0.000 NA
ATOM     11  C   UNL     1      -5.290  11.876  17.602  0.00  0.00    +0.000 A 
ATOM     12  C   UNL     1      -4.234  11.343  16.831  0.00  0.00    +0.000 A 
ATOM     13  N   UNL     1      -4.386  10.892  15.524  0.00  0.00    +0.000 N 
ATOM     14  N   UNL     1      -3.014  11.274  17.405  0.00  0.00    +0.000 NA
ATOM     15  C   UNL     1      -2.834  11.693  18.681  0.00  0.00    +0.000 A 
ATOM     16  N   UNL     1      -3.783  12.215  19.497  0.00  0.00    +0.000 NA
ATOM     17  C   UNL     1      -4.969  12.263  18.904  0.00  0.00    +0.000 A 
ATOM     18  H   UNL     1      -4.805  11.564  14.892  0.00  0.00    +0.000 HD
BRANCH  13  19
ATOM     19  C   UNL     1      -3.506   9.850  15.023  0.00  0.00    +0.000 C 
BRANCH  19  20
ATOM     20  C   UNL     1      -3.216  10.006  13.532  0.00  0.00    +0.000 C 
BRANCH  20  21
ATOM     21  C   UNL     1      -4.447   9.677  12.707  0.00  0.00    +0.000 C 
BRANCH  21  22
ATOM     22  O   UNL     1      -4.389  10.373  11.477  0.00  0.00    +0.000 OA
ATOM     23  H   UNL     1      -3.467  10.681  11.445  0.00  0.00    +0.000 HD
ENDBRANCH  21  22
ENDBRANCH  20  21
ENDBRANCH  19  20
ENDBRANCH  13  19
ENDBRANCH   1  15
BRANCH   5  24
ATOM     24  N   UNL     1       1.407   9.166  18.805  0.00  0.00    +0.000 N 
ATOM     25  C   UNL     1       1.811   8.101  19.569  0.00  0.00    +0.000 C 
ATOM     26  O   UNL     1       1.520   7.918  20.766  0.00  0.00    +0.000 OA
ATOM     27  N   UNL     1       2.613   7.196  18.922  0.00  0.00    +0.000 N 
ATOM     28  H   UNL     1       1.682   9.192  17.841  0.00  0.00    +0.000 HD
ATOM     29  H   UNL     1       2.563   7.115  17.914  0.00  0.00    +0.000 HD
BRANCH  27  30
ATOM     30  C   UNL     1       3.048   6.052  19.704  0.00  0.00    +0.000 C 
BRANCH  30  31
ATOM     31  C   UNL     1       2.308   4.792  19.366  0.00  0.00    +0.000 A 
ATOM     32  C   UNL     1       1.348   4.287  20.257  0.00  0.00    +0.000 A 
ATOM     33  C   UNL     1       0.726   3.064  20.008  0.00  0.00    +0.000 A 
ATOM     34  C   UNL     1       1.027   2.358  18.845  0.00  0.00    +0.000 A 
ATOM     35  C   UNL     1       1.941   2.875  17.929  0.00  0.00    +0.000 A 
ATOM     36  C   UNL     1       2.578   4.091  18.186  0.00  0.00    +0.000 A 
ENDBRANCH  30  31
ENDBRANCH  27  30
ENDBRANCH   5  24
TORSDOF 8
ENDMDL
MODEL 6
REMARK VINA RESULT:      -8.8      2.546      5.058
REMARK  Name = 
REMARK  9 active torsions:
REMARK  status: ('A' for Active; 'I' for Inactive)
REMARK    1  A    between atoms: C_1  and  N_2
REMARK    2  A    between atoms: N_7  and  C_8
REMARK    3  A    between atoms: C_8  and  C_9
REMARK    4  A    between atoms: C_9  and  C_10
REMARK    5  A    between atoms: C_10  and  O_11
REMARK    6  A    between atoms: C_13  and  C_14
REMARK    7  A    between atoms: C_18  and  N_19
REMARK    8  A    between atoms: N_22  and  C_23
REMARK    9  A    between atoms: C_23  and  C_24
REMARK                            x       y       z     vdW  Elec       q    Type
REMARK                         _______ _______ _______ _____ _____    ______ ____
ROOT
ATOM      1  C   UNL     1       3.685   4.401  17.340  0.00  0.00    +0.000 A 
ATOM      2  C   UNL     1       2.969   3.214  17.235  0.00  0.00    +0.000 A 
ATOM      3  C   UNL     1       1.924   2.932  18.112  0.00  0.00    +0.000 A 
ATOM      4  C   UNL     1       1.586   3.851  19.110  0.00  0.00    +0.000 A 
ATOM      5  C   UNL     1       2.267   5.042  19.263  0.00  0.00    +0.000 A 
ATOM      6  C   UNL     1       3.320   5.291  18.377  0.00  0.00    +0.000 A 
ENDROOT
BRANCH   1  15
ATOM      7  C   UNL     1       5.569   2.961  12.555  0.00  0.00    +0.000 C 
ATOM      8  N   UNL     1       6.275   3.967  13.313  0.00  0.00    +0.000 N 
ATOM      9  C   UNL     1       7.421   4.606  12.935  0.00  0.00    +0.000 A 
ATOM     10  N   UNL     1       7.826   5.458  13.866  0.00  0.00    +0.000 NA
ATOM     11  C   UNL     1       6.890   5.372  14.873  0.00  0.00    +0.000 A 
ATOM     12  C   UNL     1       6.754   5.996  16.132  0.00  0.00    +0.000 A 
ATOM     13  N   UNL     1       7.656   6.930  16.629  0.00  0.00    +0.000 N 
ATOM     14  N   UNL     1       5.684   5.662  16.884  0.00  0.00    +0.000 NA
ATOM     15  C   UNL     1       4.791   4.746  16.434  0.00  0.00    +0.000 A 
ATOM     16  N   UNL     1       4.838   4.094  15.246  0.00  0.00    +0.000 NA
ATOM     17  C   UNL     1       5.904   4.443  14.536  0.00  0.00    +0.000 A 
ATOM     18  H   UNL     1       7.838   7.713  16.012  0.00  0.00    +0.000 HD
BRANCH  13  19
ATOM     19  C   UNL     1       7.822   7.064  18.067  0.00  0.00    +0.000 C 
BRANCH  19  20
ATOM     20  C   UNL     1       8.235   5.751  18.727  0.00  0.00    +0.000 C 
BRANCH  20  21
ATOM     21  C   UNL     1       7.412   5.494  19.977  0.00  0.00    +0.000 C 
BRANCH  21  22
ATOM     22  O   UNL     1       8.277   5.220  21.062  0.00  0.00    +0.000 OA
ATOM     23  H   UNL     1       7.728   5.433  21.836  0.00  0.00    +0.000 HD
ENDBRANCH  21  22
ENDBRANCH  20  21
ENDBRANCH  19  20
ENDBRANCH  13  19
ENDBRANCH   1  15
BRANCH   5  24
ATOM     24  N   UNL     1       1.920   6.006  20.250  0.00  0.00    +0.000 N 
ATOM     25  C   UNL     1       1.933   7.360  20.026  0.00  0.00    +0.000 C 
ATOM     26  O   UNL     1       2.203   7.912  18.943  0.00  0.00    +0.000 OA
ATOM     27  N   UNL     1       1.633   8.130  21.121  0.00  0.00    +0.000 N 
ATOM     28  H   UNL     1       1.660   5.677  21.160  0.00  0.00    +0.000 HD
ATOM     29  H   UNL     1       1.075   7.737  21.870  0.00  0.00    +0.000 HD
BRANCH  27  30
ATOM     30  C   UNL     1       1.630   9.566  20.912  0.00  0.00    +0.000 C 
BRANCH  30  31
ATOM     31  C   UNL     1       0.517  10.264  21.636  0.00  0.00    +0.000 A 
ATOM     32  C   UNL     1       0.227  11.606  21.341  0.00  0.00    +0.000 A 
ATOM     33  C   UNL     1      -0.734  12.300  22.076  0.00  0.00    +0.000 A 
ATOM     34  C   UNL     1      -1.443  11.646  23.082  0.00  0.00    +0.000 A 
ATOM     35  C   UNL     1      -1.199  10.300  23.348  0.00  0.00    +0.000 A 
ATOM     36  C   UNL     1      -0.223   9.609  22.625  0.00  0.00    +0.000 A 
ENDBRANCH  30  31
ENDBRANCH  27  30
ENDBRANCH   5  24
TORSDOF 8
ENDMDL
MODEL 7
REMARK VINA RESULT:      -8.7      1.130      1.733
REMARK  Name = 
REMARK  9 active torsions:
REMARK  status: ('A' for Active; 'I' for Inactive)
REMARK    1  A    between atoms: C_1  and  N_2
REMARK    2  A    between atoms: N_7  and  C_8
REMARK    3  A    between atoms: C_8  and  C_9
REMARK    4  A    between atoms: C_9  and  C_10
REMARK    5  A    between atoms: C_10  and  O_11
REMARK    6  A    between atoms: C_13  and  C_14
REMARK    7  A    between atoms: C_18  and  N_19
REMARK    8  A    between atoms: N_22  and  C_23
REMARK    9  A    between atoms: C_23  and  C_24
REMARK                            x       y       z     vdW  Elec       q    Type
REMARK                         _______ _______ _______ _____ _____    ______ ____
ROOT
ATOM      1  C   UNL     1       2.235   7.781  19.028  0.00  0.00    +0.000 A 
ATOM      2  C   UNL     1       2.096   8.506  17.851  0.00  0.00    +0.000 A 
ATOM      3  C   UNL     1       1.432   9.731  17.841  0.00  0.00    +0.000 A 
ATOM      4  C   UNL     1       0.900  10.243  19.029  0.00  0.00    +0.000 A 
ATOM      5  C   UNL     1       1.005   9.563  20.225  0.00  0.00    +0.000 A 
ATOM      6  C   UNL     1       1.664   8.329  20.201  0.00  0.00    +0.000 A 
ENDROOT
BRANCH   1  15
ATOM      7  C   UNL     1       1.839   3.111  21.588  0.00  0.00    +0.000 C 
ATOM      8  N   UNL     1       2.930   3.313  20.663  0.00  0.00    +0.000 N 
ATOM      9  C   UNL     1       3.915   2.416  20.368  0.00  0.00    +0.000 A 
ATOM     10  N   UNL     1       4.778   2.917  19.497  0.00  0.00    +0.000 NA
ATOM     11  C   UNL     1       4.313   4.182  19.208  0.00  0.00    +0.000 A 
ATOM     12  C   UNL     1       4.780   5.226  18.381  0.00  0.00    +0.000 A 
ATOM     13  N   UNL     1       5.935   5.140  17.611  0.00  0.00    +0.000 N 
ATOM     14  N   UNL     1       4.056   6.365  18.341  0.00  0.00    +0.000 NA
ATOM     15  C   UNL     1       2.932   6.487  19.089  0.00  0.00    +0.000 A 
ATOM     16  N   UNL     1       2.408   5.546  19.912  0.00  0.00    +0.000 NA
ATOM     17  C   UNL     1       3.147   4.442  19.930  0.00  0.00    +0.000 A 
ATOM     18  H   UNL     1       5.973   4.335  16.996  0.00  0.00    +0.000 HD
BRANCH  13  19
ATOM     19  C   UNL     1       6.672   6.351  17.294  0.00  0.00    +0.000 C 
BRANCH  19  20
ATOM     20  C   UNL     1       7.729   6.677  18.347  0.00  0.00    +0.000 C 
BRANCH  20  21
ATOM     21  C   UNL     1       8.155   5.422  19.089  0.00  0.00    +0.000 C 
BRANCH  21  22
ATOM     22  O   UNL     1       7.760   5.519  20.443  0.00  0.00    +0.000 OA
ATOM     23  H   UNL     1       6.902   5.973  20.387  0.00  0.00    +0.000 HD
ENDBRANCH  21  22
ENDBRANCH  20  21
ENDBRANCH  19  20
ENDBRANCH  13  19
ENDBRANCH   1  15
BRANCH   5  24
ATOM     24  N   UNL     1       0.500  10.078  21.451  0.00  0.00    +0.000 N 
ATOM     25  C   UNL     1      -0.695  10.742  21.562  0.00  0.00    +0.000 C 
ATOM     26  O   UNL     1      -1.501  10.943  20.634  0.00  0.00    +0.000 OA
ATOM     27  N   UNL     1      -0.976  11.221  22.816  0.00  0.00    +0.000 N 
ATOM     28  H   UNL     1       1.054   9.953  22.278  0.00  0.00    +0.000 HD
ATOM     29  H   UNL     1      -0.556  10.780  23.625  0.00  0.00    +0.000 HD
BRANCH  27  30
ATOM     30  C   UNL     1      -2.240  11.920  22.966  0.00  0.00    +0.000 C 
BRANCH  30  31
ATOM     31  C   UNL     1      -2.081  13.321  23.477  0.00  0.00    +0.000 A 
ATOM     32  C   UNL     1      -0.935  14.060  23.145  0.00  0.00    +0.000 A 
ATOM     33  C   UNL     1      -0.723  15.324  23.694  0.00  0.00    +0.000 A 
ATOM     34  C   UNL     1      -1.677  15.877  24.547  0.00  0.00    +0.000 A 
ATOM     35  C   UNL     1      -2.843  15.174  24.843  0.00  0.00    +0.000 A 
ATOM     36  C   UNL     1      -3.047  13.900  24.307  0.00  0.00    +0.000 A 
ENDBRANCH  30  31
ENDBRANCH  27  30
ENDBRANCH   5  24
TORSDOF 8
ENDMDL
MODEL 8
REMARK VINA RESULT:      -8.5      3.611      4.416
REMARK  Name = 
REMARK  9 active torsions:
REMARK  status: ('A' for Active; 'I' for Inactive)
REMARK    1  A    between atoms: C_1  and  N_2
REMARK    2  A    between atoms: N_7  and  C_8
REMARK    3  A    between atoms: C_8  and  C_9
REMARK    4  A    between atoms: C_9  and  C_10
REMARK    5  A    between atoms: C_10  and  O_11
REMARK    6  A    between atoms: C_13  and  C_14
REMARK    7  A    between atoms: C_18  and  N_19
REMARK    8  A    between atoms: N_22  and  C_23
REMARK    9  A    between atoms: C_23  and  C_24
REMARK                            x       y       z     vdW  Elec       q    Type
REMARK                         _______ _______ _______ _____ _____    ______ ____
ROOT
ATOM      1  C   UNL     1       1.484   7.963  20.308  0.00  0.00    +0.000 A 
ATOM      2  C   UNL     1       0.753   8.032  21.488  0.00  0.00    +0.000 A 
ATOM      3  C   UNL     1       0.141   9.221  21.879  0.00  0.00    +0.000 A 
ATOM      4  C   UNL     1       0.258  10.360  21.078  0.00  0.00    +0.000 A 
ATOM      5  C   UNL     1       0.976  10.349  19.899  0.00  0.00    +0.000 A 
ATOM      6  C   UNL     1       1.592   9.145  19.539  0.00  0.00    +0.000 A 
ENDROOT
BRANCH   1  15
ATOM      7  C   UNL     1       1.798   2.814  21.689  0.00  0.00    +0.000 C 
ATOM      8  N   UNL     1       2.559   3.283  20.555  0.00  0.00    +0.000 N 
ATOM      9  C   UNL     1       3.391   2.533  19.775  0.00  0.00    +0.000 A 
ATOM     10  N   UNL     1       3.957   3.268  18.829  0.00  0.00    +0.000 NA
ATOM     11  C   UNL     1       3.450   4.538  19.001  0.00  0.00    +0.000 A 
ATOM     12  C   UNL     1       3.663   5.769  18.343  0.00  0.00    +0.000 A 
ATOM     13  N   UNL     1       4.527   5.925  17.264  0.00  0.00    +0.000 N 
ATOM     14  N   UNL     1       2.983   6.845  18.792  0.00  0.00    +0.000 NA
ATOM     15  C   UNL     1       2.143   6.730  19.849  0.00  0.00    +0.000 A 
ATOM     16  N   UNL     1       1.876   5.597  20.545  0.00  0.00    +0.000 NA
ATOM     17  C   UNL     1       2.564   4.561  20.079  0.00  0.00    +0.000 A 
ATOM     18  H   UNL     1       4.361   5.287  16.494  0.00  0.00    +0.000 HD
BRANCH  13  19
ATOM     19  C   UNL     1       5.156   7.215  17.037  0.00  0.00    +0.000 C 
BRANCH  19  20
ATOM     20  C   UNL     1       6.656   7.185  17.321  0.00  0.00    +0.000 C 
BRANCH  20  21
ATOM     21  C   UNL     1       7.229   5.806  17.049  0.00  0.00    +0.000 C 
BRANCH  21  22
ATOM     22  O   UNL     1       7.365   5.619  15.654  0.00  0.00    +0.000 OA
ATOM     23  H   UNL     1       6.992   4.732  15.516  0.00  0.00    +0.000 HD
ENDBRANCH  21  22
ENDBRANCH  20  21
ENDBRANCH  19  20
ENDBRANCH  13  19
ENDBRANCH   1  15
BRANCH   5  24
ATOM     24  N   UNL     1       1.083  11.487  19.051  0.00  0.00    +0.000 N 
ATOM     25  C   UNL     1       1.632  12.680  19.446  0.00  0.00    +0.000 C 
ATOM     26  O   UNL     1       2.137  12.911  20.560  0.00  0.00    +0.000 OA
ATOM     27  N   UNL     1       1.583  13.678  18.506  0.00  0.00    +0.000 N 
ATOM     28  H   UNL     1       0.730  11.411  18.115  0.00  0.00    +0.000 HD
ATOM     29  H   UNL     1       1.528  13.437  17.524  0.00  0.00    +0.000 HD
BRANCH  27  30
ATOM     30  C   UNL     1       2.166  14.950  18.892  0.00  0.00    +0.000 C 
BRANCH  30  31
ATOM     31  C   UNL     1       1.412  16.131  18.356  0.00  0.00    +0.000 A 
ATOM     32  C   UNL     1       0.031  16.237  18.581  0.00  0.00    +0.000 A 
ATOM     33  C   UNL     1      -0.702  17.273  18.004  0.00  0.00    +0.000 A 
ATOM     34  C   UNL     1      -0.053  18.235  17.232  0.00  0.00    +0.000 A 
ATOM     35  C   UNL     1       1.326  18.168  17.044  0.00  0.00    +0.000 A 
ATOM     36  C   UNL     1       2.058  17.120  17.608  0.00  0.00    +0.000 A 
ENDBRANCH  30  31
ENDBRANCH  27  30
ENDBRANCH   5  24
TORSDOF 8
ENDMDL
MODEL 9
REMARK VINA RESULT:      -8.5      1.631      1.948
REMARK  Name = 
REMARK  9 active torsions:
REMARK  status: ('A' for Active; 'I' for Inactive)
REMARK    1  A    between atoms: C_1  and  N_2
REMARK    2  A    between atoms: N_7  and  C_8
REMARK    3  A    between atoms: C_8  and  C_9
REMARK    4  A    between atoms: C_9  and  C_10
REMARK    5  A    between atoms: C_10  and  O_11
REMARK    6  A    between atoms: C_13  and  C_14
REMARK    7  A    between atoms: C_18  and  N_19
REMARK    8  A    between atoms: N_22  and  C_23
REMARK    9  A    between atoms: C_23  and  C_24
REMARK                            x       y       z     vdW  Elec       q    Type
REMARK                         _______ _______ _______ _____ _____    ______ ____
ROOT
ATOM      1  C   UNL     1       2.179   7.704  18.883  0.00  0.00    +0.000 A 
ATOM      2  C   UNL     1       2.374   8.612  17.849  0.00  0.00    +0.000 A 
ATOM      3  C   UNL     1       1.862   9.906  17.929  0.00  0.00    +0.000 A 
ATOM      4  C   UNL     1       1.145  10.301  19.063  0.00  0.00    +0.000 A 
ATOM      5  C   UNL     1       0.917   9.439  20.116  0.00  0.00    +0.000 A 
ATOM      6  C   UNL     1       1.431   8.143  20.001  0.00  0.00    +0.000 A 
ENDROOT
BRANCH   1  15
ATOM      7  C   UNL     1       2.084   3.278  21.869  0.00  0.00    +0.000 C 
ATOM      8  N   UNL     1       2.838   3.277  20.638  0.00  0.00    +0.000 N 
ATOM      9  C   UNL     1       3.568   2.237  20.139  0.00  0.00    +0.000 A 
ATOM     10  N   UNL     1       4.159   2.566  19.000  0.00  0.00    +0.000 NA
ATOM     11  C   UNL     1       3.776   3.866  18.751  0.00  0.00    +0.000 A 
ATOM     12  C   UNL     1       4.071   4.789  17.725  0.00  0.00    +0.000 A 
ATOM     13  N   UNL     1       4.902   4.502  16.647  0.00  0.00    +0.000 N 
ATOM     14  N   UNL     1       3.510   6.014  17.804  0.00  0.00    +0.000 NA
ATOM     15  C   UNL     1       2.705   6.331  18.848  0.00  0.00    +0.000 A 
ATOM     16  N   UNL     1       2.366   5.517  19.878  0.00  0.00    +0.000 NA
ATOM     17  C   UNL     1       2.939   4.324  19.770  0.00  0.00    +0.000 A 
ATOM     18  H   UNL     1       4.649   3.668  16.129  0.00  0.00    +0.000 HD
BRANCH  13  19
ATOM     19  C   UNL     1       5.634   5.580  16.005  0.00  0.00    +0.000 C 
BRANCH  19  20
ATOM     20  C   UNL     1       7.038   5.154  15.581  0.00  0.00    +0.000 C 
BRANCH  20  21
ATOM     21  C   UNL     1       7.100   4.914  14.083  0.00  0.00    +0.000 C 
BRANCH  21  22
ATOM     22  O   UNL     1       8.150   5.681  13.526  0.00  0.00    +0.000 OA
ATOM     23  H   UNL     1       7.971   5.633  12.572  0.00  0.00    +0.000 HD
ENDBRANCH  21  22
ENDBRANCH  20  21
ENDBRANCH  19  20
ENDBRANCH  13  19
ENDBRANCH   1  15
BRANCH   5  24
ATOM     24  N   UNL     1       0.218   9.828  21.293  0.00  0.00    +0.000 N 
ATOM     25  C   UNL     1      -0.269  11.093  21.504  0.00  0.00    +0.000 C 
ATOM     26  O   UNL     1      -0.204  12.038  20.696  0.00  0.00    +0.000 OA
ATOM     27  N   UNL     1      -0.854  11.289  22.729  0.00  0.00    +0.000 N 
ATOM     28  H   UNL     1       0.083   9.139  22.009  0.00  0.00    +0.000 HD
ATOM     29  H   UNL     1      -1.240  10.499  23.231  0.00  0.00    +0.000 HD
BRANCH  27  30
ATOM     30  C   UNL     1      -1.388  12.616  22.978  0.00  0.00    +0.000 C 
BRANCH  30  31
ATOM     31  C   UNL     1      -2.887  12.652  23.011  0.00  0.00    +0.000 A 
ATOM     32  C   UNL     1      -3.609  12.788  21.815  0.00  0.00    +0.000 A 
ATOM     33  C   UNL     1      -4.996  12.925  21.838  0.00  0.00    +0.000 A 
ATOM     34  C   UNL     1      -5.677  12.884  23.053  0.00  0.00    +0.000 A 
ATOM     35  C   UNL     1      -4.976  12.698  24.242  0.00  0.00    +0.000 A 
ATOM     36  C   UNL     1      -3.584  12.578  24.222  0.00  0.00    +0.000 A 
ENDBRANCH  30  31
ENDBRANCH  27  30
ENDBRANCH   5  24
TORSDOF 8
ENDMDL
