MODEL 1
REMARK VINA RESULT:      -8.3      0.000      0.000
REMARK  Name = 
REMARK  8 active torsions:
REMARK  status: ('A' for Active; 'I' for Inactive)
REMARK    1  A    between atoms: C_1  and  C_2
REMARK    2  A    between atoms: C_8  and  N_9
REMARK    3  A    between atoms: C_10  and  S_11
REMARK    4  A    between atoms: N_12  and  C_13
REMARK    5  A    between atoms: C_13  and  C_14
REMARK    6  A    between atoms: C_14  and  C_15
REMARK    7  A    between atoms: C_15  and  C_16
REMARK    8  A    between atoms: C_15  and  C_22
REMARK                            x       y       z     vdW  Elec       q    Type
REMARK                         _______ _______ _______ _____ _____    ______ ____
ROOT
ATOM      1  C   UNL     1       2.444   8.670  17.679  0.00  0.00    +0.000 C 
ENDROOT
BRANCH   1   4
ATOM      2  N   UNL     1      -0.336   9.854  19.644  0.00  0.00    +0.000 NA
ATOM      3  C   UNL     1       0.712  10.055  18.887  0.00  0.00    +0.000 C 
ATOM      4  N   UNL     1       1.075   9.049  18.022  0.00  0.00    +0.000 N 
ATOM      5  H   UNL     1       0.446   8.258  18.115  0.00  0.00    +0.000 HD
BRANCH   2  13
ATOM      6  C   UNL     1       0.350   9.493  22.500  0.00  0.00    +0.000 C 
ATOM      7  C   UNL     1      -0.556  10.580  21.984  0.00  0.00    +0.000 A 
ATOM      8  C   UNL     1      -1.063  11.505  22.922  0.00  0.00    +0.000 A 
ATOM      9  C   UNL     1      -1.845  12.580  22.508  0.00  0.00    +0.000 A 
ATOM     10 CL   UNL     1      -2.510  13.663  23.666  0.00  0.00    +0.000 Cl
ATOM     11  C   UNL     1      -2.070  12.792  21.156  0.00  0.00    +0.000 A 
ATOM     12  C   UNL     1      -1.521  11.914  20.219  0.00  0.00    +0.000 A 
ATOM     13  C   UNL     1      -0.827  10.755  20.610  0.00  0.00    +0.000 A 
ENDBRANCH   2  13
BRANCH   3  14
ATOM     14  S   UNL     1       1.690  11.519  18.815  0.00  0.00    +0.000 S 
ATOM     15  H   UNL     1       1.633  11.865  20.102  0.00  0.00    +0.000 HD
ENDBRANCH   3  14
ENDBRANCH   1   4
BRANCH   1  16
ATOM     16  C   UNL     1       2.915   7.528  18.584  0.00  0.00    +0.000 C 
BRANCH  16  17
ATOM     17  C   UNL     1       3.018   6.159  17.858  0.00  0.00    +0.000 C 
BRANCH  17  18
ATOM     18  C   UNL     1       4.465   5.750  17.593  0.00  0.00    +0.000 A 
ATOM     19  C   UNL     1       4.945   5.537  16.293  0.00  0.00    +0.000 A 
ATOM     20  C   UNL     1       6.259   5.115  16.077  0.00  0.00    +0.000 A 
ATOM     21  C   UNL     1       7.119   4.916  17.155  0.00  0.00    +0.000 A 
ATOM     22  C   UNL     1       6.666   5.147  18.451  0.00  0.00    +0.000 A 
ATOM     23  C   UNL     1       5.352   5.563  18.670  0.00  0.00    +0.000 A 
ENDBRANCH  17  18
BRANCH  17  24
ATOM     24  C   UNL     1       2.211   5.051  18.548  0.00  0.00    +0.000 A 
ATOM     25  C   UNL     1       1.912   5.166  19.919  0.00  0.00    +0.000 A 
ATOM     26  C   UNL     1       1.232   4.147  20.594  0.00  0.00    +0.000 A 
ATOM     27  C   UNL     1       0.834   3.000  19.913  0.00  0.00    +0.000 A 
ATOM     28  C   UNL     1       1.100   2.880  18.552  0.00  0.00    +0.000 A 
ATOM     29  C   UNL     1       1.772   3.900  17.874  0.00  0.00    +0.000 A 
ENDBRANCH  17  24
ENDBRANCH  16  17
ENDBRANCH   1  16
TORSDOF 7
ENDMDL
MODEL 2
REMARK VINA RESULT:      -8.3      0.707      1.514
REMARK  Name = 
REMARK  8 active torsions:
REMARK  status: ('A' for Active; 'I' for Inactive)
REMARK    1  A    between atoms: C_1  and  C_2
REMARK    2  A    between atoms: C_8  and  N_9
REMARK    3  A    between atoms: C_10  and  S_11
REMARK    4  A    between atoms: N_12  and  C_13
REMARK    5  A    between atoms: C_13  and  C_14
REMARK    6  A    between atoms: C_14  and  C_15
REMARK    7  A    between atoms: C_15  and  C_16
REMARK    8  A    between atoms: C_15  and  C_22
REMARK                            x       y       z     vdW  Elec       q    Type
REMARK                         _______ _______ _______ _____ _____    ______ ____
ROOT
ATOM      1  C   UNL     1       2.146   8.804  17.718  0.00  0.00    +0.000 C 
ENDROOT
BRANCH   1   4
ATOM      2  N   UNL     1      -0.617  10.209  19.556  0.00  0.00    +0.000 NA
ATOM      3  C   UNL     1       0.483  10.324  18.857  0.00  0.00    +0.000 C 
ATOM      4  N   UNL     1       0.800   9.300  17.996  0.00  0.00    +0.000 N 
ATOM      5  H   UNL     1       0.099   8.568  18.043  0.00  0.00    +0.000 HD
BRANCH   2  13
ATOM      6  C   UNL     1      -2.783  12.104  18.865  0.00  0.00    +0.000 C 
ATOM      7  C   UNL     1      -2.073  12.087  20.194  0.00  0.00    +0.000 A 
ATOM      8  C   UNL     1      -2.508  13.002  21.177  0.00  0.00    +0.000 A 
ATOM      9  C   UNL     1      -1.950  12.993  22.451  0.00  0.00    +0.000 A 
ATOM     10 CL   UNL     1      -2.442  14.154  23.620  0.00  0.00    +0.000 Cl
ATOM     11  C   UNL     1      -1.010  12.031  22.789  0.00  0.00    +0.000 A 
ATOM     12  C   UNL     1      -0.620  11.085  21.839  0.00  0.00    +0.000 A 
ATOM     13  C   UNL     1      -1.076  11.140  20.510  0.00  0.00    +0.000 A 
ENDBRANCH   2  13
BRANCH   3  14
ATOM     14  S   UNL     1       1.591  11.695  18.861  0.00  0.00    +0.000 S 
ATOM     15  H   UNL     1       0.739  12.645  18.471  0.00  0.00    +0.000 HD
ENDBRANCH   3  14
ENDBRANCH   1   4
BRANCH   1  16
ATOM     16  C   UNL     1       2.516   7.703  18.716  0.00  0.00    +0.000 C 
BRANCH  16  17
ATOM     17  C   UNL     1       2.930   6.365  18.045  0.00  0.00    +0.000 C 
BRANCH  17  18
ATOM     18  C   UNL     1       4.444   6.169  18.028  0.00  0.00    +0.000 A 
ATOM     19  C   UNL     1       5.237   6.639  16.970  0.00  0.00    +0.000 A 
ATOM     20  C   UNL     1       6.614   6.404  16.951  0.00  0.00    +0.000 A 
ATOM     21  C   UNL     1       7.223   5.712  17.995  0.00  0.00    +0.000 A 
ATOM     22  C   UNL     1       6.455   5.260  19.065  0.00  0.00    +0.000 A 
ATOM     23  C   UNL     1       5.078   5.487  19.084  0.00  0.00    +0.000 A 
ENDBRANCH  17  18
BRANCH  17  24
ATOM     24  C   UNL     1       2.187   5.151  18.618  0.00  0.00    +0.000 A 
ATOM     25  C   UNL     1       1.792   5.157  19.969  0.00  0.00    +0.000 A 
ATOM     26  C   UNL     1       1.167   4.043  20.540  0.00  0.00    +0.000 A 
ATOM     27  C   UNL     1       0.921   2.908  19.772  0.00  0.00    +0.000 A 
ATOM     28  C   UNL     1       1.282   2.894  18.428  0.00  0.00    +0.000 A 
ATOM     29  C   UNL     1       1.899   4.008  17.855  0.00  0.00    +0.000 A 
ENDBRANCH  17  24
ENDBRANCH  16  17
ENDBRANCH   1  16
TORSDOF 7
ENDMDL
MODEL 3
REMARK VINA RESULT:      -8.2      1.205      3.745
REMARK  Name = 
REMARK  8 active torsions:
REMARK  status: ('A' for Active; 'I' for Inactive)
REMARK    1  A    between atoms: C_1  and  C_2
REMARK    2  A    between atoms: C_8  and  N_9
REMARK    3  A    between atoms: C_10  and  S_11
REMARK    4  A    between atoms: N_12  and  C_13
REMARK    5  A    between atoms: C_13  and  C_14
REMARK    6  A    between atoms: C_14  and  C_15
REMARK    7  A    between atoms: C_15  and  C_16
REMARK    8  A    between atoms: C_15  and  C_22
REMARK                            x       y       z     vdW  Elec       q    Type
REMARK                         _______ _______ _______ _____ _____    ______ ____
ROOT
ATOM      1  C   UNL     1       2.110   8.842  17.797  0.00  0.00    +0.000 C 
ENDROOT
BRANCH   1   4
ATOM      2  N   UNL     1       1.006  10.436  20.836  0.00  0.00    +0.000 NA
ATOM      3  C   UNL     1       0.787   9.949  19.641  0.00  0.00    +0.000 C 
ATOM      4  N   UNL     1       1.652   8.986  19.178  0.00  0.00    +0.000 N 
ATOM      5  H   UNL     1       2.373   8.796  19.867  0.00  0.00    +0.000 HD
BRANCH   2  13
ATOM      6  C   UNL     1      -0.753   9.795  23.128  0.00  0.00    +0.000 C 
ATOM      7  C   UNL     1      -0.636  11.166  22.516  0.00  0.00    +0.000 A 
ATOM      8  C   UNL     1      -1.379  12.210  23.109  0.00  0.00    +0.000 A 
ATOM      9  C   UNL     1      -1.263  13.517  22.644  0.00  0.00    +0.000 A 
ATOM     10 CL   UNL     1      -2.220  14.768  23.332  0.00  0.00    +0.000 Cl
ATOM     11  C   UNL     1      -0.357  13.816  21.638  0.00  0.00    +0.000 A 
ATOM     12  C   UNL     1       0.424  12.797  21.088  0.00  0.00    +0.000 A 
ATOM     13  C   UNL     1       0.247  11.451  21.452  0.00  0.00    +0.000 A 
ENDBRANCH   2  13
BRANCH   3  14
ATOM     14  S   UNL     1      -0.549  10.361  18.569  0.00  0.00    +0.000 S 
ATOM     15  H   UNL     1      -1.508  10.503  19.484  0.00  0.00    +0.000 HD
ENDBRANCH   3  14
ENDBRANCH   1   4
BRANCH   1  16
ATOM     16  C   UNL     1       2.307   7.361  17.462  0.00  0.00    +0.000 C 
BRANCH  16  17
ATOM     17  C   UNL     1       3.007   6.553  18.587  0.00  0.00    +0.000 C 
BRANCH  17  18
ATOM     18  C   UNL     1       2.229   5.296  18.969  0.00  0.00    +0.000 A 
ATOM     19  C   UNL     1       1.791   5.069  20.282  0.00  0.00    +0.000 A 
ATOM     20  C   UNL     1       1.124   3.890  20.619  0.00  0.00    +0.000 A 
ATOM     21  C   UNL     1       0.870   2.925  19.647  0.00  0.00    +0.000 A 
ATOM     22  C   UNL     1       1.276   3.144  18.333  0.00  0.00    +0.000 A 
ATOM     23  C   UNL     1       1.948   4.320  17.995  0.00  0.00    +0.000 A 
ENDBRANCH  17  18
BRANCH  17  24
ATOM     24  C   UNL     1       4.483   6.263  18.289  0.00  0.00    +0.000 A 
ATOM     25  C   UNL     1       5.237   5.505  19.205  0.00  0.00    +0.000 A 
ATOM     26  C   UNL     1       6.601   5.273  18.997  0.00  0.00    +0.000 A 
ATOM     27  C   UNL     1       7.234   5.787  17.868  0.00  0.00    +0.000 A 
ATOM     28  C   UNL     1       6.499   6.519  16.939  0.00  0.00    +0.000 A 
ATOM     29  C   UNL     1       5.135   6.745  17.143  0.00  0.00    +0.000 A 
ENDBRANCH  17  24
ENDBRANCH  16  17
ENDBRANCH   1  16
TORSDOF 7
ENDMDL
MODEL 4
REMARK VINA RESULT:      -8.2      0.811      1.228
REMARK  Name = 
REMARK  8 active torsions:
REMARK  status: ('A' for Active; 'I' for Inactive)
REMARK    1  A    between atoms: C_1  and  C_2
REMARK    2  A    between atoms: C_8  and  N_9
REMARK    3  A    between atoms: C_10  and  S_11
REMARK    4  A    between atoms: N_12  and  C_13
REMARK    5  A    between atoms: C_13  and  C_14
REMARK    6  A    between atoms: C_14  and  C_15
REMARK    7  A    between atoms: C_15  and  C_16
REMARK    8  A    between atoms: C_15  and  C_22
REMARK                            x       y       z     vdW  Elec       q    Type
REMARK                         _______ _______ _______ _____ _____    ______ ____
ROOT
ATOM      1  C   UNL     1       2.312   8.555  17.906  0.00  0.00    +0.000 C 
ENDROOT
BRANCH   1   4
ATOM      2  N   UNL     1      -0.439  10.044  19.696  0.00  0.00    +0.000 NA
ATOM      3  C   UNL     1       0.648  10.127  18.971  0.00  0.00    +0.000 C 
ATOM      4  N   UNL     1       0.964   9.051  18.175  0.00  0.00    +0.000 N 
ATOM      5  H   UNL     1       0.274   8.314  18.285  0.00  0.00    +0.000 HD
BRANCH   2  13
ATOM      6  C   UNL     1       0.122   9.795  22.591  0.00  0.00    +0.000 C 
ATOM      7  C   UNL     1      -0.683  10.914  21.985  0.00  0.00    +0.000 A 
ATOM      8  C   UNL     1      -1.153  11.924  22.852  0.00  0.00    +0.000 A 
ATOM      9  C   UNL     1      -1.838  13.026  22.352  0.00  0.00    +0.000 A 
ATOM     10 CL   UNL     1      -2.461  14.217  23.425  0.00  0.00    +0.000 Cl
ATOM     11  C   UNL     1      -2.002  13.179  20.984  0.00  0.00    +0.000 A 
ATOM     12  C   UNL     1      -1.487  12.213  20.116  0.00  0.00    +0.000 A 
ATOM     13  C   UNL     1      -0.894  11.031  20.594  0.00  0.00    +0.000 A 
ENDBRANCH   2  13
BRANCH   3  14
ATOM     14  S   UNL     1       1.735  11.509  18.861  0.00  0.00    +0.000 S 
ATOM     15  H   UNL     1       2.428  11.312  19.983  0.00  0.00    +0.000 HD
ENDBRANCH   3  14
ENDBRANCH   1   4
BRANCH   1  16
ATOM     16  C   UNL     1       2.582   7.294  18.733  0.00  0.00    +0.000 C 
BRANCH  16  17
ATOM     17  C   UNL     1       3.223   6.139  17.919  0.00  0.00    +0.000 C 
BRANCH  17  18
ATOM     18  C   UNL     1       4.742   6.095  18.069  0.00  0.00    +0.000 A 
ATOM     19  C   UNL     1       5.358   5.472  19.164  0.00  0.00    +0.000 A 
ATOM     20  C   UNL     1       6.747   5.487  19.307  0.00  0.00    +0.000 A 
ATOM     21  C   UNL     1       7.544   6.111  18.349  0.00  0.00    +0.000 A 
ATOM     22  C   UNL     1       6.952   6.712  17.242  0.00  0.00    +0.000 A 
ATOM     23  C   UNL     1       5.563   6.704  17.100  0.00  0.00    +0.000 A 
ENDBRANCH  17  18
BRANCH  17  24
ATOM     24  C   UNL     1       2.567   4.778  18.188  0.00  0.00    +0.000 A 
ATOM     25  C   UNL     1       1.688   4.639  19.279  0.00  0.00    +0.000 A 
ATOM     26  C   UNL     1       1.120   3.400  19.591  0.00  0.00    +0.000 A 
ATOM     27  C   UNL     1       1.414   2.280  18.817  0.00  0.00    +0.000 A 
ATOM     28  C   UNL     1       2.262   2.404  17.720  0.00  0.00    +0.000 A 
ATOM     29  C   UNL     1       2.824   3.643  17.403  0.00  0.00    +0.000 A 
ENDBRANCH  17  24
ENDBRANCH  16  17
ENDBRANCH   1  16
TORSDOF 7
ENDMDL
MODEL 5
REMARK VINA RESULT:      -8.2      0.457      1.680
REMARK  Name = 
REMARK  8 active torsions:
REMARK  status: ('A' for Active; 'I' for Inactive)
REMARK    1  A    between atoms: C_1  and  C_2
REMARK    2  A    between atoms: C_8  and  N_9
REMARK    3  A    between atoms: C_10  and  S_11
REMARK    4  A    between atoms: N_12  and  C_13
REMARK    5  A    between atoms: C_13  and  C_14
REMARK    6  A    between atoms: C_14  and  C_15
REMARK    7  A    between atoms: C_15  and  C_16
REMARK    8  A    between atoms: C_15  and  C_22
REMARK                            x       y       z     vdW  Elec       q    Type
REMARK                         _______ _______ _______ _____ _____    ______ ____
ROOT
ATOM      1  C   UNL     1       2.599   8.585  17.700  0.00  0.00    +0.000 C 
ENDROOT
BRANCH   1   4
ATOM      2  N   UNL     1      -0.249   9.934  19.448  0.00  0.00    +0.000 NA
ATOM      3  C   UNL     1       0.835  10.070  18.728  0.00  0.00    +0.000 C 
ATOM      4  N   UNL     1       1.221   9.002  17.952  0.00  0.00    +0.000 N 
ATOM      5  H   UNL     1       0.577   8.227  18.071  0.00  0.00    +0.000 HD
BRANCH   2  13
ATOM      6  C   UNL     1      -2.382  11.772  18.537  0.00  0.00    +0.000 C 
ATOM      7  C   UNL     1      -1.752  11.828  19.904  0.00  0.00    +0.000 A 
ATOM      8  C   UNL     1      -2.251  12.787  20.812  0.00  0.00    +0.000 A 
ATOM      9  C   UNL     1      -1.769  12.846  22.116  0.00  0.00    +0.000 A 
ATOM     10 CL   UNL     1      -2.337  14.059  23.194  0.00  0.00    +0.000 Cl
ATOM     11  C   UNL     1      -0.845  11.911  22.557  0.00  0.00    +0.000 A 
ATOM     12  C   UNL     1      -0.393  10.922  21.680  0.00  0.00    +0.000 A 
ATOM     13  C   UNL     1      -0.770  10.907  20.326  0.00  0.00    +0.000 A 
ENDBRANCH   2  13
BRANCH   3  14
ATOM     14  S   UNL     1       1.836  11.514  18.600  0.00  0.00    +0.000 S 
ATOM     15  H   UNL     1       1.073  12.354  19.301  0.00  0.00    +0.000 HD
ENDBRANCH   3  14
ENDBRANCH   1   4
BRANCH   1  16
ATOM     16  C   UNL     1       2.975   7.426  18.628  0.00  0.00    +0.000 C 
BRANCH  16  17
ATOM     17  C   UNL     1       3.065   6.054  17.908  0.00  0.00    +0.000 C 
BRANCH  17  18
ATOM     18  C   UNL     1       4.508   5.619  17.667  0.00  0.00    +0.000 A 
ATOM     19  C   UNL     1       5.426   5.486  18.720  0.00  0.00    +0.000 A 
ATOM     20  C   UNL     1       6.754   5.134  18.471  0.00  0.00    +0.000 A 
ATOM     21  C   UNL     1       7.183   4.893  17.167  0.00  0.00    +0.000 A 
ATOM     22  C   UNL     1       6.281   4.996  16.112  0.00  0.00    +0.000 A 
ATOM     23  C   UNL     1       4.954   5.353  16.358  0.00  0.00    +0.000 A 
ENDBRANCH  17  18
BRANCH  17  24
ATOM     24  C   UNL     1       2.228   4.963  18.589  0.00  0.00    +0.000 A 
ATOM     25  C   UNL     1       1.951   5.063  19.966  0.00  0.00    +0.000 A 
ATOM     26  C   UNL     1       1.244   4.056  20.632  0.00  0.00    +0.000 A 
ATOM     27  C   UNL     1       0.797   2.937  19.936  0.00  0.00    +0.000 A 
ATOM     28  C   UNL     1       1.041   2.832  18.569  0.00  0.00    +0.000 A 
ATOM     29  C   UNL     1       1.741   3.840  17.901  0.00  0.00    +0.000 A 
ENDBRANCH  17  24
ENDBRANCH  16  17
ENDBRANCH   1  16
TORSDOF 7
ENDMDL
MODEL 6
REMARK VINA RESULT:      -8.2      1.113      3.702
REMARK  Name = 
REMARK  8 active torsions:
REMARK  status: ('A' for Active; 'I' for Inactive)
REMARK    1  A    between atoms: C_1  and  C_2
REMARK    2  A    between atoms: C_8  and  N_9
REMARK    3  A    between atoms: C_10  and  S_11
REMARK    4  A    between atoms: N_12  and  C_13
REMARK    5  A    between atoms: C_13  and  C_14
REMARK    6  A    between atoms: C_14  and  C_15
REMARK    7  A    between atoms: C_15  and  C_16
REMARK    8  A    between atoms: C_15  and  C_22
REMARK                            x       y       z     vdW  Elec       q    Type
REMARK                         _______ _______ _______ _____ _____    ______ ____
ROOT
ATOM      1  C   UNL     1       2.210   8.760  17.859  0.00  0.00    +0.000 C 
ENDROOT
BRANCH   1   4
ATOM      2  N   UNL     1       1.020  10.356  20.864  0.00  0.00    +0.000 NA
ATOM      3  C   UNL     1       0.838   9.883  19.657  0.00  0.00    +0.000 C 
ATOM      4  N   UNL     1       1.700   8.904  19.221  0.00  0.00    +0.000 N 
ATOM      5  H   UNL     1       2.388   8.693  19.937  0.00  0.00    +0.000 HD
BRANCH   2  13
ATOM      6  C   UNL     1      -0.755   9.760  23.155  0.00  0.00    +0.000 C 
ATOM      7  C   UNL     1      -0.631  11.120  22.520  0.00  0.00    +0.000 A 
ATOM      8  C   UNL     1      -1.375  12.176  23.090  0.00  0.00    +0.000 A 
ATOM      9  C   UNL     1      -1.252  13.473  22.603  0.00  0.00    +0.000 A 
ATOM     10 CL   UNL     1      -2.210  14.739  23.263  0.00  0.00    +0.000 Cl
ATOM     11  C   UNL     1      -0.339  13.753  21.597  0.00  0.00    +0.000 A 
ATOM     12  C   UNL     1       0.443  12.723  21.071  0.00  0.00    +0.000 A 
ATOM     13  C   UNL     1       0.260  11.384  21.457  0.00  0.00    +0.000 A 
ENDBRANCH   2  13
BRANCH   3  14
ATOM     14  S   UNL     1      -0.443  10.333  18.535  0.00  0.00    +0.000 S 
ATOM     15  H   UNL     1      -1.388  10.648  19.421  0.00  0.00    +0.000 HD
ENDBRANCH   3  14
ENDBRANCH   1   4
BRANCH   1  16
ATOM     16  C   UNL     1       2.293   7.278  17.484  0.00  0.00    +0.000 C 
BRANCH  16  17
ATOM     17  C   UNL     1       3.090   6.419  18.503  0.00  0.00    +0.000 C 
BRANCH  17  18
ATOM     18  C   UNL     1       2.313   5.186  18.956  0.00  0.00    +0.000 A 
ATOM     19  C   UNL     1       1.913   4.191  18.051  0.00  0.00    +0.000 A 
ATOM     20  C   UNL     1       1.161   3.096  18.479  0.00  0.00    +0.000 A 
ATOM     21  C   UNL     1       0.809   2.967  19.821  0.00  0.00    +0.000 A 
ATOM     22  C   UNL     1       1.219   3.931  20.738  0.00  0.00    +0.000 A 
ATOM     23  C   UNL     1       1.966   5.031  20.311  0.00  0.00    +0.000 A 
ENDBRANCH  17  18
BRANCH  17  24
ATOM     24  C   UNL     1       4.506   6.078  18.023  0.00  0.00    +0.000 A 
ATOM     25  C   UNL     1       4.864   6.337  16.686  0.00  0.00    +0.000 A 
ATOM     26  C   UNL     1       6.126   5.982  16.197  0.00  0.00    +0.000 A 
ATOM     27  C   UNL     1       7.054   5.369  17.035  0.00  0.00    +0.000 A 
ATOM     28  C   UNL     1       6.726   5.127  18.366  0.00  0.00    +0.000 A 
ATOM     29  C   UNL     1       5.469   5.487  18.857  0.00  0.00    +0.000 A 
ENDBRANCH  17  24
ENDBRANCH  16  17
ENDBRANCH   1  16
TORSDOF 7
ENDMDL
MODEL 7
REMARK VINA RESULT:      -8.2      1.337      1.779
REMARK  Name = 
REMARK  8 active torsions:
REMARK  status: ('A' for Active; 'I' for Inactive)
REMARK    1  A    between atoms: C_1  and  C_2
REMARK    2  A    between atoms: C_8  and  N_9
REMARK    3  A    between atoms: C_10  and  S_11
REMARK    4  A    between atoms: N_12  and  C_13
REMARK    5  A    between atoms: C_13  and  C_14
REMARK    6  A    between atoms: C_14  and  C_15
REMARK    7  A    between atoms: C_15  and  C_16
REMARK    8  A    between atoms: C_15  and  C_22
REMARK                            x       y       z     vdW  Elec       q    Type
REMARK                         _______ _______ _______ _____ _____    ______ ____
ROOT
ATOM      1  C   UNL     1       1.896   8.398  17.960  0.00  0.00    +0.000 C 
ENDROOT
BRANCH   1   4
ATOM      2  N   UNL     1       1.000  10.373  20.839  0.00  0.00    +0.000 NA
ATOM      3  C   UNL     1       0.720   9.815  19.688  0.00  0.00    +0.000 C 
ATOM      4  N   UNL     1       1.461   8.717  19.318  0.00  0.00    +0.000 N 
ATOM      5  H   UNL     1       2.154   8.501  20.028  0.00  0.00    +0.000 HD
BRANCH   2  13
ATOM      6  C   UNL     1      -0.874  10.145  23.118  0.00  0.00    +0.000 C 
ATOM      7  C   UNL     1      -0.563  11.439  22.413  0.00  0.00    +0.000 A 
ATOM      8  C   UNL     1      -1.170  12.613  22.907  0.00  0.00    +0.000 A 
ATOM      9  C   UNL     1      -0.871  13.854  22.353  0.00  0.00    +0.000 A 
ATOM     10 CL   UNL     1      -1.665  15.269  22.921  0.00  0.00    +0.000 Cl
ATOM     11  C   UNL     1       0.086  13.954  21.355  0.00  0.00    +0.000 A 
ATOM     12  C   UNL     1       0.734  12.803  20.903  0.00  0.00    +0.000 A 
ATOM     13  C   UNL     1       0.371  11.523  21.358  0.00  0.00    +0.000 A 
ENDBRANCH   2  13
BRANCH   3  14
ATOM     14  S   UNL     1      -0.556  10.292  18.572  0.00  0.00    +0.000 S 
ATOM     15  H   UNL     1      -0.390  11.614  18.625  0.00  0.00    +0.000 HD
ENDBRANCH   3  14
ENDBRANCH   1   4
BRANCH   1  16
ATOM     16  C   UNL     1       3.263   7.710  17.995  0.00  0.00    +0.000 C 
BRANCH  16  17
ATOM     17  C   UNL     1       3.223   6.220  17.564  0.00  0.00    +0.000 C 
BRANCH  17  18
ATOM     18  C   UNL     1       4.588   5.711  17.105  0.00  0.00    +0.000 A 
ATOM     19  C   UNL     1       5.764   6.438  17.341  0.00  0.00    +0.000 A 
ATOM     20  C   UNL     1       6.995   5.977  16.869  0.00  0.00    +0.000 A 
ATOM     21  C   UNL     1       7.074   4.776  16.168  0.00  0.00    +0.000 A 
ATOM     22  C   UNL     1       5.920   4.029  15.946  0.00  0.00    +0.000 A 
ATOM     23  C   UNL     1       4.687   4.490  16.412  0.00  0.00    +0.000 A 
ENDBRANCH  17  18
BRANCH  17  24
ATOM     24  C   UNL     1       2.580   5.307  18.616  0.00  0.00    +0.000 A 
ATOM     25  C   UNL     1       1.647   4.335  18.210  0.00  0.00    +0.000 A 
ATOM     26  C   UNL     1       0.995   3.528  19.148  0.00  0.00    +0.000 A 
ATOM     27  C   UNL     1       1.267   3.672  20.505  0.00  0.00    +0.000 A 
ATOM     28  C   UNL     1       2.204   4.612  20.924  0.00  0.00    +0.000 A 
ATOM     29  C   UNL     1       2.862   5.414  19.988  0.00  0.00    +0.000 A 
ENDBRANCH  17  24
ENDBRANCH  16  17
ENDBRANCH   1  16
TORSDOF 7
ENDMDL
MODEL 8
REMARK VINA RESULT:      -8.1      0.496      3.658
REMARK  Name = 
REMARK  8 active torsions:
REMARK  status: ('A' for Active; 'I' for Inactive)
REMARK    1  A    between atoms: C_1  and  C_2
REMARK    2  A    between atoms: C_8  and  N_9
REMARK    3  A    between atoms: C_10  and  S_11
REMARK    4  A    between atoms: N_12  and  C_13
REMARK    5  A    between atoms: C_13  and  C_14
REMARK    6  A    between atoms: C_14  and  C_15
REMARK    7  A    between atoms: C_15  and  C_16
REMARK    8  A    between atoms: C_15  and  C_22
REMARK                            x       y       z     vdW  Elec       q    Type
REMARK                         _______ _______ _______ _____ _____    ______ ____
ROOT
ATOM      1  C   UNL     1       2.439   8.940  18.066  0.00  0.00    +0.000 C 
ENDROOT
BRANCH   1   4
ATOM      2  N   UNL     1      -0.443  10.059  19.919  0.00  0.00    +0.000 NA
ATOM      3  C   UNL     1       0.615  10.283  19.181  0.00  0.00    +0.000 C 
ATOM      4  N   UNL     1       1.046   9.266  18.362  0.00  0.00    +0.000 N 
ATOM      5  H   UNL     1       0.451   8.450  18.467  0.00  0.00    +0.000 HD
BRANCH   2  13
ATOM      6  C   UNL     1       0.058   9.736  22.818  0.00  0.00    +0.000 C 
ATOM      7  C   UNL     1      -0.817  10.812  22.231  0.00  0.00    +0.000 A 
ATOM      8  C   UNL     1      -1.388  11.746  23.123  0.00  0.00    +0.000 A 
ATOM      9  C   UNL     1      -2.147  12.810  22.646  0.00  0.00    +0.000 A 
ATOM     10 CL   UNL     1      -2.890  13.903  23.745  0.00  0.00    +0.000 Cl
ATOM     11  C   UNL     1      -2.285  13.006  21.280  0.00  0.00    +0.000 A 
ATOM     12  C   UNL     1      -1.672  12.120  20.391  0.00  0.00    +0.000 A 
ATOM     13  C   UNL     1      -0.999  10.970  20.840  0.00  0.00    +0.000 A 
ENDBRANCH   2  13
BRANCH   3  14
ATOM     14  S   UNL     1       1.526  11.788  19.082  0.00  0.00    +0.000 S 
ATOM     15  H   UNL     1       2.027  11.642  17.855  0.00  0.00    +0.000 HD
ENDBRANCH   3  14
ENDBRANCH   1   4
BRANCH   1  16
ATOM     16  C   UNL     1       2.541   7.510  17.528  0.00  0.00    +0.000 C 
BRANCH  16  17
ATOM     17  C   UNL     1       3.289   6.537  18.477  0.00  0.00    +0.000 C 
BRANCH  17  18
ATOM     18  C   UNL     1       2.406   5.381  18.938  0.00  0.00    +0.000 A 
ATOM     19  C   UNL     1       2.013   5.240  20.278  0.00  0.00    +0.000 A 
ATOM     20  C   UNL     1       1.245   4.147  20.686  0.00  0.00    +0.000 A 
ATOM     21  C   UNL     1       0.843   3.187  19.761  0.00  0.00    +0.000 A 
ATOM     22  C   UNL     1       1.202   3.323  18.423  0.00  0.00    +0.000 A 
ATOM     23  C   UNL     1       1.975   4.411  18.013  0.00  0.00    +0.000 A 
ENDBRANCH  17  18
BRANCH  17  24
ATOM     24  C   UNL     1       4.633   6.060  17.910  0.00  0.00    +0.000 A 
ATOM     25  C   UNL     1       4.892   6.202  16.534  0.00  0.00    +0.000 A 
ATOM     26  C   UNL     1       6.079   5.723  15.972  0.00  0.00    +0.000 A 
ATOM     27  C   UNL     1       7.031   5.099  16.774  0.00  0.00    +0.000 A 
ATOM     28  C   UNL     1       6.803   4.971  18.141  0.00  0.00    +0.000 A 
ATOM     29  C   UNL     1       5.620   5.456  18.705  0.00  0.00    +0.000 A 
ENDBRANCH  17  24
ENDBRANCH  16  17
ENDBRANCH   1  16
TORSDOF 7
ENDMDL
MODEL 9
REMARK VINA RESULT:      -8.1      1.202      3.917
REMARK  Name = 
REMARK  8 active torsions:
REMARK  status: ('A' for Active; 'I' for Inactive)
REMARK    1  A    between atoms: C_1  and  C_2
REMARK    2  A    between atoms: C_8  and  N_9
REMARK    3  A    between atoms: C_10  and  S_11
REMARK    4  A    between atoms: N_12  and  C_13
REMARK    5  A    between atoms: C_13  and  C_14
REMARK    6  A    between atoms: C_14  and  C_15
REMARK    7  A    between atoms: C_15  and  C_16
REMARK    8  A    between atoms: C_15  and  C_22
REMARK                            x       y       z     vdW  Elec       q    Type
REMARK                         _______ _______ _______ _____ _____    ______ ____
ROOT
ATOM      1  C   UNL     1       2.201   8.786  18.007  0.00  0.00    +0.000 C 
ENDROOT
BRANCH   1   4
ATOM      2  N   UNL     1       0.911  10.186  21.067  0.00  0.00    +0.000 NA
ATOM      3  C   UNL     1       0.769   9.790  19.828  0.00  0.00    +0.000 C 
ATOM      4  N   UNL     1       1.648   8.842  19.358  0.00  0.00    +0.000 N 
ATOM      5  H   UNL     1       2.314   8.588  20.081  0.00  0.00    +0.000 HD
BRANCH   2  13
ATOM      6  C   UNL     1       1.442  13.054  20.566  0.00  0.00    +0.000 C 
ATOM      7  C   UNL     1       0.390  12.548  21.517  0.00  0.00    +0.000 A 
ATOM      8  C   UNL     1      -0.417  13.507  22.167  0.00  0.00    +0.000 A 
ATOM      9  C   UNL     1      -1.457  13.111  23.002  0.00  0.00    +0.000 A 
ATOM     10 CL   UNL     1      -2.392  14.287  23.837  0.00  0.00    +0.000 Cl
ATOM     11  C   UNL     1      -1.758  11.764  23.144  0.00  0.00    +0.000 A 
ATOM     12  C   UNL     1      -1.001  10.813  22.456  0.00  0.00    +0.000 A 
ATOM     13  C   UNL     1       0.129  11.173  21.700  0.00  0.00    +0.000 A 
ENDBRANCH   2  13
BRANCH   3  14
ATOM     14  S   UNL     1      -0.479  10.307  18.697  0.00  0.00    +0.000 S 
ATOM     15  H   UNL     1       0.232  10.252  17.570  0.00  0.00    +0.000 HD
ENDBRANCH   3  14
ENDBRANCH   1   4
BRANCH   1  16
ATOM     16  C   UNL     1       2.312   7.330  17.546  0.00  0.00    +0.000 C 
BRANCH  16  17
ATOM     17  C   UNL     1       3.095   6.421  18.531  0.00  0.00    +0.000 C 
BRANCH  17  18
ATOM     18  C   UNL     1       2.280   5.208  18.974  0.00  0.00    +0.000 A 
ATOM     19  C   UNL     1       1.882   5.034  20.308  0.00  0.00    +0.000 A 
ATOM     20  C   UNL     1       1.180   3.892  20.701  0.00  0.00    +0.000 A 
ATOM     21  C   UNL     1       0.848   2.915  19.765  0.00  0.00    +0.000 A 
ATOM     22  C   UNL     1       1.213   3.084  18.432  0.00  0.00    +0.000 A 
ATOM     23  C   UNL     1       1.920   4.221  18.038  0.00  0.00    +0.000 A 
ENDBRANCH  17  18
BRANCH  17  24
ATOM     24  C   UNL     1       4.487   6.036  18.015  0.00  0.00    +0.000 A 
ATOM     25  C   UNL     1       4.813   6.268  16.666  0.00  0.00    +0.000 A 
ATOM     26  C   UNL     1       6.051   5.874  16.147  0.00  0.00    +0.000 A 
ATOM     27  C   UNL     1       6.986   5.247  16.966  0.00  0.00    +0.000 A 
ATOM     28  C   UNL     1       6.690   5.031  18.309  0.00  0.00    +0.000 A 
ATOM     29  C   UNL     1       5.458   5.430  18.830  0.00  0.00    +0.000 A 
ENDBRANCH  17  24
ENDBRANCH  16  17
ENDBRANCH   1  16
TORSDOF 7
ENDMDL
