MODEL 1
REMARK VINA RESULT:      -5.5      0.000      0.000
REMARK  Name = 
REMARK  2 active torsions:
REMARK  status: ('A' for Active; 'I' for Inactive)
REMARK    1  A    between atoms: C_1  and  C_2
REMARK    2  A    between atoms: C_10  and  N_11
REMARK                            x       y       z     vdW  Elec       q    Type
REMARK                         _______ _______ _______ _____ _____    ______ ____
ROOT
ATOM      1  C   UNL     1       4.860   4.132  16.555  0.00  0.00    +0.000 C 
ATOM      2  C   UNL     1       3.771   3.861  17.568  0.00  0.00    +0.000 A 
ATOM      3  C   UNL     1       2.417   4.075  17.171  0.00  0.00    +0.000 A 
ATOM      4  C   UNL     1       1.310   3.866  18.012  0.00  0.00    +0.000 A 
ATOM      5  C   UNL     1       1.603   3.422  19.320  0.00  0.00    +0.000 A 
ATOM      6  N   UNL     1       0.700   3.168  20.281  0.00  0.00    +0.000 NA
ATOM      7  S   UNL     1       1.563   2.676  21.613  0.00  0.00    +0.000 S 
ATOM      8  N   UNL     1       3.118   2.769  21.036  0.00  0.00    +0.000 NA
ATOM      9  C   UNL     1       3.021   3.188  19.759  0.00  0.00    +0.000 A 
ATOM     10  C   UNL     1       4.120   3.413  18.870  0.00  0.00    +0.000 A 
ENDROOT
BRANCH  10  11
ATOM     11  N   UNL     1       5.455   3.143  19.227  0.00  0.00    +0.000 N 
ATOM     12  H   UNL     1       5.906   3.984  19.588  0.00  0.00    +0.000 HD
ATOM     13  H   UNL     1       5.991   2.714  18.480  0.00  0.00    +0.000 HD
ENDBRANCH  10  11
TORSDOF 1
ENDMDL
MODEL 2
REMARK VINA RESULT:      -5.5      2.941      3.883
REMARK  Name = 
REMARK  2 active torsions:
REMARK  status: ('A' for Active; 'I' for Inactive)
REMARK    1  A    between atoms: C_1  and  C_2
REMARK    2  A    between atoms: C_10  and  N_11
REMARK                            x       y       z     vdW  Elec       q    Type
REMARK                         _______ _______ _______ _____ _____    ______ ____
ROOT
ATOM      1  C   UNL     1       7.931   7.698  17.849  0.00  0.00    +0.000 C 
ATOM      2  C   UNL     1       6.823   6.671  17.811  0.00  0.00    +0.000 A 
ATOM      3  C   UNL     1       5.850   6.772  16.771  0.00  0.00    +0.000 A 
ATOM      4  C   UNL     1       4.767   5.888  16.619  0.00  0.00    +0.000 A 
ATOM      5  C   UNL     1       4.674   4.856  17.578  0.00  0.00    +0.000 A 
ATOM      6  N   UNL     1       3.720   3.912  17.622  0.00  0.00    +0.000 NA
ATOM      7  S   UNL     1       4.073   2.952  18.932  0.00  0.00    +0.000 S 
ATOM      8  N   UNL     1       5.446   3.691  19.506  0.00  0.00    +0.000 NA
ATOM      9  C   UNL     1       5.688   4.728  18.681  0.00  0.00    +0.000 A 
ATOM     10  C   UNL     1       6.776   5.651  18.798  0.00  0.00    +0.000 A 
ENDROOT
BRANCH  10  11
ATOM     11  N   UNL     1       7.779   5.523  19.778  0.00  0.00    +0.000 N 
ATOM     12  H   UNL     1       7.509   6.012  20.633  0.00  0.00    +0.000 HD
ATOM     13  H   UNL     1       8.697   5.807  19.453  0.00  0.00    +0.000 HD
ENDBRANCH  10  11
TORSDOF 1
ENDMDL
MODEL 3
REMARK VINA RESULT:      -5.4      2.846      3.846
REMARK  Name = 
REMARK  2 active torsions:
REMARK  status: ('A' for Active; 'I' for Inactive)
REMARK    1  A    between atoms: C_1  and  C_2
REMARK    2  A    between atoms: C_10  and  N_11
REMARK                            x       y       z     vdW  Elec       q    Type
REMARK                         _______ _______ _______ _____ _____    ______ ____
ROOT
ATOM      1  C   UNL     1       2.020   2.217  19.427  0.00  0.00    +0.000 C 
ATOM      2  C   UNL     1       2.930   3.328  18.955  0.00  0.00    +0.000 A 
ATOM      3  C   UNL     1       2.334   4.460  18.323  0.00  0.00    +0.000 A 
ATOM      4  C   UNL     1       3.061   5.561  17.835  0.00  0.00    +0.000 A 
ATOM      5  C   UNL     1       4.462   5.496  18.000  0.00  0.00    +0.000 A 
ATOM      6  N   UNL     1       5.341   6.432  17.602  0.00  0.00    +0.000 NA
ATOM      7  S   UNL     1       6.845   5.871  18.033  0.00  0.00    +0.000 S 
ATOM      8  N   UNL     1       6.453   4.418  18.735  0.00  0.00    +0.000 NA
ATOM      9  C   UNL     1       5.111   4.315  18.665  0.00  0.00    +0.000 A 
ATOM     10  C   UNL     1       4.333   3.215  19.147  0.00  0.00    +0.000 A 
ENDROOT
BRANCH  10  11
ATOM     11  N   UNL     1       4.901   2.124  19.832  0.00  0.00    +0.000 N 
ATOM     12  H   UNL     1       5.782   1.848  19.397  0.00  0.00    +0.000 HD
ATOM     13  H   UNL     1       4.266   1.340  19.935  0.00  0.00    +0.000 HD
ENDBRANCH  10  11
TORSDOF 1
ENDMDL
MODEL 4
REMARK VINA RESULT:      -5.4      2.933      4.456
REMARK  Name = 
REMARK  2 active torsions:
REMARK  status: ('A' for Active; 'I' for Inactive)
REMARK    1  A    between atoms: C_1  and  C_2
REMARK    2  A    between atoms: C_10  and  N_11
REMARK                            x       y       z     vdW  Elec       q    Type
REMARK                         _______ _______ _______ _____ _____    ______ ____
ROOT
ATOM      1  C   UNL     1       2.013   4.180  17.857  0.00  0.00    +0.000 C 
ATOM      2  C   UNL     1       3.512   4.356  17.782  0.00  0.00    +0.000 A 
ATOM      3  C   UNL     1       4.171   3.988  16.572  0.00  0.00    +0.000 A 
ATOM      4  C   UNL     1       5.558   4.096  16.368  0.00  0.00    +0.000 A 
ATOM      5  C   UNL     1       6.304   4.602  17.455  0.00  0.00    +0.000 A 
ATOM      6  N   UNL     1       7.635   4.780  17.476  0.00  0.00    +0.000 NA
ATOM      7  S   UNL     1       8.000   5.394  18.976  0.00  0.00    +0.000 S 
ATOM      8  N   UNL     1       6.491   5.457  19.669  0.00  0.00    +0.000 NA
ATOM      9  C   UNL     1       5.630   4.998  18.739  0.00  0.00    +0.000 A 
ATOM     10  C   UNL     1       4.215   4.871  18.904  0.00  0.00    +0.000 A 
ENDROOT
BRANCH  10  11
ATOM     11  N   UNL     1       3.544   5.293  20.068  0.00  0.00    +0.000 N 
ATOM     12  H   UNL     1       2.537   5.333  19.906  0.00  0.00    +0.000 HD
ATOM     13  H   UNL     1       3.902   6.164  20.445  0.00  0.00    +0.000 HD
ENDBRANCH  10  11
TORSDOF 1
ENDMDL
MODEL 5
REMARK VINA RESULT:      -5.3      3.679      4.903
REMARK  Name = 
REMARK  2 active torsions:
REMARK  status: ('A' for Active; 'I' for Inactive)
REMARK    1  A    between atoms: C_1  and  C_2
REMARK    2  A    between atoms: C_10  and  N_11
REMARK                            x       y       z     vdW  Elec       q    Type
REMARK                         _______ _______ _______ _____ _____    ______ ____
ROOT
ATOM      1  C   UNL     1       5.452   3.998  13.691  0.00  0.00    +0.000 C 
ATOM      2  C   UNL     1       5.663   4.244  15.167  0.00  0.00    +0.000 A 
ATOM      3  C   UNL     1       4.704   3.711  16.080  0.00  0.00    +0.000 A 
ATOM      4  C   UNL     1       4.775   3.867  17.475  0.00  0.00    +0.000 A 
ATOM      5  C   UNL     1       5.877   4.605  17.958  0.00  0.00    +0.000 A 
ATOM      6  N   UNL     1       6.133   4.877  19.248  0.00  0.00    +0.000 NA
ATOM      7  S   UNL     1       7.537   5.765  19.268  0.00  0.00    +0.000 S 
ATOM      8  N   UNL     1       7.882   5.851  17.645  0.00  0.00    +0.000 NA
ATOM      9  C   UNL     1       6.901   5.174  17.016  0.00  0.00    +0.000 A 
ATOM     10  C   UNL     1       6.790   4.992  15.601  0.00  0.00    +0.000 A 
ENDROOT
BRANCH  10  11
ATOM     11  N   UNL     1       7.764   5.454  14.695  0.00  0.00    +0.000 N 
ATOM     12  H   UNL     1       8.400   6.107  15.156  0.00  0.00    +0.000 HD
ATOM     13  H   UNL     1       7.370   5.844  13.846  0.00  0.00    +0.000 HD
ENDBRANCH  10  11
TORSDOF 1
ENDMDL
MODEL 6
REMARK VINA RESULT:      -5.2      2.704      3.971
REMARK  Name = 
REMARK  2 active torsions:
REMARK  status: ('A' for Active; 'I' for Inactive)
REMARK    1  A    between atoms: C_1  and  C_2
REMARK    2  A    between atoms: C_10  and  N_11
REMARK                            x       y       z     vdW  Elec       q    Type
REMARK                         _______ _______ _______ _____ _____    ______ ____
ROOT
ATOM      1  C   UNL     1       1.253   2.861  21.199  0.00  0.00    +0.000 C 
ATOM      2  C   UNL     1       2.070   3.177  19.968  0.00  0.00    +0.000 A 
ATOM      3  C   UNL     1       2.160   2.182  18.949  0.00  0.00    +0.000 A 
ATOM      4  C   UNL     1       2.888   2.343  17.756  0.00  0.00    +0.000 A 
ATOM      5  C   UNL     1       3.556   3.577  17.603  0.00  0.00    +0.000 A 
ATOM      6  N   UNL     1       4.309   3.934  16.549  0.00  0.00    +0.000 NA
ATOM      7  S   UNL     1       4.856   5.470  16.866  0.00  0.00    +0.000 S 
ATOM      8  N   UNL     1       4.171   5.751  18.353  0.00  0.00    +0.000 NA
ATOM      9  C   UNL     1       3.473   4.641  18.662  0.00  0.00    +0.000 A 
ATOM     10  C   UNL     1       2.721   4.436  19.861  0.00  0.00    +0.000 A 
ENDROOT
BRANCH  10  11
ATOM     11  N   UNL     1       2.568   5.433  20.843  0.00  0.00    +0.000 N 
ATOM     12  H   UNL     1       1.580   5.582  21.053  0.00  0.00    +0.000 HD
ATOM     13  H   UNL     1       3.042   6.300  20.612  0.00  0.00    +0.000 HD
ENDBRANCH  10  11
TORSDOF 1
ENDMDL
MODEL 7
REMARK VINA RESULT:      -5.2      2.231      2.642
REMARK  Name = 
REMARK  2 active torsions:
REMARK  status: ('A' for Active; 'I' for Inactive)
REMARK    1  A    between atoms: C_1  and  C_2
REMARK    2  A    between atoms: C_10  and  N_11
REMARK                            x       y       z     vdW  Elec       q    Type
REMARK                         _______ _______ _______ _____ _____    ______ ____
ROOT
ATOM      1  C   UNL     1       6.835   6.883  17.075  0.00  0.00    +0.000 C 
ATOM      2  C   UNL     1       5.703   6.091  17.688  0.00  0.00    +0.000 A 
ATOM      3  C   UNL     1       4.379   6.610  17.568  0.00  0.00    +0.000 A 
ATOM      4  C   UNL     1       3.237   5.979  18.093  0.00  0.00    +0.000 A 
ATOM      5  C   UNL     1       3.462   4.764  18.775  0.00  0.00    +0.000 A 
ATOM      6  N   UNL     1       2.518   4.005  19.355  0.00  0.00    +0.000 NA
ATOM      7  S   UNL     1       3.307   2.697  20.008  0.00  0.00    +0.000 S 
ATOM      8  N   UNL     1       4.880   3.034  19.592  0.00  0.00    +0.000 NA
ATOM      9  C   UNL     1       4.848   4.197  18.911  0.00  0.00    +0.000 A 
ATOM     10  C   UNL     1       5.983   4.872  18.361  0.00  0.00    +0.000 A 
ENDROOT
BRANCH  10  11
ATOM     11  N   UNL     1       7.285   4.338  18.414  0.00  0.00    +0.000 N 
ATOM     12  H   UNL     1       7.394   3.591  17.727  0.00  0.00    +0.000 HD
ATOM     13  H   UNL     1       7.560   4.042  19.345  0.00  0.00    +0.000 HD
ENDBRANCH  10  11
TORSDOF 1
ENDMDL
MODEL 8
REMARK VINA RESULT:      -5.2      3.552      4.929
REMARK  Name = 
REMARK  2 active torsions:
REMARK  status: ('A' for Active; 'I' for Inactive)
REMARK    1  A    between atoms: C_1  and  C_2
REMARK    2  A    between atoms: C_10  and  N_11
REMARK                            x       y       z     vdW  Elec       q    Type
REMARK                         _______ _______ _______ _____ _____    ______ ____
ROOT
ATOM      1  C   UNL     1       2.518   4.201  19.272  0.00  0.00    +0.000 C 
ATOM      2  C   UNL     1       3.466   4.686  18.199  0.00  0.00    +0.000 A 
ATOM      3  C   UNL     1       3.552   6.091  17.965  0.00  0.00    +0.000 A 
ATOM      4  C   UNL     1       4.388   6.677  16.998  0.00  0.00    +0.000 A 
ATOM      5  C   UNL     1       5.168   5.782  16.234  0.00  0.00    +0.000 A 
ATOM      6  N   UNL     1       6.025   6.128  15.258  0.00  0.00    +0.000 NA
ATOM      7  S   UNL     1       6.679   4.710  14.689  0.00  0.00    +0.000 S 
ATOM      8  N   UNL     1       5.904   3.596  15.647  0.00  0.00    +0.000 NA
ATOM      9  C   UNL     1       5.096   4.299  16.464  0.00  0.00    +0.000 A 
ATOM     10  C   UNL     1       4.231   3.744  17.460  0.00  0.00    +0.000 A 
ENDROOT
BRANCH  10  11
ATOM     11  N   UNL     1       4.186   2.366  17.747  0.00  0.00    +0.000 N 
ATOM     12  H   UNL     1       3.241   2.004  17.614  0.00  0.00    +0.000 HD
ATOM     13  H   UNL     1       4.557   2.134  18.663  0.00  0.00    +0.000 HD
ENDBRANCH  10  11
TORSDOF 1
ENDMDL
MODEL 9
REMARK VINA RESULT:      -5.1      1.727      1.743
REMARK  Name = 
REMARK  2 active torsions:
REMARK  status: ('A' for Active; 'I' for Inactive)
REMARK    1  A    between atoms: C_1  and  C_2
REMARK    2  A    between atoms: C_10  and  N_11
REMARK                            x       y       z     vdW  Elec       q    Type
REMARK                         _______ _______ _______ _____ _____    ______ ____
ROOT
ATOM      1  C   UNL     1       5.696   6.071  17.692  0.00  0.00    +0.000 C 
ATOM      2  C   UNL     1       4.497   5.601  18.483  0.00  0.00    +0.000 A 
ATOM      3  C   UNL     1       3.358   6.459  18.548  0.00  0.00    +0.000 A 
ATOM      4  C   UNL     1       2.180   6.148  19.250  0.00  0.00    +0.000 A 
ATOM      5  C   UNL     1       2.169   4.904  19.918  0.00  0.00    +0.000 A 
ATOM      6  N   UNL     1       1.152   4.416  20.647  0.00  0.00    +0.000 NA
ATOM      7  S   UNL     1       1.649   2.932  21.206  0.00  0.00    +0.000 S 
ATOM      8  N   UNL     1       3.175   2.843  20.554  0.00  0.00    +0.000 NA
ATOM      9  C   UNL     1       3.356   3.983  19.861  0.00  0.00    +0.000 A 
ATOM     10  C   UNL     1       4.536   4.339  19.134  0.00  0.00    +0.000 A 
ENDROOT
BRANCH  10  11
ATOM     11  N   UNL     1       5.640   3.474  19.006  0.00  0.00    +0.000 N 
ATOM     12  H   UNL     1       5.814   2.984  19.884  0.00  0.00    +0.000 HD
ATOM     13  H   UNL     1       6.473   3.935  18.657  0.00  0.00    +0.000 HD
ENDBRANCH  10  11
TORSDOF 1
ENDMDL
