MODEL 1
REMARK VINA RESULT:      -8.1      0.000      0.000
REMARK  Name = 
REMARK  8 active torsions:
REMARK  status: ('A' for Active; 'I' for Inactive)
REMARK    1  A    between atoms: C_1  and  C_2
REMARK    2  A    between atoms: C_4  and  C_5
REMARK    3  A    between atoms: C_8  and  C_9
REMARK    4  A    between atoms: C_10  and  O_11
REMARK    5  A    between atoms: O_11  and  C_12
REMARK    6  A    between atoms: N_15  and  C_16
REMARK    7  A    between atoms: N_19  and  C_20
REMARK    8  A    between atoms: C_20  and  C_21
REMARK                            x       y       z     vdW  Elec       q    Type
REMARK                         _______ _______ _______ _____ _____    ______ ____
ROOT
ATOM      1  C   UNL     1       3.974   5.222  19.674  0.00  0.00    +0.000 A 
ATOM      2  N   UNL     1       3.499   6.476  19.638  0.00  0.00    +0.000 NA
ATOM      3  C   UNL     1       2.219   6.731  19.900  0.00  0.00    +0.000 A 
ATOM      4  N   UNL     1       1.813   8.019  19.593  0.00  0.00    +0.000 N 
ATOM      5  N   UNL     1       1.340   5.826  20.321  0.00  0.00    +0.000 NA
ATOM      6  C   UNL     1       1.831   4.582  20.499  0.00  0.00    +0.000 A 
ATOM      7  C   UNL     1       1.080   3.489  21.021  0.00  0.00    +0.000 A 
ATOM      8  C   UNL     1       1.822   2.334  21.086  0.00  0.00    +0.000 A 
ATOM      9  S   UNL     1       3.410   2.558  20.483  0.00  0.00    +0.000 S 
ATOM     10  C   UNL     1       3.139   4.227  20.174  0.00  0.00    +0.000 A 
ATOM     11  H   UNL     1       1.623   8.059  18.599  0.00  0.00    +0.000 HD
ENDROOT
BRANCH   4  12
ATOM     12  C   UNL     1       0.767   8.561  20.436  0.00  0.00    +0.000 C 
ATOM     13  C   UNL     1       1.419   9.054  21.721  0.00  0.00    +0.000 C 
ATOM     14  C   UNL     1       0.458  10.139  22.150  0.00  0.00    +0.000 C 
ATOM     15  N   UNL     1       0.146  10.871  20.908  0.00  0.00    +0.000 NA
ATOM     16  C   UNL     1       0.074   9.812  19.869  0.00  0.00    +0.000 C 
BRANCH  15  17
ATOM     17  C   UNL     1       1.194  11.870  20.600  0.00  0.00    +0.000 C 
BRANCH  17  18
ATOM     18  C   UNL     1       0.650  13.200  20.116  0.00  0.00    +0.000 A 
ATOM     19  C   UNL     1       1.350  14.006  19.213  0.00  0.00    +0.000 A 
ATOM     20  C   UNL     1       0.836  15.252  18.894  0.00  0.00    +0.000 A 
ATOM     21  N   UNL     1      -0.338  15.725  19.362  0.00  0.00    +0.000 NA
ATOM     22  C   UNL     1      -1.034  14.906  20.178  0.00  0.00    +0.000 A 
ATOM     23  C   UNL     1      -0.591  13.654  20.577  0.00  0.00    +0.000 A 
ENDBRANCH  17  18
ENDBRANCH  15  17
ENDBRANCH   4  12
BRANCH   1  24
ATOM     24  O   UNL     1       5.251   4.941  19.200  0.00  0.00    +0.000 OA
BRANCH  24  32
ATOM     25  C   UNL     1       3.556   3.484  16.945  0.00  0.00    +0.000 C 
ATOM     26  C   UNL     1       4.823   4.286  16.816  0.00  0.00    +0.000 A 
ATOM     27  C   UNL     1       5.333   4.315  15.493  0.00  0.00    +0.000 A 
ATOM     28  C   UNL     1       6.548   4.916  15.194  0.00  0.00    +0.000 A 
ATOM     29  C   UNL     1       7.283   5.525  16.203  0.00  0.00    +0.000 A 
ATOM     30  C   UNL     1       6.801   5.549  17.521  0.00  0.00    +0.000 A 
ATOM     31  C   UNL     1       7.677   6.211  18.557  0.00  0.00    +0.000 C 
ATOM     32  C   UNL     1       5.548   4.944  17.845  0.00  0.00    +0.000 A 
BRANCH  28  33
ATOM     33  C   UNL     1       7.045   4.866  13.851  0.00  0.00    +0.000 C 
ATOM     34  N   UNL     1       7.453   4.843  12.771  0.00  0.00    +0.000 NA
ENDBRANCH  28  33
ENDBRANCH  24  32
ENDBRANCH   1  24
TORSDOF 6
ENDMDL
MODEL 2
REMARK VINA RESULT:      -8.0      2.091      2.569
REMARK  Name = 
REMARK  8 active torsions:
REMARK  status: ('A' for Active; 'I' for Inactive)
REMARK    1  A    between atoms: C_1  and  C_2
REMARK    2  A    between atoms: C_4  and  C_5
REMARK    3  A    between atoms: C_8  and  C_9
REMARK    4  A    between atoms: C_10  and  O_11
REMARK    5  A    between atoms: O_11  and  C_12
REMARK    6  A    between atoms: N_15  and  C_16
REMARK    7  A    between atoms: N_19  and  C_20
REMARK    8  A    between atoms: C_20  and  C_21
REMARK                            x       y       z     vdW  Elec       q    Type
REMARK                         _______ _______ _______ _____ _____    ______ ____
ROOT
ATOM      1  C   UNL     1       3.988   5.140  19.636  0.00  0.00    +0.000 A 
ATOM      2  N   UNL     1       3.575   6.415  19.591  0.00  0.00    +0.000 NA
ATOM      3  C   UNL     1       2.335   6.746  19.948  0.00  0.00    +0.000 A 
ATOM      4  N   UNL     1       1.968   8.043  19.627  0.00  0.00    +0.000 N 
ATOM      5  N   UNL     1       1.451   5.903  20.474  0.00  0.00    +0.000 NA
ATOM      6  C   UNL     1       1.893   4.642  20.658  0.00  0.00    +0.000 A 
ATOM      7  C   UNL     1       1.136   3.608  21.282  0.00  0.00    +0.000 A 
ATOM      8  C   UNL     1       1.822   2.418  21.329  0.00  0.00    +0.000 A 
ATOM      9  S   UNL     1       3.363   2.538  20.588  0.00  0.00    +0.000 S 
ATOM     10  C   UNL     1       3.150   4.208  20.241  0.00  0.00    +0.000 A 
ATOM     11  H   UNL     1       1.698   8.058  18.651  0.00  0.00    +0.000 HD
ENDROOT
BRANCH   4  12
ATOM     12  C   UNL     1       1.026   8.667  20.533  0.00  0.00    +0.000 C 
ATOM     13  C   UNL     1       1.492  10.097  20.772  0.00  0.00    +0.000 C 
ATOM     14  C   UNL     1       0.189  10.789  21.096  0.00  0.00    +0.000 C 
ATOM     15  N   UNL     1      -0.769  10.260  20.106  0.00  0.00    +0.000 NA
ATOM     16  C   UNL     1      -0.394   8.830  19.964  0.00  0.00    +0.000 C 
BRANCH  15  17
ATOM     17  C   UNL     1      -0.662  10.985  18.820  0.00  0.00    +0.000 C 
BRANCH  17  18
ATOM     18  C   UNL     1      -1.958  11.037  18.036  0.00  0.00    +0.000 A 
ATOM     19  C   UNL     1      -3.102  11.670  18.530  0.00  0.00    +0.000 A 
ATOM     20  C   UNL     1      -4.277  11.591  17.801  0.00  0.00    +0.000 A 
ATOM     21  N   UNL     1      -4.379  10.980  16.602  0.00  0.00    +0.000 NA
ATOM     22  C   UNL     1      -3.249  10.433  16.107  0.00  0.00    +0.000 A 
ATOM     23  C   UNL     1      -2.033  10.437  16.773  0.00  0.00    +0.000 A 
ENDBRANCH  17  18
ENDBRANCH  15  17
ENDBRANCH   4  12
BRANCH   1  24
ATOM     24  O   UNL     1       5.205   4.777  19.068  0.00  0.00    +0.000 OA
BRANCH  24  32
ATOM     25  C   UNL     1       3.053   3.567  17.071  0.00  0.00    +0.000 C 
ATOM     26  C   UNL     1       4.434   4.094  16.781  0.00  0.00    +0.000 A 
ATOM     27  C   UNL     1       4.812   3.951  15.422  0.00  0.00    +0.000 A 
ATOM     28  C   UNL     1       6.085   4.283  14.981  0.00  0.00    +0.000 A 
ATOM     29  C   UNL     1       7.017   4.787  15.880  0.00  0.00    +0.000 A 
ATOM     30  C   UNL     1       6.676   4.975  17.228  0.00  0.00    +0.000 A 
ATOM     31  C   UNL     1       7.758   5.505  18.138  0.00  0.00    +0.000 C 
ATOM     32  C   UNL     1       5.366   4.649  17.697  0.00  0.00    +0.000 A 
BRANCH  28  33
ATOM     33  C   UNL     1       6.433   4.064  13.608  0.00  0.00    +0.000 C 
ATOM     34  N   UNL     1       6.696   3.883  12.498  0.00  0.00    +0.000 NA
ENDBRANCH  28  33
ENDBRANCH  24  32
ENDBRANCH   1  24
TORSDOF 6
ENDMDL
MODEL 3
REMARK VINA RESULT:      -8.0      1.029      1.077
REMARK  Name = 
REMARK  8 active torsions:
REMARK  status: ('A' for Active; 'I' for Inactive)
REMARK    1  A    between atoms: C_1  and  C_2
REMARK    2  A    between atoms: C_4  and  C_5
REMARK    3  A    between atoms: C_8  and  C_9
REMARK    4  A    between atoms: C_10  and  O_11
REMARK    5  A    between atoms: O_11  and  C_12
REMARK    6  A    between atoms: N_15  and  C_16
REMARK    7  A    between atoms: N_19  and  C_20
REMARK    8  A    between atoms: C_20  and  C_21
REMARK                            x       y       z     vdW  Elec       q    Type
REMARK                         _______ _______ _______ _____ _____    ______ ____
ROOT
ATOM      1  C   UNL     1       4.005   5.165  19.635  0.00  0.00    +0.000 A 
ATOM      2  N   UNL     1       3.565   6.429  19.562  0.00  0.00    +0.000 NA
ATOM      3  C   UNL     1       2.296   6.729  19.835  0.00  0.00    +0.000 A 
ATOM      4  N   UNL     1       1.921   8.017  19.489  0.00  0.00    +0.000 N 
ATOM      5  N   UNL     1       1.400   5.866  20.302  0.00  0.00    +0.000 NA
ATOM      6  C   UNL     1       1.860   4.615  20.517  0.00  0.00    +0.000 A 
ATOM      7  C   UNL     1       1.088   3.563  21.089  0.00  0.00    +0.000 A 
ATOM      8  C   UNL     1       1.799   2.390  21.184  0.00  0.00    +0.000 A 
ATOM      9  S   UNL     1       3.382   2.548  20.547  0.00  0.00    +0.000 S 
ATOM     10  C   UNL     1       3.152   4.212  20.184  0.00  0.00    +0.000 A 
ATOM     11  H   UNL     1       1.715   8.027  18.497  0.00  0.00    +0.000 HD
ENDROOT
BRANCH   4  12
ATOM     12  C   UNL     1       0.905   8.618  20.330  0.00  0.00    +0.000 C 
ATOM     13  C   UNL     1       1.612   9.292  21.498  0.00  0.00    +0.000 C 
ATOM     14  C   UNL     1       0.628  10.383  21.856  0.00  0.00    +0.000 C 
ATOM     15  N   UNL     1       0.204  10.942  20.558  0.00  0.00    +0.000 NA
ATOM     16  C   UNL     1       0.118   9.759  19.662  0.00  0.00    +0.000 C 
BRANCH  15  17
ATOM     17  C   UNL     1       1.181  11.935  20.060  0.00  0.00    +0.000 C 
BRANCH  17  18
ATOM     18  C   UNL     1       1.236  13.207  20.883  0.00  0.00    +0.000 A 
ATOM     19  C   UNL     1       2.423  13.924  21.067  0.00  0.00    +0.000 A 
ATOM     20  C   UNL     1       2.416  15.021  21.913  0.00  0.00    +0.000 A 
ATOM     21  N   UNL     1       1.313  15.482  22.538  0.00  0.00    +0.000 NA
ATOM     22  C   UNL     1       0.162  14.820  22.296  0.00  0.00    +0.000 A 
ATOM     23  C   UNL     1       0.072  13.696  21.488  0.00  0.00    +0.000 A 
ENDBRANCH  17  18
ENDBRANCH  15  17
ENDBRANCH   4  12
BRANCH   1  24
ATOM     24  O   UNL     1       5.266   4.831  19.151  0.00  0.00    +0.000 OA
BRANCH  24  32
ATOM     25  C   UNL     1       3.602   3.381  16.868  0.00  0.00    +0.000 C 
ATOM     26  C   UNL     1       4.854   4.210  16.755  0.00  0.00    +0.000 A 
ATOM     27  C   UNL     1       5.365   4.273  15.434  0.00  0.00    +0.000 A 
ATOM     28  C   UNL     1       6.567   4.904  15.147  0.00  0.00    +0.000 A 
ATOM     29  C   UNL     1       7.289   5.510  16.168  0.00  0.00    +0.000 A 
ATOM     30  C   UNL     1       6.805   5.501  17.485  0.00  0.00    +0.000 A 
ATOM     31  C   UNL     1       7.667   6.162  18.534  0.00  0.00    +0.000 C 
ATOM     32  C   UNL     1       5.564   4.864  17.796  0.00  0.00    +0.000 A 
BRANCH  28  33
ATOM     33  C   UNL     1       7.067   4.888  13.804  0.00  0.00    +0.000 C 
ATOM     34  N   UNL     1       7.483   4.866  12.727  0.00  0.00    +0.000 NA
ENDBRANCH  28  33
ENDBRANCH  24  32
ENDBRANCH   1  24
TORSDOF 6
ENDMDL
MODEL 4
REMARK VINA RESULT:      -7.8      3.151      9.046
REMARK  Name = 
REMARK  8 active torsions:
REMARK  status: ('A' for Active; 'I' for Inactive)
REMARK    1  A    between atoms: C_1  and  C_2
REMARK    2  A    between atoms: C_4  and  C_5
REMARK    3  A    between atoms: C_8  and  C_9
REMARK    4  A    between atoms: C_10  and  O_11
REMARK    5  A    between atoms: O_11  and  C_12
REMARK    6  A    between atoms: N_15  and  C_16
REMARK    7  A    between atoms: N_19  and  C_20
REMARK    8  A    between atoms: C_20  and  C_21
REMARK                            x       y       z     vdW  Elec       q    Type
REMARK                         _______ _______ _______ _____ _____    ______ ____
ROOT
ATOM      1  C   UNL     1       0.234  10.475  19.430  0.00  0.00    +0.000 A 
ATOM      2  N   UNL     1       0.896   9.488  18.810  0.00  0.00    +0.000 NA
ATOM      3  C   UNL     1       1.459   8.500  19.504  0.00  0.00    +0.000 A 
ATOM      4  N   UNL     1       2.308   7.689  18.767  0.00  0.00    +0.000 N 
ATOM      5  N   UNL     1       1.332   8.331  20.816  0.00  0.00    +0.000 NA
ATOM      6  C   UNL     1       0.552   9.237  21.442  0.00  0.00    +0.000 A 
ATOM      7  C   UNL     1       0.219   9.190  22.827  0.00  0.00    +0.000 A 
ATOM      8  C   UNL     1      -0.581  10.242  23.205  0.00  0.00    +0.000 A 
ATOM      9  S   UNL     1      -0.897  11.306  21.900  0.00  0.00    +0.000 S 
ATOM     10  C   UNL     1      -0.007  10.337  20.795  0.00  0.00    +0.000 A 
ATOM     11  H   UNL     1       3.203   8.157  18.695  0.00  0.00    +0.000 HD
ENDROOT
BRANCH   4  12
ATOM     12  C   UNL     1       2.373   6.306  19.192  0.00  0.00    +0.000 C 
ATOM     13  C   UNL     1       1.926   5.441  18.022  0.00  0.00    +0.000 C 
ATOM     14  C   UNL     1       2.659   4.149  18.305  0.00  0.00    +0.000 C 
ATOM     15  N   UNL     1       4.015   4.571  18.705  0.00  0.00    +0.000 NA
ATOM     16  C   UNL     1       3.792   5.801  19.507  0.00  0.00    +0.000 C 
BRANCH  15  17
ATOM     17  C   UNL     1       4.863   4.835  17.521  0.00  0.00    +0.000 C 
BRANCH  17  18
ATOM     18  C   UNL     1       6.076   5.695  17.816  0.00  0.00    +0.000 A 
ATOM     19  C   UNL     1       7.057   5.308  18.735  0.00  0.00    +0.000 A 
ATOM     20  C   UNL     1       8.085   6.189  19.025  0.00  0.00    +0.000 A 
ATOM     21  N   UNL     1       8.235   7.392  18.432  0.00  0.00    +0.000 NA
ATOM     22  C   UNL     1       7.319   7.721  17.497  0.00  0.00    +0.000 A 
ATOM     23  C   UNL     1       6.240   6.919  17.157  0.00  0.00    +0.000 A 
ENDBRANCH  17  18
ENDBRANCH  15  17
ENDBRANCH   4  12
BRANCH   1  24
ATOM     24  O   UNL     1      -0.168  11.603  18.723  0.00  0.00    +0.000 OA
BRANCH  24  32
ATOM     25  C   UNL     1       2.849  11.850  17.764  0.00  0.00    +0.000 C 
ATOM     26  C   UNL     1       1.934  12.911  18.317  0.00  0.00    +0.000 A 
ATOM     27  C   UNL     1       2.569  14.168  18.476  0.00  0.00    +0.000 A 
ATOM     28  C   UNL     1       1.920  15.243  19.067  0.00  0.00    +0.000 A 
ATOM     29  C   UNL     1       0.608  15.102  19.501  0.00  0.00    +0.000 A 
ATOM     30  C   UNL     1      -0.071  13.886  19.334  0.00  0.00    +0.000 A 
ATOM     31  C   UNL     1      -1.486  13.815  19.857  0.00  0.00    +0.000 C 
ATOM     32  C   UNL     1       0.579  12.772  18.718  0.00  0.00    +0.000 A 
BRANCH  28  33
ATOM     33  C   UNL     1       2.628  16.475  19.256  0.00  0.00    +0.000 C 
ATOM     34  N   UNL     1       3.213  17.460  19.400  0.00  0.00    +0.000 NA
ENDBRANCH  28  33
ENDBRANCH  24  32
ENDBRANCH   1  24
TORSDOF 6
ENDMDL
MODEL 5
REMARK VINA RESULT:      -7.7      1.007      1.881
REMARK  Name = 
REMARK  8 active torsions:
REMARK  status: ('A' for Active; 'I' for Inactive)
REMARK    1  A    between atoms: C_1  and  C_2
REMARK    2  A    between atoms: C_4  and  C_5
REMARK    3  A    between atoms: C_8  and  C_9
REMARK    4  A    between atoms: C_10  and  O_11
REMARK    5  A    between atoms: O_11  and  C_12
REMARK    6  A    between atoms: N_15  and  C_16
REMARK    7  A    between atoms: N_19  and  C_20
REMARK    8  A    between atoms: C_20  and  C_21
REMARK                            x       y       z     vdW  Elec       q    Type
REMARK                         _______ _______ _______ _____ _____    ______ ____
ROOT
ATOM      1  C   UNL     1       4.094   4.969  19.477  0.00  0.00    +0.000 A 
ATOM      2  N   UNL     1       3.745   6.217  19.131  0.00  0.00    +0.000 NA
ATOM      3  C   UNL     1       2.474   6.611  19.181  0.00  0.00    +0.000 A 
ATOM      4  N   UNL     1       2.224   7.831  18.573  0.00  0.00    +0.000 N 
ATOM      5  N   UNL     1       1.475   5.880  19.666  0.00  0.00    +0.000 NA
ATOM      6  C   UNL     1       1.827   4.670  20.150  0.00  0.00    +0.000 A 
ATOM      7  C   UNL     1       0.927   3.768  20.788  0.00  0.00    +0.000 A 
ATOM      8  C   UNL     1       1.546   2.603  21.174  0.00  0.00    +0.000 A 
ATOM      9  S   UNL     1       3.202   2.582  20.733  0.00  0.00    +0.000 S 
ATOM     10  C   UNL     1       3.122   4.163  20.064  0.00  0.00    +0.000 A 
ATOM     11  H   UNL     1       2.143   7.672  17.576  0.00  0.00    +0.000 HD
ENDROOT
BRANCH   4  12
ATOM     12  C   UNL     1       1.153   8.611  19.157  0.00  0.00    +0.000 C 
ATOM     13  C   UNL     1       1.723   9.352  20.359  0.00  0.00    +0.000 C 
ATOM     14  C   UNL     1       0.815  10.558  20.428  0.00  0.00    +0.000 C 
ATOM     15  N   UNL     1       0.673  10.998  19.027  0.00  0.00    +0.000 NA
ATOM     16  C   UNL     1       0.612   9.732  18.252  0.00  0.00    +0.000 C 
BRANCH  15  17
ATOM     17  C   UNL     1       1.819  11.838  18.613  0.00  0.00    +0.000 C 
BRANCH  17  18
ATOM     18  C   UNL     1       1.538  13.327  18.664  0.00  0.00    +0.000 A 
ATOM     19  C   UNL     1       2.563  14.276  18.719  0.00  0.00    +0.000 A 
ATOM     20  C   UNL     1       2.228  15.613  18.864  0.00  0.00    +0.000 A 
ATOM     21  N   UNL     1       0.960  16.071  18.903  0.00  0.00    +0.000 NA
ATOM     22  C   UNL     1      -0.018  15.149  18.780  0.00  0.00    +0.000 A 
ATOM     23  C   UNL     1       0.216  13.787  18.658  0.00  0.00    +0.000 A 
ENDBRANCH  17  18
ENDBRANCH  15  17
ENDBRANCH   4  12
BRANCH   1  24
ATOM     24  O   UNL     1       5.381   4.505  19.227  0.00  0.00    +0.000 OA
BRANCH  24  32
ATOM     25  C   UNL     1       7.799   6.470  18.616  0.00  0.00    +0.000 C 
ATOM     26  C   UNL     1       7.059   5.550  17.682  0.00  0.00    +0.000 A 
ATOM     27  C   UNL     1       7.492   5.655  16.336  0.00  0.00    +0.000 A 
ATOM     28  C   UNL     1       6.860   4.964  15.311  0.00  0.00    +0.000 A 
ATOM     29  C   UNL     1       5.788   4.129  15.601  0.00  0.00    +0.000 A 
ATOM     30  C   UNL     1       5.347   3.969  16.924  0.00  0.00    +0.000 A 
ATOM     31  C   UNL     1       4.160   3.062  17.143  0.00  0.00    +0.000 C 
ATOM     32  C   UNL     1       5.992   4.666  17.992  0.00  0.00    +0.000 A 
BRANCH  28  33
ATOM     33  C   UNL     1       7.301   5.151  13.960  0.00  0.00    +0.000 C 
ATOM     34  N   UNL     1       7.664   5.285  12.873  0.00  0.00    +0.000 NA
ENDBRANCH  28  33
ENDBRANCH  24  32
ENDBRANCH   1  24
TORSDOF 6
ENDMDL
MODEL 6
REMARK VINA RESULT:      -7.6      3.159      9.077
REMARK  Name = 
REMARK  8 active torsions:
REMARK  status: ('A' for Active; 'I' for Inactive)
REMARK    1  A    between atoms: C_1  and  C_2
REMARK    2  A    between atoms: C_4  and  C_5
REMARK    3  A    between atoms: C_8  and  C_9
REMARK    4  A    between atoms: C_10  and  O_11
REMARK    5  A    between atoms: O_11  and  C_12
REMARK    6  A    between atoms: N_15  and  C_16
REMARK    7  A    between atoms: N_19  and  C_20
REMARK    8  A    between atoms: C_20  and  C_21
REMARK                            x       y       z     vdW  Elec       q    Type
REMARK                         _______ _______ _______ _____ _____    ______ ____
ROOT
ATOM      1  C   UNL     1       0.356  10.613  19.500  0.00  0.00    +0.000 A 
ATOM      2  N   UNL     1       1.022   9.627  18.881  0.00  0.00    +0.000 NA
ATOM      3  C   UNL     1       1.509   8.594  19.567  0.00  0.00    +0.000 A 
ATOM      4  N   UNL     1       2.373   7.782  18.850  0.00  0.00    +0.000 N 
ATOM      5  N   UNL     1       1.297   8.380  20.862  0.00  0.00    +0.000 NA
ATOM      6  C   UNL     1       0.510   9.289  21.476  0.00  0.00    +0.000 A 
ATOM      7  C   UNL     1       0.093   9.201  22.836  0.00  0.00    +0.000 A 
ATOM      8  C   UNL     1      -0.693  10.265  23.208  0.00  0.00    +0.000 A 
ATOM      9  S   UNL     1      -0.894  11.389  21.930  0.00  0.00    +0.000 S 
ATOM     10  C   UNL     1       0.029  10.432  20.841  0.00  0.00    +0.000 A 
ATOM     11  H   UNL     1       3.286   8.220  18.850  0.00  0.00    +0.000 HD
ENDROOT
BRANCH   4  12
ATOM     12  C   UNL     1       2.366   6.382  19.223  0.00  0.00    +0.000 C 
ATOM     13  C   UNL     1       1.870   5.586  18.023  0.00  0.00    +0.000 C 
ATOM     14  C   UNL     1       2.534   4.248  18.253  0.00  0.00    +0.000 C 
ATOM     15  N   UNL     1       3.912   4.582  18.661  0.00  0.00    +0.000 NA
ATOM     16  C   UNL     1       3.758   5.792  19.510  0.00  0.00    +0.000 C 
BRANCH  15  17
ATOM     17  C   UNL     1       4.768   4.846  17.483  0.00  0.00    +0.000 C 
BRANCH  17  18
ATOM     18  C   UNL     1       6.002   5.670  17.794  0.00  0.00    +0.000 A 
ATOM     19  C   UNL     1       6.954   5.259  18.733  0.00  0.00    +0.000 A 
ATOM     20  C   UNL     1       8.003   6.111  19.036  0.00  0.00    +0.000 A 
ATOM     21  N   UNL     1       8.201   7.304  18.439  0.00  0.00    +0.000 NA
ATOM     22  C   UNL     1       7.312   7.655  17.486  0.00  0.00    +0.000 A 
ATOM     23  C   UNL     1       6.215   6.884  17.132  0.00  0.00    +0.000 A 
ENDBRANCH  17  18
ENDBRANCH  15  17
ENDBRANCH   4  12
BRANCH   1  24
ATOM     24  O   UNL     1       0.035  11.781  18.816  0.00  0.00    +0.000 OA
BRANCH  24  32
ATOM     25  C   UNL     1      -1.338  14.293  20.187  0.00  0.00    +0.000 C 
ATOM     26  C   UNL     1       0.071  14.135  19.681  0.00  0.00    +0.000 A 
ATOM     27  C   UNL     1       0.841  15.321  19.792  0.00  0.00    +0.000 A 
ATOM     28  C   UNL     1       2.130  15.403  19.285  0.00  0.00    +0.000 A 
ATOM     29  C   UNL     1       2.699  14.297  18.666  0.00  0.00    +0.000 A 
ATOM     30  C   UNL     1       1.986  13.093  18.563  0.00  0.00    +0.000 A 
ATOM     31  C   UNL     1       2.673  11.950  17.855  0.00  0.00    +0.000 C 
ATOM     32  C   UNL     1       0.662  12.987  19.089  0.00  0.00    +0.000 A 
BRANCH  28  33
ATOM     33  C   UNL     1       2.843  16.643  19.372  0.00  0.00    +0.000 C 
ATOM     34  N   UNL     1       3.430  17.634  19.452  0.00  0.00    +0.000 NA
ENDBRANCH  28  33
ENDBRANCH  24  32
ENDBRANCH   1  24
TORSDOF 6
ENDMDL
MODEL 7
REMARK VINA RESULT:      -7.6      3.616      9.404
REMARK  Name = 
REMARK  8 active torsions:
REMARK  status: ('A' for Active; 'I' for Inactive)
REMARK    1  A    between atoms: C_1  and  C_2
REMARK    2  A    between atoms: C_4  and  C_5
REMARK    3  A    between atoms: C_8  and  C_9
REMARK    4  A    between atoms: C_10  and  O_11
REMARK    5  A    between atoms: O_11  and  C_12
REMARK    6  A    between atoms: N_15  and  C_16
REMARK    7  A    between atoms: N_19  and  C_20
REMARK    8  A    between atoms: C_20  and  C_21
REMARK                            x       y       z     vdW  Elec       q    Type
REMARK                         _______ _______ _______ _____ _____    ______ ____
ROOT
ATOM      1  C   UNL     1       0.083  10.163  19.611  0.00  0.00    +0.000 A 
ATOM      2  N   UNL     1       0.721   9.216  18.908  0.00  0.00    +0.000 NA
ATOM      3  C   UNL     1       1.437   8.274  19.522  0.00  0.00    +0.000 A 
ATOM      4  N   UNL     1       2.231   7.514  18.679  0.00  0.00    +0.000 N 
ATOM      5  N   UNL     1       1.497   8.110  20.840  0.00  0.00    +0.000 NA
ATOM      6  C   UNL     1       0.748   8.969  21.563  0.00  0.00    +0.000 A 
ATOM      7  C   UNL     1       0.607   8.914  22.980  0.00  0.00    +0.000 A 
ATOM      8  C   UNL     1      -0.203   9.914  23.461  0.00  0.00    +0.000 A 
ATOM      9  S   UNL     1      -0.762  10.942  22.209  0.00  0.00    +0.000 S 
ATOM     10  C   UNL     1       0.036  10.023  20.995  0.00  0.00    +0.000 A 
ATOM     11  H   UNL     1       3.076   8.039  18.488  0.00  0.00    +0.000 HD
ENDROOT
BRANCH   4  12
ATOM     12  C   UNL     1       2.446   6.142  19.093  0.00  0.00    +0.000 C 
ATOM     13  C   UNL     1       2.108   5.244  17.911  0.00  0.00    +0.000 C 
ATOM     14  C   UNL     1       2.976   4.039  18.190  0.00  0.00    +0.000 C 
ATOM     15  N   UNL     1       4.274   4.604  18.608  0.00  0.00    +0.000 NA
ATOM     16  C   UNL     1       3.909   5.795  19.419  0.00  0.00    +0.000 C 
BRANCH  15  17
ATOM     17  C   UNL     1       5.098   4.972  17.436  0.00  0.00    +0.000 C 
BRANCH  17  18
ATOM     18  C   UNL     1       6.272   5.872  17.769  0.00  0.00    +0.000 A 
ATOM     19  C   UNL     1       7.243   5.511  18.709  0.00  0.00    +0.000 A 
ATOM     20  C   UNL     1       8.230   6.427  19.033  0.00  0.00    +0.000 A 
ATOM     21  N   UNL     1       8.350   7.640  18.456  0.00  0.00    +0.000 NA
ATOM     22  C   UNL     1       7.446   7.946  17.502  0.00  0.00    +0.000 A 
ATOM     23  C   UNL     1       6.406   7.108  17.127  0.00  0.00    +0.000 A 
ENDBRANCH  17  18
ENDBRANCH  15  17
ENDBRANCH   4  12
BRANCH   1  24
ATOM     24  O   UNL     1      -0.485  11.255  18.962  0.00  0.00    +0.000 OA
BRANCH  24  32
ATOM     25  C   UNL     1      -1.907   9.595  16.659  0.00  0.00    +0.000 C 
ATOM     26  C   UNL     1      -2.498  10.593  17.619  0.00  0.00    +0.000 A 
ATOM     27  C   UNL     1      -3.873  10.846  17.385  0.00  0.00    +0.000 A 
ATOM     28  C   UNL     1      -4.568  11.812  18.100  0.00  0.00    +0.000 A 
ATOM     29  C   UNL     1      -3.917  12.542  19.086  0.00  0.00    +0.000 A 
ATOM     30  C   UNL     1      -2.564  12.302  19.374  0.00  0.00    +0.000 A 
ATOM     31  C   UNL     1      -1.931  13.159  20.444  0.00  0.00    +0.000 C 
ATOM     32  C   UNL     1      -1.836  11.305  18.655  0.00  0.00    +0.000 A 
BRANCH  28  33
ATOM     33  C   UNL     1      -5.943  12.068  17.784  0.00  0.00    +0.000 C 
ATOM     34  N   UNL     1      -7.044  12.289  17.520  0.00  0.00    +0.000 NA
ENDBRANCH  28  33
ENDBRANCH  24  32
ENDBRANCH   1  24
TORSDOF 6
ENDMDL
MODEL 8
REMARK VINA RESULT:      -7.5      2.745      9.278
REMARK  Name = 
REMARK  8 active torsions:
REMARK  status: ('A' for Active; 'I' for Inactive)
REMARK    1  A    between atoms: C_1  and  C_2
REMARK    2  A    between atoms: C_4  and  C_5
REMARK    3  A    between atoms: C_8  and  C_9
REMARK    4  A    between atoms: C_10  and  O_11
REMARK    5  A    between atoms: O_11  and  C_12
REMARK    6  A    between atoms: N_15  and  C_16
REMARK    7  A    between atoms: N_19  and  C_20
REMARK    8  A    between atoms: C_20  and  C_21
REMARK                            x       y       z     vdW  Elec       q    Type
REMARK                         _______ _______ _______ _____ _____    ______ ____
ROOT
ATOM      1  C   UNL     1       0.359  10.336  19.550  0.00  0.00    +0.000 A 
ATOM      2  N   UNL     1       1.087   9.325  19.054  0.00  0.00    +0.000 NA
ATOM      3  C   UNL     1       1.604   8.395  19.855  0.00  0.00    +0.000 A 
ATOM      4  N   UNL     1       2.525   7.557  19.248  0.00  0.00    +0.000 N 
ATOM      5  N   UNL     1       1.367   8.308  21.161  0.00  0.00    +0.000 NA
ATOM      6  C   UNL     1       0.522   9.235  21.658  0.00  0.00    +0.000 A 
ATOM      7  C   UNL     1       0.073   9.269  23.010  0.00  0.00    +0.000 A 
ATOM      8  C   UNL     1      -0.772  10.326  23.250  0.00  0.00    +0.000 A 
ATOM      9  S   UNL     1      -0.992  11.298  21.856  0.00  0.00    +0.000 S 
ATOM     10  C   UNL     1       0.004  10.280  20.895  0.00  0.00    +0.000 A 
ATOM     11  H   UNL     1       3.416   8.038  19.222  0.00  0.00    +0.000 HD
ENDROOT
BRANCH   4  12
ATOM     12  C   UNL     1       2.575   6.206  19.766  0.00  0.00    +0.000 C 
ATOM     13  C   UNL     1       1.462   5.412  19.096  0.00  0.00    +0.000 C 
ATOM     14  C   UNL     1       2.018   4.007  19.150  0.00  0.00    +0.000 C 
ATOM     15  N   UNL     1       3.436   4.154  18.770  0.00  0.00    +0.000 NA
ATOM     16  C   UNL     1       3.854   5.430  19.405  0.00  0.00    +0.000 C 
BRANCH  15  17
ATOM     17  C   UNL     1       3.592   4.197  17.299  0.00  0.00    +0.000 C 
BRANCH  17  18
ATOM     18  C   UNL     1       5.025   4.378  16.839  0.00  0.00    +0.000 A 
ATOM     19  C   UNL     1       6.105   4.307  17.725  0.00  0.00    +0.000 A 
ATOM     20  C   UNL     1       7.377   4.580  17.249  0.00  0.00    +0.000 A 
ATOM     21  N   UNL     1       7.654   4.863  15.960  0.00  0.00    +0.000 NA
ATOM     22  C   UNL     1       6.610   4.860  15.105  0.00  0.00    +0.000 A 
ATOM     23  C   UNL     1       5.298   4.625  15.489  0.00  0.00    +0.000 A 
ENDBRANCH  17  18
ENDBRANCH  15  17
ENDBRANCH   4  12
BRANCH   1  24
ATOM     24  O   UNL     1       0.002  11.408  18.739  0.00  0.00    +0.000 OA
BRANCH  24  32
ATOM     25  C   UNL     1      -1.488  13.968  19.884  0.00  0.00    +0.000 C 
ATOM     26  C   UNL     1      -0.076  13.833  19.380  0.00  0.00    +0.000 A 
ATOM     27  C   UNL     1       0.634  15.060  19.371  0.00  0.00    +0.000 A 
ATOM     28  C   UNL     1       1.915  15.158  18.845  0.00  0.00    +0.000 A 
ATOM     29  C   UNL     1       2.535  14.027  18.327  0.00  0.00    +0.000 A 
ATOM     30  C   UNL     1       1.883  12.785  18.344  0.00  0.00    +0.000 A 
ATOM     31  C   UNL     1       2.622  11.616  17.739  0.00  0.00    +0.000 C 
ATOM     32  C   UNL     1       0.568  12.665  18.892  0.00  0.00    +0.000 A 
BRANCH  28  33
ATOM     33  C   UNL     1       2.565  16.434  18.808  0.00  0.00    +0.000 C 
ATOM     34  N   UNL     1       3.073  17.470  18.784  0.00  0.00    +0.000 NA
ENDBRANCH  28  33
ENDBRANCH  24  32
ENDBRANCH   1  24
TORSDOF 6
ENDMDL
MODEL 9
REMARK VINA RESULT:      -7.3      3.584      9.453
REMARK  Name = 
REMARK  8 active torsions:
REMARK  status: ('A' for Active; 'I' for Inactive)
REMARK    1  A    between atoms: C_1  and  C_2
REMARK    2  A    between atoms: C_4  and  C_5
REMARK    3  A    between atoms: C_8  and  C_9
REMARK    4  A    between atoms: C_10  and  O_11
REMARK    5  A    between atoms: O_11  and  C_12
REMARK    6  A    between atoms: N_15  and  C_16
REMARK    7  A    between atoms: N_19  and  C_20
REMARK    8  A    between atoms: C_20  and  C_21
REMARK                            x       y       z     vdW  Elec       q    Type
REMARK                         _______ _______ _______ _____ _____    ______ ____
ROOT
ATOM      1  C   UNL     1       0.186  10.226  19.478  0.00  0.00    +0.000 A 
ATOM      2  N   UNL     1       0.833   9.255  18.817  0.00  0.00    +0.000 NA
ATOM      3  C   UNL     1       1.488   8.299  19.473  0.00  0.00    +0.000 A 
ATOM      4  N   UNL     1       2.304   7.510  18.679  0.00  0.00    +0.000 N 
ATOM      5  N   UNL     1       1.475   8.145  20.794  0.00  0.00    +0.000 NA
ATOM      6  C   UNL     1       0.715   9.031  21.471  0.00  0.00    +0.000 A 
ATOM      7  C   UNL     1       0.498   8.992  22.879  0.00  0.00    +0.000 A 
ATOM      8  C   UNL     1      -0.307  10.019  23.310  0.00  0.00    +0.000 A 
ATOM      9  S   UNL     1      -0.770  11.051  22.023  0.00  0.00    +0.000 S 
ATOM     10  C   UNL     1       0.063  10.100  20.859  0.00  0.00    +0.000 A 
ATOM     11  H   UNL     1       3.172   8.009  18.528  0.00  0.00    +0.000 HD
ENDROOT
BRANCH   4  12
ATOM     12  C   UNL     1       2.457   6.136  19.114  0.00  0.00    +0.000 C 
ATOM     13  C   UNL     1       2.077   5.237  17.946  0.00  0.00    +0.000 C 
ATOM     14  C   UNL     1       2.891   3.998  18.242  0.00  0.00    +0.000 C 
ATOM     15  N   UNL     1       4.213   4.510  18.650  0.00  0.00    +0.000 NA
ATOM     16  C   UNL     1       3.903   5.728  19.442  0.00  0.00    +0.000 C 
BRANCH  15  17
ATOM     17  C   UNL     1       5.050   4.823  17.470  0.00  0.00    +0.000 C 
BRANCH  17  18
ATOM     18  C   UNL     1       6.208   5.755  17.770  0.00  0.00    +0.000 A 
ATOM     19  C   UNL     1       7.199   5.434  18.704  0.00  0.00    +0.000 A 
ATOM     20  C   UNL     1       8.170   6.377  18.997  0.00  0.00    +0.000 A 
ATOM     21  N   UNL     1       8.257   7.581  18.395  0.00  0.00    +0.000 NA
ATOM     22  C   UNL     1       7.334   7.847  17.447  0.00  0.00    +0.000 A 
ATOM     23  C   UNL     1       6.308   6.980  17.102  0.00  0.00    +0.000 A 
ENDBRANCH  17  18
ENDBRANCH  15  17
ENDBRANCH   4  12
BRANCH   1  24
ATOM     24  O   UNL     1      -0.316  11.328  18.793  0.00  0.00    +0.000 OA
BRANCH  24  32
ATOM     25  C   UNL     1      -2.048  13.346  20.528  0.00  0.00    +0.000 C 
ATOM     26  C   UNL     1      -2.484  12.423  19.421  0.00  0.00    +0.000 A 
ATOM     27  C   UNL     1      -3.884  12.440  19.198  0.00  0.00    +0.000 A 
ATOM     28  C   UNL     1      -4.489  11.581  18.291  0.00  0.00    +0.000 A 
ATOM     29  C   UNL     1      -3.711  10.690  17.562  0.00  0.00    +0.000 A 
ATOM     30  C   UNL     1      -2.318  10.661  17.726  0.00  0.00    +0.000 A 
ATOM     31  C   UNL     1      -1.555   9.644  16.911  0.00  0.00    +0.000 C 
ATOM     32  C   UNL     1      -1.678  11.545  18.649  0.00  0.00    +0.000 A 
BRANCH  28  33
ATOM     33  C   UNL     1      -5.914  11.600  18.146  0.00  0.00    +0.000 C 
ATOM     34  N   UNL     1      -7.061  11.630  18.018  0.00  0.00    +0.000 NA
ENDBRANCH  28  33
ENDBRANCH  24  32
ENDBRANCH   1  24
TORSDOF 6
ENDMDL
