MODEL 1
REMARK VINA RESULT:      -7.6      0.000      0.000
REMARK  Name = 
REMARK  8 active torsions:
REMARK  status: ('A' for Active; 'I' for Inactive)
REMARK    1  A    between atoms: C_1  and  C_2
REMARK    2  A    between atoms: C_2  and  C_3
REMARK    3  A    between atoms: C_2  and  O_4
REMARK    4  A    between atoms: O_4  and  C_5
REMARK    5  A    between atoms: C_9  and  C_10
REMARK    6  A    between atoms: C_12  and  N_13
REMARK    7  A    between atoms: C_14  and  C_16
REMARK    8  A    between atoms: N_18  and  C_19
REMARK                            x       y       z     vdW  Elec       q    Type
REMARK                         _______ _______ _______ _____ _____    ______ ____
ROOT
ATOM      1  C   UNL     1       3.013   6.803  18.606  0.00  0.00    +0.000 A 
ATOM      2  C   UNL     1       3.815   6.569  17.500  0.00  0.00    +0.000 A 
ATOM      3  C   UNL     1       4.421   5.329  17.419  0.00  0.00    +0.000 A 
ATOM      4  N   UNL     1       4.271   4.400  18.368  0.00  0.00    +0.000 NA
ATOM      5  C   UNL     1       3.506   4.720  19.411  0.00  0.00    +0.000 A 
ATOM      6  N   UNL     1       2.870   5.881  19.580  0.00  0.00    +0.000 NA
ENDROOT
BRANCH   1  11
ATOM      7  C   UNL     1       0.563   9.297  20.097  0.00  0.00    +0.000 A 
ATOM      8  C   UNL     1       0.577  10.309  19.140  0.00  0.00    +0.000 A 
ATOM      9  C   UNL     1       1.419  10.217  18.034  0.00  0.00    +0.000 A 
ATOM     10  C   UNL     1       2.237   9.095  17.870  0.00  0.00    +0.000 A 
ATOM     11  C   UNL     1       2.224   8.041  18.802  0.00  0.00    +0.000 A 
ATOM     12  C   UNL     1       1.366   8.169  19.916  0.00  0.00    +0.000 A 
BRANCH   7  13
ATOM     13  O   UNL     1      -0.330   9.455  21.118  0.00  0.00    +0.000 OA
BRANCH  13  15
ATOM     14  C   UNL     1      -0.974  11.383  22.351  0.00  0.00    +0.000 C 
ATOM     15  C   UNL     1       0.075  10.283  22.217  0.00  0.00    +0.000 C 
ATOM     16  C   UNL     1       0.121   9.438  23.486  0.00  0.00    +0.000 C 
ENDBRANCH  13  15
ENDBRANCH   7  13
ENDBRANCH   1  11
BRANCH   3  17
ATOM     17  N   UNL     1       5.189   5.041  16.285  0.00  0.00    +0.000 N 
ATOM     18  C   UNL     1       6.569   5.103  16.223  0.00  0.00    +0.000 C 
ATOM     19  O   UNL     1       7.337   5.474  17.108  0.00  0.00    +0.000 OA
ATOM     20  H   UNL     1       4.727   4.709  15.445  0.00  0.00    +0.000 HD
BRANCH  18  21
ATOM     21  C   UNL     1       7.117   4.612  14.879  0.00  0.00    +0.000 C 
ATOM     22  C   UNL     1       5.910   4.220  14.008  0.00  0.00    +0.000 C 
ATOM     23  N   UNL     1       6.374   3.801  12.646  0.00  0.00    +0.000 N 
ATOM     24  C   UNL     1       7.230   4.849  12.023  0.00  0.00    +0.000 C 
ATOM     25  C   UNL     1       8.400   5.158  12.963  0.00  0.00    +0.000 C 
ATOM     26  O   UNL     1       7.926   5.625  14.240  0.00  0.00    +0.000 OA
BRANCH  23  27
ATOM     27  C   UNL     1       5.947   2.700  12.014  0.00  0.00    +0.000 C 
ATOM     28  N   UNL     1       5.587   1.756  11.452  0.00  0.00    +0.000 NA
ENDBRANCH  23  27
ENDBRANCH  18  21
ENDBRANCH   3  17
TORSDOF 6
ENDMDL
MODEL 2
REMARK VINA RESULT:      -7.5      1.366      2.205
REMARK  Name = 
REMARK  8 active torsions:
REMARK  status: ('A' for Active; 'I' for Inactive)
REMARK    1  A    between atoms: C_1  and  C_2
REMARK    2  A    between atoms: C_2  and  C_3
REMARK    3  A    between atoms: C_2  and  O_4
REMARK    4  A    between atoms: O_4  and  C_5
REMARK    5  A    between atoms: C_9  and  C_10
REMARK    6  A    between atoms: C_12  and  N_13
REMARK    7  A    between atoms: C_14  and  C_16
REMARK    8  A    between atoms: N_18  and  C_19
REMARK                            x       y       z     vdW  Elec       q    Type
REMARK                         _______ _______ _______ _____ _____    ______ ____
ROOT
ATOM      1  C   UNL     1       3.080   5.863  19.112  0.00  0.00    +0.000 A 
ATOM      2  C   UNL     1       3.846   5.793  17.959  0.00  0.00    +0.000 A 
ATOM      3  C   UNL     1       4.464   4.585  17.691  0.00  0.00    +0.000 A 
ATOM      4  N   UNL     1       4.357   3.534  18.510  0.00  0.00    +0.000 NA
ATOM      5  C   UNL     1       3.624   3.697  19.610  0.00  0.00    +0.000 A 
ATOM      6  N   UNL     1       2.980   4.815  19.955  0.00  0.00    +0.000 NA
ENDROOT
BRANCH   1  11
ATOM      7  C   UNL     1       1.451   9.293  18.964  0.00  0.00    +0.000 A 
ATOM      8  C   UNL     1       0.915   9.403  20.244  0.00  0.00    +0.000 A 
ATOM      9  C   UNL     1       1.029   8.348  21.145  0.00  0.00    +0.000 A 
ATOM     10  C   UNL     1       1.704   7.182  20.774  0.00  0.00    +0.000 A 
ATOM     11  C   UNL     1       2.284   7.050  19.499  0.00  0.00    +0.000 A 
ATOM     12  C   UNL     1       2.142   8.134  18.606  0.00  0.00    +0.000 A 
BRANCH   7  13
ATOM     13  O   UNL     1       1.330  10.398  18.169  0.00  0.00    +0.000 OA
BRANCH  13  15
ATOM     14  C   UNL     1       2.533  12.448  18.147  0.00  0.00    +0.000 C 
ATOM     15  C   UNL     1       1.400  11.677  18.815  0.00  0.00    +0.000 C 
ATOM     16  C   UNL     1       0.075  12.406  18.617  0.00  0.00    +0.000 C 
ENDBRANCH  13  15
ENDBRANCH   7  13
ENDBRANCH   1  11
BRANCH   3  17
ATOM     17  N   UNL     1       5.196   4.465  16.505  0.00  0.00    +0.000 N 
ATOM     18  C   UNL     1       6.496   4.901  16.326  0.00  0.00    +0.000 C 
ATOM     19  O   UNL     1       7.193   5.510  17.133  0.00  0.00    +0.000 OA
ATOM     20  H   UNL     1       4.784   3.979  15.715  0.00  0.00    +0.000 HD
BRANCH  18  21
ATOM     21  C   UNL     1       7.058   4.516  14.953  0.00  0.00    +0.000 C 
ATOM     22  C   UNL     1       5.870   4.087  14.075  0.00  0.00    +0.000 C 
ATOM     23  N   UNL     1       6.343   3.768  12.689  0.00  0.00    +0.000 N 
ATOM     24  C   UNL     1       7.119   4.902  12.113  0.00  0.00    +0.000 C 
ATOM     25  C   UNL     1       8.277   5.241  13.056  0.00  0.00    +0.000 C 
ATOM     26  O   UNL     1       7.790   5.611  14.359  0.00  0.00    +0.000 OA
BRANCH  23  27
ATOM     27  C   UNL     1       5.982   2.675  12.006  0.00  0.00    +0.000 C 
ATOM     28  N   UNL     1       5.667   1.721  11.433  0.00  0.00    +0.000 NA
ENDBRANCH  23  27
ENDBRANCH  18  21
ENDBRANCH   3  17
TORSDOF 6
ENDMDL
MODEL 3
REMARK VINA RESULT:      -7.3      2.645      9.874
REMARK  Name = 
REMARK  8 active torsions:
REMARK  status: ('A' for Active; 'I' for Inactive)
REMARK    1  A    between atoms: C_1  and  C_2
REMARK    2  A    between atoms: C_2  and  C_3
REMARK    3  A    between atoms: C_2  and  O_4
REMARK    4  A    between atoms: O_4  and  C_5
REMARK    5  A    between atoms: C_9  and  C_10
REMARK    6  A    between atoms: C_12  and  N_13
REMARK    7  A    between atoms: C_14  and  C_16
REMARK    8  A    between atoms: N_18  and  C_19
REMARK                            x       y       z     vdW  Elec       q    Type
REMARK                         _______ _______ _______ _____ _____    ______ ____
ROOT
ATOM      1  C   UNL     1       3.541   4.932  18.562  0.00  0.00    +0.000 A 
ATOM      2  C   UNL     1       3.195   6.085  19.251  0.00  0.00    +0.000 A 
ATOM      3  C   UNL     1       2.111   6.000  20.106  0.00  0.00    +0.000 A 
ATOM      4  N   UNL     1       1.407   4.874  20.252  0.00  0.00    +0.000 NA
ATOM      5  C   UNL     1       1.792   3.822  19.531  0.00  0.00    +0.000 A 
ATOM      6  N   UNL     1       2.826   3.796  18.687  0.00  0.00    +0.000 NA
ENDROOT
BRANCH   1  11
ATOM      7  C   UNL     1       5.659   4.758  15.411  0.00  0.00    +0.000 A 
ATOM      8  C   UNL     1       6.918   4.475  15.936  0.00  0.00    +0.000 A 
ATOM      9  C   UNL     1       7.101   4.394  17.314  0.00  0.00    +0.000 A 
ATOM     10  C   UNL     1       6.015   4.572  18.175  0.00  0.00    +0.000 A 
ATOM     11  C   UNL     1       4.724   4.828  17.677  0.00  0.00    +0.000 A 
ATOM     12  C   UNL     1       4.574   4.914  16.276  0.00  0.00    +0.000 A 
BRANCH   7  13
ATOM     13  O   UNL     1       5.570   4.770  14.048  0.00  0.00    +0.000 OA
BRANCH  13  15
ATOM     14  C   UNL     1       5.772   3.195  12.279  0.00  0.00    +0.000 C 
ATOM     15  C   UNL     1       6.539   3.998  13.324  0.00  0.00    +0.000 C 
ATOM     16  C   UNL     1       7.522   4.947  12.646  0.00  0.00    +0.000 C 
ENDBRANCH  13  15
ENDBRANCH   7  13
ENDBRANCH   1  11
BRANCH   3  17
ATOM     17  N   UNL     1       1.773   7.130  20.858  0.00  0.00    +0.000 N 
ATOM     18  C   UNL     1       1.463   8.371  20.334  0.00  0.00    +0.000 C 
ATOM     19  O   UNL     1       1.491   8.706  19.152  0.00  0.00    +0.000 OA
ATOM     20  H   UNL     1       1.691   7.048  21.866  0.00  0.00    +0.000 HD
BRANCH  18  21
ATOM     21  C   UNL     1       1.018   9.367  21.410  0.00  0.00    +0.000 C 
ATOM     22  C   UNL     1       0.464  10.607  20.687  0.00  0.00    +0.000 C 
ATOM     23  N   UNL     1      -0.060  11.593  21.686  0.00  0.00    +0.000 N 
ATOM     24  C   UNL     1      -1.049  10.958  22.600  0.00  0.00    +0.000 C 
ATOM     25  C   UNL     1      -0.396   9.745  23.272  0.00  0.00    +0.000 C 
ATOM     26  O   UNL     1       0.035   8.782  22.293  0.00  0.00    +0.000 OA
BRANCH  23  27
ATOM     27  C   UNL     1       0.208  12.904  21.657  0.00  0.00    +0.000 C 
ATOM     28  N   UNL     1       0.450  14.034  21.614  0.00  0.00    +0.000 NA
ENDBRANCH  23  27
ENDBRANCH  18  21
ENDBRANCH   3  17
TORSDOF 6
ENDMDL
MODEL 4
REMARK VINA RESULT:      -7.2      3.951      6.380
REMARK  Name = 
REMARK  8 active torsions:
REMARK  status: ('A' for Active; 'I' for Inactive)
REMARK    1  A    between atoms: C_1  and  C_2
REMARK    2  A    between atoms: C_2  and  C_3
REMARK    3  A    between atoms: C_2  and  O_4
REMARK    4  A    between atoms: O_4  and  C_5
REMARK    5  A    between atoms: C_9  and  C_10
REMARK    6  A    between atoms: C_12  and  N_13
REMARK    7  A    between atoms: C_14  and  C_16
REMARK    8  A    between atoms: N_18  and  C_19
REMARK                            x       y       z     vdW  Elec       q    Type
REMARK                         _______ _______ _______ _____ _____    ______ ____
ROOT
ATOM      1  C   UNL     1      -0.871  10.450  18.604  0.00  0.00    +0.000 A 
ATOM      2  C   UNL     1       0.090   9.492  18.324  0.00  0.00    +0.000 A 
ATOM      3  C   UNL     1       1.089   9.316  19.263  0.00  0.00    +0.000 A 
ATOM      4  N   UNL     1       1.152  10.045  20.381  0.00  0.00    +0.000 NA
ATOM      5  C   UNL     1       0.203  10.963  20.558  0.00  0.00    +0.000 A 
ATOM      6  N   UNL     1      -0.808  11.206  19.719  0.00  0.00    +0.000 NA
ENDROOT
BRANCH   1  11
ATOM      7  C   UNL     1      -4.300  11.651  17.489  0.00  0.00    +0.000 A 
ATOM      8  C   UNL     1      -4.399  11.079  16.223  0.00  0.00    +0.000 A 
ATOM      9  C   UNL     1      -3.335  10.347  15.700  0.00  0.00    +0.000 A 
ATOM     10  C   UNL     1      -2.174  10.164  16.455  0.00  0.00    +0.000 A 
ATOM     11  C   UNL     1      -2.054  10.703  17.749  0.00  0.00    +0.000 A 
ATOM     12  C   UNL     1      -3.146  11.448  18.247  0.00  0.00    +0.000 A 
BRANCH   7  13
ATOM     13  O   UNL     1      -5.412  12.308  17.934  0.00  0.00    +0.000 OA
BRANCH  13  15
ATOM     14  C   UNL     1      -6.500  13.206  19.847  0.00  0.00    +0.000 C 
ATOM     15  C   UNL     1      -5.912  11.942  19.228  0.00  0.00    +0.000 C 
ATOM     16  C   UNL     1      -6.996  10.882  19.060  0.00  0.00    +0.000 C 
ENDBRANCH  13  15
ENDBRANCH   7  13
ENDBRANCH   1  11
BRANCH   3  17
ATOM     17  N   UNL     1       2.041   8.316  19.036  0.00  0.00    +0.000 N 
ATOM     18  C   UNL     1       2.166   7.154  19.775  0.00  0.00    +0.000 C 
ATOM     19  O   UNL     1       1.524   6.837  20.773  0.00  0.00    +0.000 OA
ATOM     20  H   UNL     1       2.667   8.399  18.241  0.00  0.00    +0.000 HD
BRANCH  18  21
ATOM     21  C   UNL     1       3.224   6.206  19.201  0.00  0.00    +0.000 C 
ATOM     22  C   UNL     1       2.854   4.781  19.649  0.00  0.00    +0.000 C 
ATOM     23  N   UNL     1       3.810   3.792  19.056  0.00  0.00    +0.000 N 
ATOM     24  C   UNL     1       3.887   3.939  17.576  0.00  0.00    +0.000 C 
ATOM     25  C   UNL     1       4.269   5.385  17.241  0.00  0.00    +0.000 C 
ATOM     26  O   UNL     1       3.297   6.310  17.762  0.00  0.00    +0.000 OA
BRANCH  23  27
ATOM     27  C   UNL     1       4.395   2.806  19.748  0.00  0.00    +0.000 C 
ATOM     28  N   UNL     1       4.889   1.941  20.336  0.00  0.00    +0.000 NA
ENDBRANCH  23  27
ENDBRANCH  18  21
ENDBRANCH   3  17
TORSDOF 6
ENDMDL
MODEL 5
REMARK VINA RESULT:      -7.2      4.142      6.237
REMARK  Name = 
REMARK  8 active torsions:
REMARK  status: ('A' for Active; 'I' for Inactive)
REMARK    1  A    between atoms: C_1  and  C_2
REMARK    2  A    between atoms: C_2  and  C_3
REMARK    3  A    between atoms: C_2  and  O_4
REMARK    4  A    between atoms: O_4  and  C_5
REMARK    5  A    between atoms: C_9  and  C_10
REMARK    6  A    between atoms: C_12  and  N_13
REMARK    7  A    between atoms: C_14  and  C_16
REMARK    8  A    between atoms: N_18  and  C_19
REMARK                            x       y       z     vdW  Elec       q    Type
REMARK                         _______ _______ _______ _____ _____    ______ ____
ROOT
ATOM      1  C   UNL     1      -0.690  10.438  18.264  0.00  0.00    +0.000 A 
ATOM      2  C   UNL     1       0.152   9.428  17.826  0.00  0.00    +0.000 A 
ATOM      3  C   UNL     1       1.303   9.211  18.562  0.00  0.00    +0.000 A 
ATOM      4  N   UNL     1       1.613   9.949  19.632  0.00  0.00    +0.000 NA
ATOM      5  C   UNL     1       0.762  10.918  19.966  0.00  0.00    +0.000 A 
ATOM      6  N   UNL     1      -0.378  11.203  19.330  0.00  0.00    +0.000 NA
ENDROOT
BRANCH   1  11
ATOM      7  C   UNL     1      -4.268  11.652  17.851  0.00  0.00    +0.000 A 
ATOM      8  C   UNL     1      -4.569  11.204  16.568  0.00  0.00    +0.000 A 
ATOM      9  C   UNL     1      -3.599  10.555  15.806  0.00  0.00    +0.000 A 
ATOM     10  C   UNL     1      -2.327  10.330  16.339  0.00  0.00    +0.000 A 
ATOM     11  C   UNL     1      -2.000  10.743  17.644  0.00  0.00    +0.000 A 
ATOM     12  C   UNL     1      -3.002  11.406  18.386  0.00  0.00    +0.000 A 
BRANCH   7  13
ATOM     13  O   UNL     1      -5.297  12.233  18.536  0.00  0.00    +0.000 OA
BRANCH  13  15
ATOM     14  C   UNL     1      -6.993  10.787  19.363  0.00  0.00    +0.000 C 
ATOM     15  C   UNL     1      -6.621  11.761  18.249  0.00  0.00    +0.000 C 
ATOM     16  C   UNL     1      -7.580  12.947  18.241  0.00  0.00    +0.000 C 
ENDBRANCH  13  15
ENDBRANCH   7  13
ENDBRANCH   1  11
BRANCH   3  17
ATOM     17  N   UNL     1       2.144   8.160  18.180  0.00  0.00    +0.000 N 
ATOM     18  C   UNL     1       2.398   7.031  18.935  0.00  0.00    +0.000 C 
ATOM     19  O   UNL     1       1.993   6.789  20.070  0.00  0.00    +0.000 OA
ATOM     20  H   UNL     1       2.572   8.178  17.260  0.00  0.00    +0.000 HD
BRANCH  18  21
ATOM     21  C   UNL     1       3.264   6.010  18.189  0.00  0.00    +0.000 C 
ATOM     22  C   UNL     1       4.460   5.673  19.096  0.00  0.00    +0.000 C 
ATOM     23  N   UNL     1       5.310   4.619  18.455  0.00  0.00    +0.000 N 
ATOM     24  C   UNL     1       4.500   3.425  18.087  0.00  0.00    +0.000 C 
ATOM     25  C   UNL     1       3.347   3.869  17.180  0.00  0.00    +0.000 C 
ATOM     26  O   UNL     1       2.506   4.829  17.846  0.00  0.00    +0.000 OA
BRANCH  23  27
ATOM     27  C   UNL     1       6.645   4.681  18.370  0.00  0.00    +0.000 C 
ATOM     28  N   UNL     1       7.799   4.716  18.302  0.00  0.00    +0.000 NA
ENDBRANCH  23  27
ENDBRANCH  18  21
ENDBRANCH   3  17
TORSDOF 6
ENDMDL
MODEL 6
REMARK VINA RESULT:      -7.2      2.992      9.377
REMARK  Name = 
REMARK  8 active torsions:
REMARK  status: ('A' for Active; 'I' for Inactive)
REMARK    1  A    between atoms: C_1  and  C_2
REMARK    2  A    between atoms: C_2  and  C_3
REMARK    3  A    between atoms: C_2  and  O_4
REMARK    4  A    between atoms: O_4  and  C_5
REMARK    5  A    between atoms: C_9  and  C_10
REMARK    6  A    between atoms: C_12  and  N_13
REMARK    7  A    between atoms: C_14  and  C_16
REMARK    8  A    between atoms: N_18  and  C_19
REMARK                            x       y       z     vdW  Elec       q    Type
REMARK                         _______ _______ _______ _____ _____    ______ ____
ROOT
ATOM      1  C   UNL     1       3.162   5.088  18.701  0.00  0.00    +0.000 A 
ATOM      2  C   UNL     1       2.811   6.248  19.373  0.00  0.00    +0.000 A 
ATOM      3  C   UNL     1       1.804   6.144  20.316  0.00  0.00    +0.000 A 
ATOM      4  N   UNL     1       1.174   4.992  20.561  0.00  0.00    +0.000 NA
ATOM      5  C   UNL     1       1.556   3.931  19.849  0.00  0.00    +0.000 A 
ATOM      6  N   UNL     1       2.520   3.923  18.925  0.00  0.00    +0.000 NA
ENDROOT
BRANCH   1  11
ATOM      7  C   UNL     1       6.333   5.960  16.798  0.00  0.00    +0.000 A 
ATOM      8  C   UNL     1       6.331   4.995  15.794  0.00  0.00    +0.000 A 
ATOM      9  C   UNL     1       5.335   4.022  15.758  0.00  0.00    +0.000 A 
ATOM     10  C   UNL     1       4.319   4.027  16.718  0.00  0.00    +0.000 A 
ATOM     11  C   UNL     1       4.275   5.007  17.727  0.00  0.00    +0.000 A 
ATOM     12  C   UNL     1       5.304   5.972  17.741  0.00  0.00    +0.000 A 
BRANCH   7  13
ATOM     13  O   UNL     1       7.323   6.898  16.720  0.00  0.00    +0.000 OA
BRANCH  13  15
ATOM     14  C   UNL     1       8.349   6.932  18.865  0.00  0.00    +0.000 C 
ATOM     15  C   UNL     1       7.519   7.736  17.869  0.00  0.00    +0.000 C 
ATOM     16  C   UNL     1       8.273   8.993  17.444  0.00  0.00    +0.000 C 
ENDBRANCH  13  15
ENDBRANCH   7  13
ENDBRANCH   1  11
BRANCH   3  17
ATOM     17  N   UNL     1       1.467   7.286  21.052  0.00  0.00    +0.000 N 
ATOM     18  C   UNL     1       1.299   8.552  20.522  0.00  0.00    +0.000 C 
ATOM     19  O   UNL     1       1.475   8.899  19.357  0.00  0.00    +0.000 OA
ATOM     20  H   UNL     1       1.275   7.197  22.044  0.00  0.00    +0.000 HD
BRANCH  18  21
ATOM     21  C   UNL     1       0.814   9.563  21.567  0.00  0.00    +0.000 C 
ATOM     22  C   UNL     1       0.369  10.826  20.809  0.00  0.00    +0.000 C 
ATOM     23  N   UNL     1      -0.190  11.831  21.770  0.00  0.00    +0.000 N 
ATOM     24  C   UNL     1      -1.272  11.235  22.602  0.00  0.00    +0.000 C 
ATOM     25  C   UNL     1      -0.724   9.995  23.316  0.00  0.00    +0.000 C 
ATOM     26  O   UNL     1      -0.258   9.018  22.368  0.00  0.00    +0.000 OA
BRANCH  23  27
ATOM     27  C   UNL     1       0.134  13.131  21.769  0.00  0.00    +0.000 C 
ATOM     28  N   UNL     1       0.427  14.249  21.782  0.00  0.00    +0.000 NA
ENDBRANCH  23  27
ENDBRANCH  18  21
ENDBRANCH   3  17
TORSDOF 6
ENDMDL
MODEL 7
REMARK VINA RESULT:      -7.2      2.894      9.968
REMARK  Name = 
REMARK  8 active torsions:
REMARK  status: ('A' for Active; 'I' for Inactive)
REMARK    1  A    between atoms: C_1  and  C_2
REMARK    2  A    between atoms: C_2  and  C_3
REMARK    3  A    between atoms: C_2  and  O_4
REMARK    4  A    between atoms: O_4  and  C_5
REMARK    5  A    between atoms: C_9  and  C_10
REMARK    6  A    between atoms: C_12  and  N_13
REMARK    7  A    between atoms: C_14  and  C_16
REMARK    8  A    between atoms: N_18  and  C_19
REMARK                            x       y       z     vdW  Elec       q    Type
REMARK                         _______ _______ _______ _____ _____    ______ ____
ROOT
ATOM      1  C   UNL     1       3.784   5.763  19.192  0.00  0.00    +0.000 A 
ATOM      2  C   UNL     1       3.006   6.908  19.259  0.00  0.00    +0.000 A 
ATOM      3  C   UNL     1       1.920   6.876  20.115  0.00  0.00    +0.000 A 
ATOM      4  N   UNL     1       1.610   5.791  20.831  0.00  0.00    +0.000 NA
ATOM      5  C   UNL     1       2.395   4.725  20.684  0.00  0.00    +0.000 A 
ATOM      6  N   UNL     1       3.470   4.655  19.895  0.00  0.00    +0.000 NA
ENDROOT
BRANCH   1  11
ATOM      7  C   UNL     1       6.130   5.648  16.205  0.00  0.00    +0.000 A 
ATOM      8  C   UNL     1       7.339   5.315  16.811  0.00  0.00    +0.000 A 
ATOM      9  C   UNL     1       7.415   5.179  18.195  0.00  0.00    +0.000 A 
ATOM     10  C   UNL     1       6.271   5.353  18.979  0.00  0.00    +0.000 A 
ATOM     11  C   UNL     1       5.028   5.660  18.395  0.00  0.00    +0.000 A 
ATOM     12  C   UNL     1       4.986   5.801  16.990  0.00  0.00    +0.000 A 
BRANCH   7  13
ATOM     13  O   UNL     1       6.145   5.711  14.840  0.00  0.00    +0.000 OA
BRANCH  13  15
ATOM     14  C   UNL     1       5.887   3.769  13.494  0.00  0.00    +0.000 C 
ATOM     15  C   UNL     1       6.898   4.705  14.149  0.00  0.00    +0.000 C 
ATOM     16  C   UNL     1       7.764   5.375  13.086  0.00  0.00    +0.000 C 
ENDBRANCH  13  15
ENDBRANCH   7  13
ENDBRANCH   1  11
BRANCH   3  17
ATOM     17  N   UNL     1       1.149   8.036  20.249  0.00  0.00    +0.000 N 
ATOM     18  C   UNL     1       1.179   8.889  21.336  0.00  0.00    +0.000 C 
ATOM     19  O   UNL     1       1.821   8.748  22.374  0.00  0.00    +0.000 OA
ATOM     20  H   UNL     1       0.552   8.325  19.481  0.00  0.00    +0.000 HD
BRANCH  18  21
ATOM     21  C   UNL     1       0.310  10.134  21.127  0.00  0.00    +0.000 C 
ATOM     22  C   UNL     1      -0.272  10.522  22.498  0.00  0.00    +0.000 C 
ATOM     23  N   UNL     1      -1.074  11.782  22.377  0.00  0.00    +0.000 N 
ATOM     24  C   UNL     1      -0.275  12.871  21.751  0.00  0.00    +0.000 C 
ATOM     25  C   UNL     1       0.248  12.386  20.394  0.00  0.00    +0.000 C 
ATOM     26  O   UNL     1       1.072  11.216  20.547  0.00  0.00    +0.000 OA
BRANCH  23  27
ATOM     27  C   UNL     1      -2.294  11.948  22.906  0.00  0.00    +0.000 C 
ATOM     28  N   UNL     1      -3.351  12.103  23.347  0.00  0.00    +0.000 NA
ENDBRANCH  23  27
ENDBRANCH  18  21
ENDBRANCH   3  17
TORSDOF 6
ENDMDL
MODEL 8
REMARK VINA RESULT:      -7.2      2.982      9.519
REMARK  Name = 
REMARK  8 active torsions:
REMARK  status: ('A' for Active; 'I' for Inactive)
REMARK    1  A    between atoms: C_1  and  C_2
REMARK    2  A    between atoms: C_2  and  C_3
REMARK    3  A    between atoms: C_2  and  O_4
REMARK    4  A    between atoms: O_4  and  C_5
REMARK    5  A    between atoms: C_9  and  C_10
REMARK    6  A    between atoms: C_12  and  N_13
REMARK    7  A    between atoms: C_14  and  C_16
REMARK    8  A    between atoms: N_18  and  C_19
REMARK                            x       y       z     vdW  Elec       q    Type
REMARK                         _______ _______ _______ _____ _____    ______ ____
ROOT
ATOM      1  C   UNL     1       3.919   5.575  19.214  0.00  0.00    +0.000 A 
ATOM      2  C   UNL     1       3.265   6.794  19.131  0.00  0.00    +0.000 A 
ATOM      3  C   UNL     1       2.130   6.948  19.907  0.00  0.00    +0.000 A 
ATOM      4  N   UNL     1       1.661   5.967  20.684  0.00  0.00    +0.000 NA
ATOM      5  C   UNL     1       2.336   4.818  20.681  0.00  0.00    +0.000 A 
ATOM      6  N   UNL     1       3.445   4.571  19.979  0.00  0.00    +0.000 NA
ENDROOT
BRANCH   1  11
ATOM      7  C   UNL     1       6.365   4.338  16.581  0.00  0.00    +0.000 A 
ATOM      8  C   UNL     1       7.587   4.540  17.217  0.00  0.00    +0.000 A 
ATOM      9  C   UNL     1       7.631   5.128  18.479  0.00  0.00    +0.000 A 
ATOM     10  C   UNL     1       6.446   5.496  19.121  0.00  0.00    +0.000 A 
ATOM     11  C   UNL     1       5.193   5.277  18.519  0.00  0.00    +0.000 A 
ATOM     12  C   UNL     1       5.182   4.688  17.236  0.00  0.00    +0.000 A 
BRANCH   7  13
ATOM     13  O   UNL     1       6.420   3.711  15.368  0.00  0.00    +0.000 OA
BRANCH  13  15
ATOM     14  C   UNL     1       7.458   5.024  13.679  0.00  0.00    +0.000 C 
ATOM     15  C   UNL     1       6.126   4.505  14.210  0.00  0.00    +0.000 C 
ATOM     16  C   UNL     1       5.447   3.625  13.164  0.00  0.00    +0.000 C 
ENDBRANCH  13  15
ENDBRANCH   7  13
ENDBRANCH   1  11
BRANCH   3  17
ATOM     17  N   UNL     1       1.481   8.187  19.890  0.00  0.00    +0.000 N 
ATOM     18  C   UNL     1       1.291   9.000  20.992  0.00  0.00    +0.000 C 
ATOM     19  O   UNL     1       1.592   8.754  22.157  0.00  0.00    +0.000 OA
ATOM     20  H   UNL     1       1.162   8.567  19.005  0.00  0.00    +0.000 HD
BRANCH  18  21
ATOM     21  C   UNL     1       0.654  10.345  20.625  0.00  0.00    +0.000 C 
ATOM     22  C   UNL     1      -0.735  10.048  20.034  0.00  0.00    +0.000 C 
ATOM     23  N   UNL     1      -1.445  11.330  19.723  0.00  0.00    +0.000 N 
ATOM     24  C   UNL     1      -1.494  12.221  20.915  0.00  0.00    +0.000 C 
ATOM     25  C   UNL     1      -0.065  12.459  21.416  0.00  0.00    +0.000 C 
ATOM     26  O   UNL     1       0.569  11.217  21.774  0.00  0.00    +0.000 OA
BRANCH  23  27
ATOM     27  C   UNL     1      -2.086  11.572  18.572  0.00  0.00    +0.000 C 
ATOM     28  N   UNL     1      -2.644  11.762  17.577  0.00  0.00    +0.000 NA
ENDBRANCH  23  27
ENDBRANCH  18  21
ENDBRANCH   3  17
TORSDOF 6
ENDMDL
MODEL 9
REMARK VINA RESULT:      -7.2      2.766      9.582
REMARK  Name = 
REMARK  8 active torsions:
REMARK  status: ('A' for Active; 'I' for Inactive)
REMARK    1  A    between atoms: C_1  and  C_2
REMARK    2  A    between atoms: C_2  and  C_3
REMARK    3  A    between atoms: C_2  and  O_4
REMARK    4  A    between atoms: O_4  and  C_5
REMARK    5  A    between atoms: C_9  and  C_10
REMARK    6  A    between atoms: C_12  and  N_13
REMARK    7  A    between atoms: C_14  and  C_16
REMARK    8  A    between atoms: N_18  and  C_19
REMARK                            x       y       z     vdW  Elec       q    Type
REMARK                         _______ _______ _______ _____ _____    ______ ____
ROOT
ATOM      1  C   UNL     1       3.928   5.689  18.858  0.00  0.00    +0.000 A 
ATOM      2  C   UNL     1       3.280   6.913  18.926  0.00  0.00    +0.000 A 
ATOM      3  C   UNL     1       2.214   7.007  19.800  0.00  0.00    +0.000 A 
ATOM      4  N   UNL     1       1.799   5.970  20.533  0.00  0.00    +0.000 NA
ATOM      5  C   UNL     1       2.461   4.823  20.385  0.00  0.00    +0.000 A 
ATOM      6  N   UNL     1       3.507   4.629  19.578  0.00  0.00    +0.000 NA
ENDROOT
BRANCH   1  11
ATOM      7  C   UNL     1       6.213   5.372  15.838  0.00  0.00    +0.000 A 
ATOM      8  C   UNL     1       7.364   4.839  16.413  0.00  0.00    +0.000 A 
ATOM      9  C   UNL     1       7.428   4.629  17.788  0.00  0.00    +0.000 A 
ATOM     10  C   UNL     1       6.327   4.932  18.594  0.00  0.00    +0.000 A 
ATOM     11  C   UNL     1       5.138   5.443  18.040  0.00  0.00    +0.000 A 
ATOM     12  C   UNL     1       5.109   5.653  16.645  0.00  0.00    +0.000 A 
BRANCH   7  13
ATOM     13  O   UNL     1       6.228   5.496  14.478  0.00  0.00    +0.000 OA
BRANCH  13  15
ATOM     14  C   UNL     1       6.100   3.588  13.065  0.00  0.00    +0.000 C 
ATOM     15  C   UNL     1       7.047   4.571  13.748  0.00  0.00    +0.000 C 
ATOM     16  C   UNL     1       7.854   5.338  12.705  0.00  0.00    +0.000 C 
ENDBRANCH  13  15
ENDBRANCH   7  13
ENDBRANCH   1  11
BRANCH   3  17
ATOM     17  N   UNL     1       1.577   8.246  19.934  0.00  0.00    +0.000 N 
ATOM     18  C   UNL     1       1.376   9.151  18.909  0.00  0.00    +0.000 C 
ATOM     19  O   UNL     1       1.767   9.058  17.748  0.00  0.00    +0.000 OA
ATOM     20  H   UNL     1       1.176   8.503  20.830  0.00  0.00    +0.000 HD
BRANCH  18  21
ATOM     21  C   UNL     1       0.541  10.359  19.350  0.00  0.00    +0.000 C 
ATOM     22  C   UNL     1       0.600  10.421  20.886  0.00  0.00    +0.000 C 
ATOM     23  N   UNL     1      -0.136  11.629  21.380  0.00  0.00    +0.000 N 
ATOM     24  C   UNL     1       0.365  12.869  20.725  0.00  0.00    +0.000 C 
ATOM     25  C   UNL     1       0.255  12.706  19.205  0.00  0.00    +0.000 C 
ATOM     26  O   UNL     1       1.027  11.580  18.749  0.00  0.00    +0.000 OA
BRANCH  23  27
ATOM     27  C   UNL     1      -1.015  11.610  22.390  0.00  0.00    +0.000 C 
ATOM     28  N   UNL     1      -1.789  11.597  23.249  0.00  0.00    +0.000 NA
ENDBRANCH  23  27
ENDBRANCH  18  21
ENDBRANCH   3  17
TORSDOF 6
ENDMDL
