MODEL 1
REMARK VINA RESULT:      -7.4      0.000      0.000
REMARK  Name = 
REMARK  2 active torsions:
REMARK  status: ('A' for Active; 'I' for Inactive)
REMARK    1  A    between atoms: O_1  and  C_2
REMARK    2  A    between atoms: C_13  and  N_14
REMARK                            x       y       z     vdW  Elec       q    Type
REMARK                         _______ _______ _______ _____ _____    ______ ____
ROOT
ATOM      1  C   UNL     1       2.762   3.989  17.661  0.00  0.00    +0.000 C 
ATOM      2  C   UNL     1       2.780   3.415  19.070  0.00  0.00    +0.000 A 
ATOM      3  C   UNL     1       3.415   2.545  19.930  0.00  0.00    +0.000 A 
ATOM      4  C   UNL     1       2.938   2.463  21.242  0.00  0.00    +0.000 A 
ATOM      5  C   UNL     1       1.844   3.239  21.662  0.00  0.00    +0.000 A 
ATOM      6  C   UNL     1       1.192   4.087  20.769  0.00  0.00    +0.000 A 
ATOM      7  C   UNL     1       1.688   4.140  19.485  0.00  0.00    +0.000 A 
ATOM      8  C   UNL     1       1.458   4.762  18.138  0.00  0.00    +0.000 C 
ATOM      9  C   UNL     1       1.462   6.287  18.122  0.00  0.00    +0.000 C 
ATOM     10  C   UNL     1       2.793   6.929  18.532  0.00  0.00    +0.000 C 
ATOM     11  C   UNL     1       4.044   6.055  18.373  0.00  0.00    +0.000 C 
ATOM     12  C   UNL     1       3.855   5.027  17.242  0.00  0.00    +0.000 C 
ENDROOT
BRANCH  12  13
ATOM     13  N   UNL     1       5.161   4.537  16.735  0.00  0.00    +0.000 NA
ATOM     14  C   UNL     1       6.298   4.950  17.577  0.00  0.00    +0.000 C 
ATOM     15  C   UNL     1       7.648   4.430  17.064  0.00  0.00    +0.000 C 
ATOM     16  O   UNL     1       7.847   4.789  15.692  0.00  0.00    +0.000 OA
ATOM     17  C   UNL     1       6.812   4.206  14.891  0.00  0.00    +0.000 C 
ATOM     18  C   UNL     1       5.426   4.731  15.308  0.00  0.00    +0.000 C 
ENDBRANCH  12  13
BRANCH   1  19
ATOM     19  O   UNL     1       2.519   3.008  16.627  0.00  0.00    +0.000 OA
ATOM     20  H   UNL     1       3.410   2.731  16.354  0.00  0.00    +0.000 HD
ENDBRANCH   1  19
TORSDOF 2
ENDMDL
MODEL 2
REMARK VINA RESULT:      -7.3      1.652      1.780
REMARK  Name = 
REMARK  2 active torsions:
REMARK  status: ('A' for Active; 'I' for Inactive)
REMARK    1  A    between atoms: O_1  and  C_2
REMARK    2  A    between atoms: C_13  and  N_14
REMARK                            x       y       z     vdW  Elec       q    Type
REMARK                         _______ _______ _______ _____ _____    ______ ____
ROOT
ATOM      1  C   UNL     1       3.578   3.670  17.976  0.00  0.00    +0.000 C 
ATOM      2  C   UNL     1       3.247   3.210  19.387  0.00  0.00    +0.000 A 
ATOM      3  C   UNL     1       3.768   2.806  20.597  0.00  0.00    +0.000 A 
ATOM      4  C   UNL     1       2.868   2.510  21.627  0.00  0.00    +0.000 A 
ATOM      5  C   UNL     1       1.482   2.618  21.426  0.00  0.00    +0.000 A 
ATOM      6  C   UNL     1       0.972   2.993  20.185  0.00  0.00    +0.000 A 
ATOM      7  C   UNL     1       1.888   3.274  19.195  0.00  0.00    +0.000 A 
ATOM      8  C   UNL     1       2.005   3.666  17.750  0.00  0.00    +0.000 C 
ATOM      9  C   UNL     1       1.314   4.975  17.379  0.00  0.00    +0.000 C 
ATOM     10  C   UNL     1       1.874   6.217  18.081  0.00  0.00    +0.000 C 
ATOM     11  C   UNL     1       3.316   6.112  18.596  0.00  0.00    +0.000 C 
ATOM     12  C   UNL     1       4.130   5.116  17.749  0.00  0.00    +0.000 C 
ENDROOT
BRANCH  12  13
ATOM     13  N   UNL     1       5.588   5.363  17.881  0.00  0.00    +0.000 NA
ATOM     14  C   UNL     1       6.051   5.348  19.281  0.00  0.00    +0.000 C 
ATOM     15  C   UNL     1       7.562   5.586  19.418  0.00  0.00    +0.000 C 
ATOM     16  O   UNL     1       7.955   6.786  18.741  0.00  0.00    +0.000 OA
ATOM     17  C   UNL     1       7.647   6.670  17.346  0.00  0.00    +0.000 C 
ATOM     18  C   UNL     1       6.134   6.491  17.125  0.00  0.00    +0.000 C 
ENDBRANCH  12  13
BRANCH   1  19
ATOM     19  O   UNL     1       4.287   2.687  17.185  0.00  0.00    +0.000 OA
ATOM     20  H   UNL     1       5.211   2.991  17.210  0.00  0.00    +0.000 HD
ENDBRANCH   1  19
TORSDOF 2
ENDMDL
MODEL 3
REMARK VINA RESULT:      -7.1      2.326      5.161
REMARK  Name = 
REMARK  2 active torsions:
REMARK  status: ('A' for Active; 'I' for Inactive)
REMARK    1  A    between atoms: O_1  and  C_2
REMARK    2  A    between atoms: C_13  and  N_14
REMARK                            x       y       z     vdW  Elec       q    Type
REMARK                         _______ _______ _______ _____ _____    ______ ____
ROOT
ATOM      1  C   UNL     1       4.276   5.725  17.527  0.00  0.00    +0.000 C 
ATOM      2  C   UNL     1       5.576   5.786  18.314  0.00  0.00    +0.000 A 
ATOM      3  C   UNL     1       6.233   5.364  19.450  0.00  0.00    +0.000 A 
ATOM      4  C   UNL     1       7.559   5.775  19.625  0.00  0.00    +0.000 A 
ATOM      5  C   UNL     1       8.193   6.593  18.675  0.00  0.00    +0.000 A 
ATOM      6  C   UNL     1       7.501   7.039  17.551  0.00  0.00    +0.000 A 
ATOM      7  C   UNL     1       6.197   6.618  17.413  0.00  0.00    +0.000 A 
ATOM      8  C   UNL     1       4.985   6.744  16.535  0.00  0.00    +0.000 C 
ATOM      9  C   UNL     1       5.195   6.329  15.082  0.00  0.00    +0.000 C 
ATOM     10  C   UNL     1       5.564   4.854  14.884  0.00  0.00    +0.000 C 
ATOM     11  C   UNL     1       5.157   3.896  16.011  0.00  0.00    +0.000 C 
ATOM     12  C   UNL     1       3.911   4.417  16.750  0.00  0.00    +0.000 C 
ENDROOT
BRANCH  12  13
ATOM     13  N   UNL     1       3.213   3.321  17.468  0.00  0.00    +0.000 NA
ATOM     14  C   UNL     1       1.823   3.659  17.826  0.00  0.00    +0.000 C 
ATOM     15  C   UNL     1       1.094   2.520  18.553  0.00  0.00    +0.000 C 
ATOM     16  O   UNL     1       1.842   2.078  19.692  0.00  0.00    +0.000 OA
ATOM     17  C   UNL     1       3.118   1.586  19.262  0.00  0.00    +0.000 C 
ATOM     18  C   UNL     1       3.937   2.695  18.576  0.00  0.00    +0.000 C 
ENDBRANCH  12  13
BRANCH   1  19
ATOM     19  O   UNL     1       3.137   6.280  18.224  0.00  0.00    +0.000 OA
ATOM     20  H   UNL     1       3.528   6.708  19.005  0.00  0.00    +0.000 HD
ENDBRANCH   1  19
TORSDOF 2
ENDMDL
MODEL 4
REMARK VINA RESULT:      -7.1      1.746      2.991
REMARK  Name = 
REMARK  2 active torsions:
REMARK  status: ('A' for Active; 'I' for Inactive)
REMARK    1  A    between atoms: O_1  and  C_2
REMARK    2  A    between atoms: C_13  and  N_14
REMARK                            x       y       z     vdW  Elec       q    Type
REMARK                         _______ _______ _______ _____ _____    ______ ____
ROOT
ATOM      1  C   UNL     1       4.442   4.025  18.782  0.00  0.00    +0.000 C 
ATOM      2  C   UNL     1       3.516   5.092  19.344  0.00  0.00    +0.000 A 
ATOM      3  C   UNL     1       3.172   6.426  19.308  0.00  0.00    +0.000 A 
ATOM      4  C   UNL     1       2.111   6.847  20.118  0.00  0.00    +0.000 A 
ATOM      5  C   UNL     1       1.428   5.937  20.942  0.00  0.00    +0.000 A 
ATOM      6  C   UNL     1       1.813   4.598  20.992  0.00  0.00    +0.000 A 
ATOM      7  C   UNL     1       2.862   4.222  20.183  0.00  0.00    +0.000 A 
ATOM      8  C   UNL     1       3.725   3.051  19.811  0.00  0.00    +0.000 C 
ATOM      9  C   UNL     1       2.972   1.839  19.272  0.00  0.00    +0.000 C 
ATOM     10  C   UNL     1       2.212   2.087  17.963  0.00  0.00    +0.000 C 
ATOM     11  C   UNL     1       2.710   3.255  17.102  0.00  0.00    +0.000 C 
ATOM     12  C   UNL     1       4.214   3.500  17.326  0.00  0.00    +0.000 C 
ENDROOT
BRANCH  12  13
ATOM     13  N   UNL     1       4.815   4.238  16.187  0.00  0.00    +0.000 NA
ATOM     14  C   UNL     1       6.039   3.601  15.669  0.00  0.00    +0.000 C 
ATOM     15  C   UNL     1       6.653   4.353  14.479  0.00  0.00    +0.000 C 
ATOM     16  O   UNL     1       6.869   5.732  14.803  0.00  0.00    +0.000 OA
ATOM     17  C   UNL     1       5.616   6.350  15.122  0.00  0.00    +0.000 C 
ATOM     18  C   UNL     1       4.967   5.685  16.350  0.00  0.00    +0.000 C 
ENDBRANCH  12  13
BRANCH   1  19
ATOM     19  O   UNL     1       5.843   4.252  19.064  0.00  0.00    +0.000 OA
ATOM     20  H   UNL     1       6.089   4.975  18.463  0.00  0.00    +0.000 HD
ENDBRANCH   1  19
TORSDOF 2
ENDMDL
MODEL 5
REMARK VINA RESULT:      -7.0      1.956      5.681
REMARK  Name = 
REMARK  2 active torsions:
REMARK  status: ('A' for Active; 'I' for Inactive)
REMARK    1  A    between atoms: O_1  and  C_2
REMARK    2  A    between atoms: C_13  and  N_14
REMARK                            x       y       z     vdW  Elec       q    Type
REMARK                         _______ _______ _______ _____ _____    ______ ____
ROOT
ATOM      1  C   UNL     1       5.775   4.666  17.683  0.00  0.00    +0.000 C 
ATOM      2  C   UNL     1       5.800   4.350  16.195  0.00  0.00    +0.000 A 
ATOM      3  C   UNL     1       5.129   3.744  15.155  0.00  0.00    +0.000 A 
ATOM      4  C   UNL     1       5.702   3.818  13.881  0.00  0.00    +0.000 A 
ATOM      5  C   UNL     1       6.922   4.484  13.675  0.00  0.00    +0.000 A 
ATOM      6  C   UNL     1       7.604   5.059  14.746  0.00  0.00    +0.000 A 
ATOM      7  C   UNL     1       7.011   4.965  15.985  0.00  0.00    +0.000 A 
ATOM      8  C   UNL     1       7.207   5.306  17.434  0.00  0.00    +0.000 C 
ATOM      9  C   UNL     1       7.409   6.790  17.726  0.00  0.00    +0.000 C 
ATOM     10  C   UNL     1       6.217   7.682  17.360  0.00  0.00    +0.000 C 
ATOM     11  C   UNL     1       4.850   6.990  17.282  0.00  0.00    +0.000 C 
ATOM     12  C   UNL     1       4.801   5.767  18.217  0.00  0.00    +0.000 C 
ENDROOT
BRANCH  12  13
ATOM     13  N   UNL     1       3.401   5.397  18.547  0.00  0.00    +0.000 NA
ATOM     14  C   UNL     1       3.193   5.157  19.987  0.00  0.00    +0.000 C 
ATOM     15  C   UNL     1       1.742   4.791  20.333  0.00  0.00    +0.000 C 
ATOM     16  O   UNL     1       1.290   3.687  19.540  0.00  0.00    +0.000 OA
ATOM     17  C   UNL     1       1.340   4.044  18.152  0.00  0.00    +0.000 C 
ATOM     18  C   UNL     1       2.781   4.365  17.715  0.00  0.00    +0.000 C 
ENDBRANCH  12  13
BRANCH   1  19
ATOM     19  O   UNL     1       5.793   3.496  18.535  0.00  0.00    +0.000 OA
ATOM     20  H   UNL     1       5.508   2.775  17.947  0.00  0.00    +0.000 HD
ENDBRANCH   1  19
TORSDOF 2
ENDMDL
MODEL 6
REMARK VINA RESULT:      -7.0      1.287      1.857
REMARK  Name = 
REMARK  2 active torsions:
REMARK  status: ('A' for Active; 'I' for Inactive)
REMARK    1  A    between atoms: O_1  and  C_2
REMARK    2  A    between atoms: C_13  and  N_14
REMARK                            x       y       z     vdW  Elec       q    Type
REMARK                         _______ _______ _______ _____ _____    ______ ____
ROOT
ATOM      1  C   UNL     1       3.443   3.545  18.044  0.00  0.00    +0.000 C 
ATOM      2  C   UNL     1       3.085   3.163  19.473  0.00  0.00    +0.000 A 
ATOM      3  C   UNL     1       3.582   2.824  20.712  0.00  0.00    +0.000 A 
ATOM      4  C   UNL     1       2.663   2.588  21.739  0.00  0.00    +0.000 A 
ATOM      5  C   UNL     1       1.281   2.690  21.508  0.00  0.00    +0.000 A 
ATOM      6  C   UNL     1       0.796   2.999  20.239  0.00  0.00    +0.000 A 
ATOM      7  C   UNL     1       1.730   3.222  19.252  0.00  0.00    +0.000 A 
ATOM      8  C   UNL     1       1.875   3.535  17.791  0.00  0.00    +0.000 C 
ATOM      9  C   UNL     1       1.197   4.824  17.337  0.00  0.00    +0.000 C 
ATOM     10  C   UNL     1       1.751   6.101  17.980  0.00  0.00    +0.000 C 
ATOM     11  C   UNL     1       3.182   6.018  18.527  0.00  0.00    +0.000 C 
ATOM     12  C   UNL     1       4.006   4.974  17.750  0.00  0.00    +0.000 C 
ENDROOT
BRANCH  12  13
ATOM     13  N   UNL     1       5.463   5.222  17.894  0.00  0.00    +0.000 NA
ATOM     14  C   UNL     1       6.284   4.341  17.044  0.00  0.00    +0.000 C 
ATOM     15  C   UNL     1       7.791   4.608  17.179  0.00  0.00    +0.000 C 
ATOM     16  O   UNL     1       8.200   4.553  18.551  0.00  0.00    +0.000 OA
ATOM     17  C   UNL     1       7.501   5.557  19.297  0.00  0.00    +0.000 C 
ATOM     18  C   UNL     1       5.981   5.319  19.260  0.00  0.00    +0.000 C 
ENDBRANCH  12  13
BRANCH   1  19
ATOM     19  O   UNL     1       4.162   2.518  17.321  0.00  0.00    +0.000 OA
ATOM     20  H   UNL     1       4.989   2.955  17.056  0.00  0.00    +0.000 HD
ENDBRANCH   1  19
TORSDOF 2
ENDMDL
MODEL 7
REMARK VINA RESULT:      -6.8      1.840      2.952
REMARK  Name = 
REMARK  2 active torsions:
REMARK  status: ('A' for Active; 'I' for Inactive)
REMARK    1  A    between atoms: O_1  and  C_2
REMARK    2  A    between atoms: C_13  and  N_14
REMARK                            x       y       z     vdW  Elec       q    Type
REMARK                         _______ _______ _______ _____ _____    ______ ____
ROOT
ATOM      1  C   UNL     1       4.475   3.925  19.124  0.00  0.00    +0.000 C 
ATOM      2  C   UNL     1       3.490   4.995  19.570  0.00  0.00    +0.000 A 
ATOM      3  C   UNL     1       3.219   6.346  19.590  0.00  0.00    +0.000 A 
ATOM      4  C   UNL     1       2.022   6.761  20.184  0.00  0.00    +0.000 A 
ATOM      5  C   UNL     1       1.133   5.828  20.743  0.00  0.00    +0.000 A 
ATOM      6  C   UNL     1       1.441   4.468  20.745  0.00  0.00    +0.000 A 
ATOM      7  C   UNL     1       2.629   4.098  20.155  0.00  0.00    +0.000 A 
ATOM      8  C   UNL     1       3.504   2.912  19.869  0.00  0.00    +0.000 C 
ATOM      9  C   UNL     1       2.842   1.801  19.060  0.00  0.00    +0.000 C 
ATOM     10  C   UNL     1       2.407   2.208  17.647  0.00  0.00    +0.000 C 
ATOM     11  C   UNL     1       3.135   3.413  17.036  0.00  0.00    +0.000 C 
ATOM     12  C   UNL     1       4.558   3.543  17.609  0.00  0.00    +0.000 C 
ENDROOT
BRANCH  12  13
ATOM     13  N   UNL     1       5.432   4.338  16.709  0.00  0.00    +0.000 NA
ATOM     14  C   UNL     1       4.852   5.645  16.352  0.00  0.00    +0.000 C 
ATOM     15  C   UNL     1       5.761   6.477  15.435  0.00  0.00    +0.000 C 
ATOM     16  O   UNL     1       6.139   5.728  14.274  0.00  0.00    +0.000 OA
ATOM     17  C   UNL     1       6.862   4.557  14.675  0.00  0.00    +0.000 C 
ATOM     18  C   UNL     1       5.989   3.640  15.550  0.00  0.00    +0.000 C 
ENDBRANCH  12  13
BRANCH   1  19
ATOM     19  O   UNL     1       5.784   4.038  19.729  0.00  0.00    +0.000 OA
ATOM     20  H   UNL     1       6.322   4.469  19.043  0.00  0.00    +0.000 HD
ENDBRANCH   1  19
TORSDOF 2
ENDMDL
MODEL 8
REMARK VINA RESULT:      -6.7      2.109      5.478
REMARK  Name = 
REMARK  2 active torsions:
REMARK  status: ('A' for Active; 'I' for Inactive)
REMARK    1  A    between atoms: O_1  and  C_2
REMARK    2  A    between atoms: C_13  and  N_14
REMARK                            x       y       z     vdW  Elec       q    Type
REMARK                         _______ _______ _______ _____ _____    ______ ____
ROOT
ATOM      1  C   UNL     1       4.745   5.600  18.563  0.00  0.00    +0.000 C 
ATOM      2  C   UNL     1       5.111   4.967  17.229  0.00  0.00    +0.000 A 
ATOM      3  C   UNL     1       5.377   3.785  16.573  0.00  0.00    +0.000 A 
ATOM      4  C   UNL     1       5.650   3.850  15.202  0.00  0.00    +0.000 A 
ATOM      5  C   UNL     1       5.656   5.081  14.525  0.00  0.00    +0.000 A 
ATOM      6  C   UNL     1       5.420   6.269  15.213  0.00  0.00    +0.000 A 
ATOM      7  C   UNL     1       5.158   6.167  16.561  0.00  0.00    +0.000 A 
ATOM      8  C   UNL     1       4.877   6.982  17.790  0.00  0.00    +0.000 C 
ATOM      9  C   UNL     1       3.654   7.890  17.697  0.00  0.00    +0.000 C 
ATOM     10  C   UNL     1       2.323   7.155  17.507  0.00  0.00    +0.000 C 
ATOM     11  C   UNL     1       2.285   5.691  17.967  0.00  0.00    +0.000 C 
ATOM     12  C   UNL     1       3.288   5.450  19.110  0.00  0.00    +0.000 C 
ENDROOT
BRANCH  12  13
ATOM     13  N   UNL     1       2.930   4.241  19.894  0.00  0.00    +0.000 NA
ATOM     14  C   UNL     1       2.183   3.243  19.106  0.00  0.00    +0.000 C 
ATOM     15  C   UNL     1       1.828   1.984  19.910  0.00  0.00    +0.000 C 
ATOM     16  O   UNL     1       1.142   2.326  21.121  0.00  0.00    +0.000 OA
ATOM     17  C   UNL     1       1.989   3.149  21.933  0.00  0.00    +0.000 C 
ATOM     18  C   UNL     1       2.339   4.464  21.214  0.00  0.00    +0.000 C 
ENDBRANCH  12  13
BRANCH   1  19
ATOM     19  O   UNL     1       5.738   5.410  19.599  0.00  0.00    +0.000 OA
ATOM     20  H   UNL     1       5.645   6.200  20.159  0.00  0.00    +0.000 HD
ENDBRANCH   1  19
TORSDOF 2
ENDMDL
MODEL 9
REMARK VINA RESULT:      -6.7      1.845      5.804
REMARK  Name = 
REMARK  2 active torsions:
REMARK  status: ('A' for Active; 'I' for Inactive)
REMARK    1  A    between atoms: O_1  and  C_2
REMARK    2  A    between atoms: C_13  and  N_14
REMARK                            x       y       z     vdW  Elec       q    Type
REMARK                         _______ _______ _______ _____ _____    ______ ____
ROOT
ATOM      1  C   UNL     1       6.085   4.739  17.636  0.00  0.00    +0.000 C 
ATOM      2  C   UNL     1       6.074   4.296  16.181  0.00  0.00    +0.000 A 
ATOM      3  C   UNL     1       5.572   3.385  15.278  0.00  0.00    +0.000 A 
ATOM      4  C   UNL     1       5.946   3.522  13.938  0.00  0.00    +0.000 A 
ATOM      5  C   UNL     1       6.809   4.553  13.531  0.00  0.00    +0.000 A 
ATOM      6  C   UNL     1       7.336   5.445  14.464  0.00  0.00    +0.000 A 
ATOM      7  C   UNL     1       6.948   5.277  15.775  0.00  0.00    +0.000 A 
ATOM      8  C   UNL     1       7.150   5.818  17.161  0.00  0.00    +0.000 C 
ATOM      9  C   UNL     1       6.821   7.298  17.331  0.00  0.00    +0.000 C 
ATOM     10  C   UNL     1       5.354   7.662  17.070  0.00  0.00    +0.000 C 
ATOM     11  C   UNL     1       4.337   6.523  17.218  0.00  0.00    +0.000 C 
ATOM     12  C   UNL     1       4.834   5.470  18.225  0.00  0.00    +0.000 C 
ENDROOT
BRANCH  12  13
ATOM     13  N   UNL     1       3.709   4.662  18.760  0.00  0.00    +0.000 NA
ATOM     14  C   UNL     1       2.671   4.382  17.752  0.00  0.00    +0.000 C 
ATOM     15  C   UNL     1       1.515   3.532  18.299  0.00  0.00    +0.000 C 
ATOM     16  O   UNL     1       0.961   4.121  19.482  0.00  0.00    +0.000 OA
ATOM     17  C   UNL     1       1.972   4.200  20.494  0.00  0.00    +0.000 C 
ATOM     18  C   UNL     1       3.142   5.092  20.039  0.00  0.00    +0.000 C 
ENDBRANCH  12  13
BRANCH   1  19
ATOM     19  O   UNL     1       6.617   3.751  18.549  0.00  0.00    +0.000 OA
ATOM     20  H   UNL     1       7.287   3.283  18.022  0.00  0.00    +0.000 HD
ENDBRANCH   1  19
TORSDOF 2
ENDMDL
