MODEL 1
REMARK VINA RESULT:      -5.9      0.000      0.000
REMARK  Name = 
REMARK  7 active torsions:
REMARK  status: ('A' for Active; 'I' for Inactive)
REMARK    1  A    between atoms: C_1  and  C_2
REMARK    2  A    between atoms: C_3  and  C_4
REMARK    3  A    between atoms: C_4  and  O_5
REMARK    4  A    between atoms: C_6  and  C_7
REMARK    5  A    between atoms: C_7  and  O_8
REMARK    6  A    between atoms: N_17  and  C_18
REMARK    7  A    between atoms: N_17  and  C_19
REMARK                            x       y       z     vdW  Elec       q    Type
REMARK                         _______ _______ _______ _____ _____    ______ ____
ROOT
ATOM      1  C   UNL     1      -4.065  13.332  23.165  0.00  0.00    +0.000 C 
ATOM      2  C   UNL     1      -4.742  12.835  21.931  0.00  0.00    +0.000 A 
ATOM      3  C   UNL     1      -6.071  12.561  21.635  0.00  0.00    +0.000 A 
ATOM      4  C   UNL     1      -6.101  12.098  20.264  0.00  0.00    +0.000 A 
ATOM      5  C   UNL     1      -4.789  12.120  19.791  0.00  0.00    +0.000 A 
ATOM      6  C   UNL     1      -4.136  11.761  18.530  0.00  0.00    +0.000 A 
ATOM      7  C   UNL     1      -4.844  11.332  17.400  0.00  0.00    +0.000 A 
ATOM      8  C   UNL     1      -4.185  10.964  16.226  0.00  0.00    +0.000 A 
ATOM      9  C   UNL     1      -2.800  10.990  16.182  0.00  0.00    +0.000 A 
ATOM     10  C   UNL     1      -2.075  11.388  17.307  0.00  0.00    +0.000 A 
ATOM     11  C   UNL     1      -2.729  11.821  18.473  0.00  0.00    +0.000 A 
ATOM     12  C   UNL     1      -1.985  12.300  19.710  0.00  0.00    +0.000 A 
ATOM     13  N   UNL     1      -0.582  12.362  19.764  0.00  0.00    +0.000 N 
ATOM     14  C   UNL     1       0.093  12.326  21.067  0.00  0.00    +0.000 C 
ATOM     15  C   UNL     1       0.267  12.913  18.714  0.00  0.00    +0.000 C 
ATOM     16  N   UNL     1      -2.626  12.632  20.804  0.00  0.00    +0.000 NA
ATOM     17  N   UNL     1      -3.981  12.542  20.820  0.00  0.00    +0.000 N 
ENDROOT
BRANCH   3  18
ATOM     18  C   UNL     1      -7.300  12.675  22.496  0.00  0.00    +0.000 C 
BRANCH  18  19
ATOM     19  O   UNL     1      -7.782  11.447  23.015  0.00  0.00    +0.000 OA
ATOM     20  H   UNL     1      -7.059  10.812  22.916  0.00  0.00    +0.000 HD
ENDBRANCH  18  19
ENDBRANCH   3  18
BRANCH   4  21
ATOM     21  C   UNL     1      -7.348  11.656  19.553  0.00  0.00    +0.000 C 
BRANCH  21  22
ATOM     22  O   UNL     1      -7.847  10.416  20.041  0.00  0.00    +0.000 OA
ATOM     23  H   UNL     1      -8.724  10.599  20.419  0.00  0.00    +0.000 HD
ENDBRANCH  21  22
ENDBRANCH   4  21
TORSDOF 4
ENDMDL
MODEL 2
REMARK VINA RESULT:      -5.8      2.833      5.804
REMARK  Name = 
REMARK  7 active torsions:
REMARK  status: ('A' for Active; 'I' for Inactive)
REMARK    1  A    between atoms: C_1  and  C_2
REMARK    2  A    between atoms: C_3  and  C_4
REMARK    3  A    between atoms: C_4  and  O_5
REMARK    4  A    between atoms: C_6  and  C_7
REMARK    5  A    between atoms: C_7  and  O_8
REMARK    6  A    between atoms: N_17  and  C_18
REMARK    7  A    between atoms: N_17  and  C_19
REMARK                            x       y       z     vdW  Elec       q    Type
REMARK                         _______ _______ _______ _____ _____    ______ ____
ROOT
ATOM      1  C   UNL     1      -6.712  11.644  18.303  0.00  0.00    +0.000 C 
ATOM      2  C   UNL     1      -5.246  11.767  18.554  0.00  0.00    +0.000 A 
ATOM      3  C   UNL     1      -4.132  11.468  17.780  0.00  0.00    +0.000 A 
ATOM      4  C   UNL     1      -2.972  11.803  18.580  0.00  0.00    +0.000 A 
ATOM      5  C   UNL     1      -3.439  12.296  19.799  0.00  0.00    +0.000 A 
ATOM      6  C   UNL     1      -2.810  12.776  21.031  0.00  0.00    +0.000 A 
ATOM      7  C   UNL     1      -1.422  12.896  21.182  0.00  0.00    +0.000 A 
ATOM      8  C   UNL     1      -0.856  13.323  22.383  0.00  0.00    +0.000 A 
ATOM      9  C   UNL     1      -1.677  13.606  23.464  0.00  0.00    +0.000 A 
ATOM     10  C   UNL     1      -3.061  13.467  23.342  0.00  0.00    +0.000 A 
ATOM     11  C   UNL     1      -3.646  13.098  22.119  0.00  0.00    +0.000 A 
ATOM     12  C   UNL     1      -5.149  12.970  21.925  0.00  0.00    +0.000 A 
ATOM     13  N   UNL     1      -6.063  13.233  22.960  0.00  0.00    +0.000 N 
ATOM     14  C   UNL     1      -7.401  12.630  22.913  0.00  0.00    +0.000 C 
ATOM     15  C   UNL     1      -6.007  14.392  23.844  0.00  0.00    +0.000 C 
ATOM     16  N   UNL     1      -5.657  12.558  20.790  0.00  0.00    +0.000 NA
ATOM     17  N   UNL     1      -4.813  12.242  19.773  0.00  0.00    +0.000 N 
ENDROOT
BRANCH   3  18
ATOM     18  C   UNL     1      -4.041  10.897  16.391  0.00  0.00    +0.000 C 
BRANCH  18  19
ATOM     19  O   UNL     1      -3.477  11.765  15.423  0.00  0.00    +0.000 OA
ATOM     20  H   UNL     1      -2.737  11.281  15.028  0.00  0.00    +0.000 HD
ENDBRANCH  18  19
ENDBRANCH   3  18
BRANCH   4  21
ATOM     21  C   UNL     1      -1.554  11.597  18.130  0.00  0.00    +0.000 C 
BRANCH  21  22
ATOM     22  O   UNL     1      -1.089  12.644  17.286  0.00  0.00    +0.000 OA
ATOM     23  H   UNL     1      -1.879  13.062  16.901  0.00  0.00    +0.000 HD
ENDBRANCH  21  22
ENDBRANCH   4  21
TORSDOF 4
ENDMDL
MODEL 3
REMARK VINA RESULT:      -5.8      2.105      2.400
REMARK  Name = 
REMARK  7 active torsions:
REMARK  status: ('A' for Active; 'I' for Inactive)
REMARK    1  A    between atoms: C_1  and  C_2
REMARK    2  A    between atoms: C_3  and  C_4
REMARK    3  A    between atoms: C_4  and  O_5
REMARK    4  A    between atoms: C_6  and  C_7
REMARK    5  A    between atoms: C_7  and  O_8
REMARK    6  A    between atoms: N_17  and  C_18
REMARK    7  A    between atoms: N_17  and  C_19
REMARK                            x       y       z     vdW  Elec       q    Type
REMARK                         _______ _______ _______ _____ _____    ______ ____
ROOT
ATOM      1  C   UNL     1      -1.545  12.805  22.902  0.00  0.00    +0.000 C 
ATOM      2  C   UNL     1      -2.524  12.786  21.777  0.00  0.00    +0.000 A 
ATOM      3  C   UNL     1      -3.780  13.355  21.616  0.00  0.00    +0.000 A 
ATOM      4  C   UNL     1      -4.240  12.973  20.297  0.00  0.00    +0.000 A 
ATOM      5  C   UNL     1      -3.237  12.196  19.718  0.00  0.00    +0.000 A 
ATOM      6  C   UNL     1      -3.077  11.491  18.444  0.00  0.00    +0.000 A 
ATOM      7  C   UNL     1      -4.029  11.548  17.417  0.00  0.00    +0.000 A 
ATOM      8  C   UNL     1      -3.861  10.834  16.231  0.00  0.00    +0.000 A 
ATOM      9  C   UNL     1      -2.746  10.025  16.071  0.00  0.00    +0.000 A 
ATOM     10  C   UNL     1      -1.799   9.935  17.094  0.00  0.00    +0.000 A 
ATOM     11  C   UNL     1      -1.927  10.697  18.267  0.00  0.00    +0.000 A 
ATOM     12  C   UNL     1      -0.904  10.662  19.392  0.00  0.00    +0.000 A 
ATOM     13  N   UNL     1       0.257   9.873  19.325  0.00  0.00    +0.000 N 
ATOM     14  C   UNL     1       0.927   9.467  20.567  0.00  0.00    +0.000 C 
ATOM     15  C   UNL     1       1.136   9.784  18.165  0.00  0.00    +0.000 C 
ATOM     16  N   UNL     1      -1.089  11.334  20.502  0.00  0.00    +0.000 NA
ATOM     17  N   UNL     1      -2.221  12.072  20.637  0.00  0.00    +0.000 N 
ENDROOT
BRANCH   3  18
ATOM     18  C   UNL     1      -4.591  14.199  22.561  0.00  0.00    +0.000 C 
BRANCH  18  19
ATOM     19  O   UNL     1      -5.137  13.502  23.667  0.00  0.00    +0.000 OA
ATOM     20  H   UNL     1      -6.089  13.678  23.653  0.00  0.00    +0.000 HD
ENDBRANCH  18  19
ENDBRANCH   3  18
BRANCH   4  21
ATOM     21  C   UNL     1      -5.580  13.350  19.733  0.00  0.00    +0.000 C 
BRANCH  21  22
ATOM     22  O   UNL     1      -5.579  14.641  19.135  0.00  0.00    +0.000 OA
ATOM     23  H   UNL     1      -6.507  14.855  18.935  0.00  0.00    +0.000 HD
ENDBRANCH  21  22
ENDBRANCH   4  21
TORSDOF 4
ENDMDL
MODEL 4
REMARK VINA RESULT:      -5.7      7.133      9.076
REMARK  Name = 
REMARK  7 active torsions:
REMARK  status: ('A' for Active; 'I' for Inactive)
REMARK    1  A    between atoms: C_1  and  C_2
REMARK    2  A    between atoms: C_3  and  C_4
REMARK    3  A    between atoms: C_4  and  O_5
REMARK    4  A    between atoms: C_6  and  C_7
REMARK    5  A    between atoms: C_7  and  O_8
REMARK    6  A    between atoms: N_17  and  C_18
REMARK    7  A    between atoms: N_17  and  C_19
REMARK                            x       y       z     vdW  Elec       q    Type
REMARK                         _______ _______ _______ _____ _____    ______ ____
ROOT
ATOM      1  C   UNL     1       2.448   9.825  17.470  0.00  0.00    +0.000 C 
ATOM      2  C   UNL     1       2.038   8.988  18.635  0.00  0.00    +0.000 A 
ATOM      3  C   UNL     1       1.277   9.259  19.765  0.00  0.00    +0.000 A 
ATOM      4  C   UNL     1       1.236   8.035  20.538  0.00  0.00    +0.000 A 
ATOM      5  C   UNL     1       1.968   7.077  19.836  0.00  0.00    +0.000 A 
ATOM      6  C   UNL     1       2.333   5.678  20.066  0.00  0.00    +0.000 A 
ATOM      7  C   UNL     1       1.880   4.945  21.171  0.00  0.00    +0.000 A 
ATOM      8  C   UNL     1       2.278   3.623  21.378  0.00  0.00    +0.000 A 
ATOM      9  C   UNL     1       3.163   3.029  20.492  0.00  0.00    +0.000 A 
ATOM     10  C   UNL     1       3.647   3.752  19.400  0.00  0.00    +0.000 A 
ATOM     11  C   UNL     1       3.205   5.062  19.147  0.00  0.00    +0.000 A 
ATOM     12  C   UNL     1       3.673   5.876  17.951  0.00  0.00    +0.000 A 
ATOM     13  N   UNL     1       4.570   5.363  16.999  0.00  0.00    +0.000 N 
ATOM     14  C   UNL     1       5.373   6.289  16.190  0.00  0.00    +0.000 C 
ATOM     15  C   UNL     1       4.475   4.038  16.396  0.00  0.00    +0.000 C 
ATOM     16  N   UNL     1       3.293   7.120  17.783  0.00  0.00    +0.000 NA
ATOM     17  N   UNL     1       2.465   7.679  18.703  0.00  0.00    +0.000 N 
ENDROOT
BRANCH   3  18
ATOM     18  C   UNL     1       0.604  10.533  20.198  0.00  0.00    +0.000 C 
BRANCH  18  19
ATOM     19  O   UNL     1      -0.804  10.549  20.038  0.00  0.00    +0.000 OA
ATOM     20  H   UNL     1      -0.966  10.781  19.113  0.00  0.00    +0.000 HD
ENDBRANCH  18  19
ENDBRANCH   3  18
BRANCH   4  21
ATOM     21  C   UNL     1       0.544   7.902  21.864  0.00  0.00    +0.000 C 
BRANCH  21  22
ATOM     22  O   UNL     1      -0.865   8.078  21.767  0.00  0.00    +0.000 OA
ATOM     23  H   UNL     1      -1.110   7.851  20.854  0.00  0.00    +0.000 HD
ENDBRANCH  21  22
ENDBRANCH   4  21
TORSDOF 4
ENDMDL
MODEL 5
REMARK VINA RESULT:      -5.7      3.378      6.456
REMARK  Name = 
REMARK  7 active torsions:
REMARK  status: ('A' for Active; 'I' for Inactive)
REMARK    1  A    between atoms: C_1  and  C_2
REMARK    2  A    between atoms: C_3  and  C_4
REMARK    3  A    between atoms: C_4  and  O_5
REMARK    4  A    between atoms: C_6  and  C_7
REMARK    5  A    between atoms: C_7  and  O_8
REMARK    6  A    between atoms: N_17  and  C_18
REMARK    7  A    between atoms: N_17  and  C_19
REMARK                            x       y       z     vdW  Elec       q    Type
REMARK                         _______ _______ _______ _____ _____    ______ ____
ROOT
ATOM      1  C   UNL     1      -2.041   9.853  16.764  0.00  0.00    +0.000 C 
ATOM      2  C   UNL     1      -1.497  10.473  18.007  0.00  0.00    +0.000 A 
ATOM      3  C   UNL     1      -0.255  10.405  18.625  0.00  0.00    +0.000 A 
ATOM      4  C   UNL     1      -0.340  11.226  19.815  0.00  0.00    +0.000 A 
ATOM      5  C   UNL     1      -1.629  11.759  19.858  0.00  0.00    +0.000 A 
ATOM      6  C   UNL     1      -2.361  12.626  20.784  0.00  0.00    +0.000 A 
ATOM      7  C   UNL     1      -1.771  13.201  21.917  0.00  0.00    +0.000 A 
ATOM      8  C   UNL     1      -2.509  13.994  22.797  0.00  0.00    +0.000 A 
ATOM      9  C   UNL     1      -3.861  14.194  22.567  0.00  0.00    +0.000 A 
ATOM     10  C   UNL     1      -4.473  13.607  21.458  0.00  0.00    +0.000 A 
ATOM     11  C   UNL     1      -3.728  12.859  20.531  0.00  0.00    +0.000 A 
ATOM     12  C   UNL     1      -4.340  12.233  19.289  0.00  0.00    +0.000 A 
ATOM     13  N   UNL     1      -5.702  12.377  18.970  0.00  0.00    +0.000 N 
ATOM     14  C   UNL     1      -6.349  11.385  18.102  0.00  0.00    +0.000 C 
ATOM     15  C   UNL     1      -6.440  13.634  19.024  0.00  0.00    +0.000 C 
ATOM     16  N   UNL     1      -3.629  11.484  18.482  0.00  0.00    +0.000 NA
ATOM     17  N   UNL     1      -2.319  11.272  18.773  0.00  0.00    +0.000 N 
ENDROOT
BRANCH   3  18
ATOM     18  C   UNL     1       0.985   9.651  18.229  0.00  0.00    +0.000 C 
BRANCH  18  19
ATOM     19  O   UNL     1       1.890  10.374  17.412  0.00  0.00    +0.000 OA
ATOM     20  H   UNL     1       2.558  10.739  18.009  0.00  0.00    +0.000 HD
ENDBRANCH  18  19
ENDBRANCH   3  18
BRANCH   4  21
ATOM     21  C   UNL     1       0.781  11.399  20.798  0.00  0.00    +0.000 C 
BRANCH  21  22
ATOM     22  O   UNL     1       0.631  10.581  21.952  0.00  0.00    +0.000 OA
ATOM     23  H   UNL     1       1.109  11.026  22.672  0.00  0.00    +0.000 HD
ENDBRANCH  21  22
ENDBRANCH   4  21
TORSDOF 4
ENDMDL
MODEL 6
REMARK VINA RESULT:      -5.7      3.422      5.291
REMARK  Name = 
REMARK  7 active torsions:
REMARK  status: ('A' for Active; 'I' for Inactive)
REMARK    1  A    between atoms: C_1  and  C_2
REMARK    2  A    between atoms: C_3  and  C_4
REMARK    3  A    between atoms: C_4  and  O_5
REMARK    4  A    between atoms: C_6  and  C_7
REMARK    5  A    between atoms: C_7  and  O_8
REMARK    6  A    between atoms: N_17  and  C_18
REMARK    7  A    between atoms: N_17  and  C_19
REMARK                            x       y       z     vdW  Elec       q    Type
REMARK                         _______ _______ _______ _____ _____    ______ ____
ROOT
ATOM      1  C   UNL     1      -2.088  12.758  22.089  0.00  0.00    +0.000 C 
ATOM      2  C   UNL     1      -1.583  12.009  20.901  0.00  0.00    +0.000 A 
ATOM      3  C   UNL     1      -0.353  11.435  20.606  0.00  0.00    +0.000 A 
ATOM      4  C   UNL     1      -0.477  10.851  19.287  0.00  0.00    +0.000 A 
ATOM      5  C   UNL     1      -1.779  11.093  18.847  0.00  0.00    +0.000 A 
ATOM      6  C   UNL     1      -2.531  10.802  17.625  0.00  0.00    +0.000 A 
ATOM      7  C   UNL     1      -1.998  10.062  16.561  0.00  0.00    +0.000 A 
ATOM      8  C   UNL     1      -2.732   9.835  15.396  0.00  0.00    +0.000 A 
ATOM      9  C   UNL     1      -4.001  10.376  15.270  0.00  0.00    +0.000 A 
ATOM     10  C   UNL     1      -4.539  11.140  16.308  0.00  0.00    +0.000 A 
ATOM     11  C   UNL     1      -3.835  11.323  17.511  0.00  0.00    +0.000 A 
ATOM     12  C   UNL     1      -4.393  12.113  18.684  0.00  0.00    +0.000 A 
ATOM     13  N   UNL     1      -5.669  12.703  18.652  0.00  0.00    +0.000 N 
ATOM     14  C   UNL     1      -5.962  13.839  19.535  0.00  0.00    +0.000 C 
ATOM     15  C   UNL     1      -6.879  12.040  18.180  0.00  0.00    +0.000 C 
ATOM     16  N   UNL     1      -3.681  12.322  19.765  0.00  0.00    +0.000 NA
ATOM     17  N   UNL     1      -2.422  11.816  19.825  0.00  0.00    +0.000 N 
ENDROOT
BRANCH   3  18
ATOM     18  C   UNL     1       0.914  11.387  21.415  0.00  0.00    +0.000 C 
BRANCH  18  19
ATOM     19  O   UNL     1       1.780  12.495  21.237  0.00  0.00    +0.000 OA
ATOM     20  H   UNL     1       2.664  12.187  21.482  0.00  0.00    +0.000 HD
ENDBRANCH  18  19
ENDBRANCH   3  18
BRANCH   4  21
ATOM     21  C   UNL     1       0.644  10.158  18.567  0.00  0.00    +0.000 C 
BRANCH  21  22
ATOM     22  O   UNL     1       1.523  11.067  17.916  0.00  0.00    +0.000 OA
ATOM     23  H   UNL     1       1.168  11.205  17.021  0.00  0.00    +0.000 HD
ENDBRANCH  21  22
ENDBRANCH   4  21
TORSDOF 4
ENDMDL
MODEL 7
REMARK VINA RESULT:      -5.6      3.077      5.291
REMARK  Name = 
REMARK  7 active torsions:
REMARK  status: ('A' for Active; 'I' for Inactive)
REMARK    1  A    between atoms: C_1  and  C_2
REMARK    2  A    between atoms: C_3  and  C_4
REMARK    3  A    between atoms: C_4  and  O_5
REMARK    4  A    between atoms: C_6  and  C_7
REMARK    5  A    between atoms: C_7  and  O_8
REMARK    6  A    between atoms: N_17  and  C_18
REMARK    7  A    between atoms: N_17  and  C_19
REMARK                            x       y       z     vdW  Elec       q    Type
REMARK                         _______ _______ _______ _____ _____    ______ ____
ROOT
ATOM      1  C   UNL     1       0.540  11.309  20.813  0.00  0.00    +0.000 C 
ATOM      2  C   UNL     1      -0.467  11.055  19.742  0.00  0.00    +0.000 A 
ATOM      3  C   UNL     1      -0.412  10.342  18.551  0.00  0.00    +0.000 A 
ATOM      4  C   UNL     1      -1.716  10.468  17.934  0.00  0.00    +0.000 A 
ATOM      5  C   UNL     1      -2.503  11.245  18.785  0.00  0.00    +0.000 A 
ATOM      6  C   UNL     1      -3.874  11.758  18.747  0.00  0.00    +0.000 A 
ATOM      7  C   UNL     1      -4.776  11.448  17.721  0.00  0.00    +0.000 A 
ATOM      8  C   UNL     1      -6.064  11.984  17.699  0.00  0.00    +0.000 A 
ATOM      9  C   UNL     1      -6.454  12.867  18.694  0.00  0.00    +0.000 A 
ATOM     10  C   UNL     1      -5.560  13.210  19.710  0.00  0.00    +0.000 A 
ATOM     11  C   UNL     1      -4.283  12.628  19.778  0.00  0.00    +0.000 A 
ATOM     12  C   UNL     1      -3.289  12.940  20.885  0.00  0.00    +0.000 A 
ATOM     13  N   UNL     1      -3.590  13.823  21.936  0.00  0.00    +0.000 N 
ATOM     14  C   UNL     1      -2.496  14.481  22.662  0.00  0.00    +0.000 C 
ATOM     15  C   UNL     1      -4.837  13.821  22.693  0.00  0.00    +0.000 C 
ATOM     16  N   UNL     1      -2.081  12.431  20.879  0.00  0.00    +0.000 NA
ATOM     17  N   UNL     1      -1.723  11.611  19.857  0.00  0.00    +0.000 N 
ENDROOT
BRANCH   3  18
ATOM     18  C   UNL     1       0.725   9.576  17.931  0.00  0.00    +0.000 C 
BRANCH  18  19
ATOM     19  O   UNL     1       1.800  10.374  17.466  0.00  0.00    +0.000 OA
ATOM     20  H   UNL     1       1.440  11.263  17.338  0.00  0.00    +0.000 HD
ENDBRANCH  18  19
ENDBRANCH   3  18
BRANCH   4  21
ATOM     21  C   UNL     1      -2.076   9.875  16.603  0.00  0.00    +0.000 C 
BRANCH  21  22
ATOM     22  O   UNL     1      -2.175  10.853  15.574  0.00  0.00    +0.000 OA
ATOM     23  H   UNL     1      -2.318  11.707  16.017  0.00  0.00    +0.000 HD
ENDBRANCH  21  22
ENDBRANCH   4  21
TORSDOF 4
ENDMDL
MODEL 8
REMARK VINA RESULT:      -5.5      2.920      5.204
REMARK  Name = 
REMARK  7 active torsions:
REMARK  status: ('A' for Active; 'I' for Inactive)
REMARK    1  A    between atoms: C_1  and  C_2
REMARK    2  A    between atoms: C_3  and  C_4
REMARK    3  A    between atoms: C_4  and  O_5
REMARK    4  A    between atoms: C_6  and  C_7
REMARK    5  A    between atoms: C_7  and  O_8
REMARK    6  A    between atoms: N_17  and  C_18
REMARK    7  A    between atoms: N_17  and  C_19
REMARK                            x       y       z     vdW  Elec       q    Type
REMARK                         _______ _______ _______ _____ _____    ______ ____
ROOT
ATOM      1  C   UNL     1      -1.600  12.941  23.211  0.00  0.00    +0.000 C 
ATOM      2  C   UNL     1      -1.863  12.619  21.778  0.00  0.00    +0.000 A 
ATOM      3  C   UNL     1      -1.021  12.353  20.705  0.00  0.00    +0.000 A 
ATOM      4  C   UNL     1      -1.875  12.117  19.560  0.00  0.00    +0.000 A 
ATOM      5  C   UNL     1      -3.195  12.244  19.994  0.00  0.00    +0.000 A 
ATOM      6  C   UNL     1      -4.509  12.156  19.354  0.00  0.00    +0.000 A 
ATOM      7  C   UNL     1      -4.678  11.814  18.006  0.00  0.00    +0.000 A 
ATOM      8  C   UNL     1      -5.944  11.775  17.420  0.00  0.00    +0.000 A 
ATOM      9  C   UNL     1      -7.057  12.112  18.174  0.00  0.00    +0.000 A 
ATOM     10  C   UNL     1      -6.906  12.482  19.512  0.00  0.00    +0.000 A 
ATOM     11  C   UNL     1      -5.644  12.464  20.130  0.00  0.00    +0.000 A 
ATOM     12  C   UNL     1      -5.433  12.821  21.593  0.00  0.00    +0.000 A 
ATOM     13  N   UNL     1      -6.497  13.178  22.439  0.00  0.00    +0.000 N 
ATOM     14  C   UNL     1      -6.230  13.983  23.636  0.00  0.00    +0.000 C 
ATOM     15  C   UNL     1      -7.768  12.467  22.520  0.00  0.00    +0.000 C 
ATOM     16  N   UNL     1      -4.233  12.860  22.118  0.00  0.00    +0.000 NA
ATOM     17  N   UNL     1      -3.165  12.573  21.329  0.00  0.00    +0.000 N 
ENDROOT
BRANCH   3  18
ATOM     18  C   UNL     1       0.481  12.311  20.639  0.00  0.00    +0.000 C 
BRANCH  18  19
ATOM     19  O   UNL     1       1.090  11.343  21.476  0.00  0.00    +0.000 OA
ATOM     20  H   UNL     1       0.618  10.513  21.315  0.00  0.00    +0.000 HD
ENDBRANCH  18  19
ENDBRANCH   3  18
BRANCH   4  21
ATOM     21  C   UNL     1      -1.364  11.829  18.177  0.00  0.00    +0.000 C 
BRANCH  21  22
ATOM     22  O   UNL     1      -0.998  13.008  17.471  0.00  0.00    +0.000 OA
ATOM     23  H   UNL     1      -0.121  12.840  17.085  0.00  0.00    +0.000 HD
ENDBRANCH  21  22
ENDBRANCH   4  21
TORSDOF 4
ENDMDL
MODEL 9
REMARK VINA RESULT:      -5.5      1.659      3.897
REMARK  Name = 
REMARK  7 active torsions:
REMARK  status: ('A' for Active; 'I' for Inactive)
REMARK    1  A    between atoms: C_1  and  C_2
REMARK    2  A    between atoms: C_3  and  C_4
REMARK    3  A    between atoms: C_4  and  O_5
REMARK    4  A    between atoms: C_6  and  C_7
REMARK    5  A    between atoms: C_7  and  O_8
REMARK    6  A    between atoms: N_17  and  C_18
REMARK    7  A    between atoms: N_17  and  C_19
REMARK                            x       y       z     vdW  Elec       q    Type
REMARK                         _______ _______ _______ _____ _____    ______ ____
ROOT
ATOM      1  C   UNL     1      -7.542  11.971  19.833  0.00  0.00    +0.000 C 
ATOM      2  C   UNL     1      -6.476  12.388  20.790  0.00  0.00    +0.000 A 
ATOM      3  C   UNL     1      -6.521  12.924  22.071  0.00  0.00    +0.000 A 
ATOM      4  C   UNL     1      -5.147  13.124  22.483  0.00  0.00    +0.000 A 
ATOM      5  C   UNL     1      -4.334  12.694  21.434  0.00  0.00    +0.000 A 
ATOM      6  C   UNL     1      -2.890  12.647  21.195  0.00  0.00    +0.000 A 
ATOM      7  C   UNL     1      -1.945  13.026  22.158  0.00  0.00    +0.000 A 
ATOM      8  C   UNL     1      -0.578  13.002  21.882  0.00  0.00    +0.000 A 
ATOM      9  C   UNL     1      -0.141  12.627  20.622  0.00  0.00    +0.000 A 
ATOM     10  C   UNL     1      -1.068  12.272  19.640  0.00  0.00    +0.000 A 
ATOM     11  C   UNL     1      -2.443  12.232  19.924  0.00  0.00    +0.000 A 
ATOM     12  C   UNL     1      -3.488  11.815  18.902  0.00  0.00    +0.000 A 
ATOM     13  N   UNL     1      -3.145  11.420  17.597  0.00  0.00    +0.000 N 
ATOM     14  C   UNL     1      -4.143  11.523  16.525  0.00  0.00    +0.000 C 
ATOM     15  C   UNL     1      -2.066  10.496  17.265  0.00  0.00    +0.000 C 
ATOM     16  N   UNL     1      -4.768  11.855  19.181  0.00  0.00    +0.000 NA
ATOM     17  N   UNL     1      -5.155  12.278  20.412  0.00  0.00    +0.000 N 
ENDROOT
BRANCH   3  18
ATOM     18  C   UNL     1      -7.702  13.274  22.935  0.00  0.00    +0.000 C 
BRANCH  18  19
ATOM     19  O   UNL     1      -7.916  12.409  24.036  0.00  0.00    +0.000 OA
ATOM     20  H   UNL     1      -7.751  11.513  23.709  0.00  0.00    +0.000 HD
ENDBRANCH  18  19
ENDBRANCH   3  18
BRANCH   4  21
ATOM     21  C   UNL     1      -4.744  13.725  23.799  0.00  0.00    +0.000 C 
BRANCH  21  22
ATOM     22  O   UNL     1      -4.849  12.803  24.877  0.00  0.00    +0.000 OA
ATOM     23  H   UNL     1      -4.230  12.078  24.684  0.00  0.00    +0.000 HD
ENDBRANCH  21  22
ENDBRANCH   4  21
TORSDOF 4
ENDMDL
