MODEL 1
REMARK VINA RESULT:      -7.6      0.000      0.000
REMARK  Name = 
REMARK  2 active torsions:
REMARK  status: ('A' for Active; 'I' for Inactive)
REMARK    1  A    between atoms: C_2  and  C_3
REMARK    2  A    between atoms: C_3  and  N_4
REMARK                            x       y       z     vdW  Elec       q    Type
REMARK                         _______ _______ _______ _____ _____    ______ ____
ROOT
ATOM      1  N   UNL     1       6.345   5.398  17.938  0.00  0.00    +0.000 N 
ATOM      2  C   UNL     1       7.396   6.267  17.771  0.00  0.00    +0.000 A 
ATOM      3  O   UNL     1       7.952   6.907  18.664  0.00  0.00    +0.000 OA
ATOM      4  O   UNL     1       7.793   6.338  16.434  0.00  0.00    +0.000 OA
ATOM      5  C   UNL     1       6.955   5.413  15.831  0.00  0.00    +0.000 A 
ATOM      6  C   UNL     1       6.993   5.062  14.497  0.00  0.00    +0.000 A 
ATOM      7  C   UNL     1       6.100   4.078  14.068  0.00  0.00    +0.000 A 
ATOM      8  C   UNL     1       5.198   3.482  14.972  0.00  0.00    +0.000 A 
ATOM      9  C   UNL     1       5.174   3.861  16.319  0.00  0.00    +0.000 A 
ATOM     10  C   UNL     1       6.071   4.829  16.715  0.00  0.00    +0.000 A 
ENDROOT
BRANCH   1  11
ATOM     11  C   UNL     1       5.734   5.092  19.200  0.00  0.00    +0.000 C 
BRANCH  11  13
ATOM     12  O   UNL     1       3.766   6.467  19.056  0.00  0.00    +0.000 OA
ATOM     13  C   UNL     1       4.226   5.333  19.253  0.00  0.00    +0.000 C 
ATOM     14  N   UNL     1       3.409   4.246  19.518  0.00  0.00    +0.000 N 
ATOM     15  C   UNL     1       3.859   2.886  19.803  0.00  0.00    +0.000 C 
ATOM     16  C   UNL     1       3.339   1.909  18.752  0.00  0.00    +0.000 C 
ATOM     17  C   UNL     1       1.823   2.037  18.582  0.00  0.00    +0.000 C 
ATOM     18  C   UNL     1       1.396   3.491  18.368  0.00  0.00    +0.000 C 
ATOM     19  C   UNL     1       1.963   4.406  19.452  0.00  0.00    +0.000 C 
ENDBRANCH  11  13
ENDBRANCH   1  11
TORSDOF 2
ENDMDL
MODEL 2
REMARK VINA RESULT:      -7.4      1.251      1.826
REMARK  Name = 
REMARK  2 active torsions:
REMARK  status: ('A' for Active; 'I' for Inactive)
REMARK    1  A    between atoms: C_2  and  C_3
REMARK    2  A    between atoms: C_3  and  N_4
REMARK                            x       y       z     vdW  Elec       q    Type
REMARK                         _______ _______ _______ _____ _____    ______ ____
ROOT
ATOM      1  N   UNL     1       5.742   5.708  17.159  0.00  0.00    +0.000 N 
ATOM      2  C   UNL     1       6.938   6.371  17.293  0.00  0.00    +0.000 A 
ATOM      3  O   UNL     1       7.311   6.993  18.288  0.00  0.00    +0.000 OA
ATOM      4  O   UNL     1       7.724   6.245  16.145  0.00  0.00    +0.000 OA
ATOM      5  C   UNL     1       6.947   5.417  15.349  0.00  0.00    +0.000 A 
ATOM      6  C   UNL     1       7.316   4.937  14.110  0.00  0.00    +0.000 A 
ATOM      7  C   UNL     1       6.425   4.077  13.464  0.00  0.00    +0.000 A 
ATOM      8  C   UNL     1       5.199   3.728  14.065  0.00  0.00    +0.000 A 
ATOM      9  C   UNL     1       4.845   4.235  15.321  0.00  0.00    +0.000 A 
ATOM     10  C   UNL     1       5.746   5.075  15.937  0.00  0.00    +0.000 A 
ENDROOT
BRANCH   1  11
ATOM     11  C   UNL     1       4.735   5.631  18.179  0.00  0.00    +0.000 C 
BRANCH  11  13
ATOM     12  O   UNL     1       5.807   3.850  19.390  0.00  0.00    +0.000 OA
ATOM     13  C   UNL     1       4.740   4.330  18.981  0.00  0.00    +0.000 C 
ATOM     14  N   UNL     1       3.520   3.724  19.232  0.00  0.00    +0.000 N 
ATOM     15  C   UNL     1       2.220   4.188  18.759  0.00  0.00    +0.000 C 
ATOM     16  C   UNL     1       1.302   4.527  19.930  0.00  0.00    +0.000 C 
ATOM     17  C   UNL     1       1.220   3.364  20.922  0.00  0.00    +0.000 C 
ATOM     18  C   UNL     1       2.609   2.861  21.323  0.00  0.00    +0.000 C 
ATOM     19  C   UNL     1       3.468   2.554  20.098  0.00  0.00    +0.000 C 
ENDBRANCH  11  13
ENDBRANCH   1  11
TORSDOF 2
ENDMDL
MODEL 3
REMARK VINA RESULT:      -7.3      1.549      2.019
REMARK  Name = 
REMARK  2 active torsions:
REMARK  status: ('A' for Active; 'I' for Inactive)
REMARK    1  A    between atoms: C_2  and  C_3
REMARK    2  A    between atoms: C_3  and  N_4
REMARK                            x       y       z     vdW  Elec       q    Type
REMARK                         _______ _______ _______ _____ _____    ______ ____
ROOT
ATOM      1  N   UNL     1       6.207   4.809  18.125  0.00  0.00    +0.000 N 
ATOM      2  C   UNL     1       7.578   4.817  18.225  0.00  0.00    +0.000 A 
ATOM      3  O   UNL     1       8.224   4.878  19.271  0.00  0.00    +0.000 OA
ATOM      4  O   UNL     1       8.182   4.725  16.969  0.00  0.00    +0.000 OA
ATOM      5  C   UNL     1       7.088   4.601  16.126  0.00  0.00    +0.000 A 
ATOM      6  C   UNL     1       7.158   4.416  14.761  0.00  0.00    +0.000 A 
ATOM      7  C   UNL     1       5.953   4.269  14.072  0.00  0.00    +0.000 A 
ATOM      8  C   UNL     1       4.722   4.315  14.758  0.00  0.00    +0.000 A 
ATOM      9  C   UNL     1       4.678   4.512  16.143  0.00  0.00    +0.000 A 
ATOM     10  C   UNL     1       5.883   4.648  16.797  0.00  0.00    +0.000 A 
ENDROOT
BRANCH   1  11
ATOM     11  C   UNL     1       5.309   4.863  19.243  0.00  0.00    +0.000 C 
BRANCH  11  13
ATOM     12  O   UNL     1       5.223   2.553  19.907  0.00  0.00    +0.000 OA
ATOM     13  C   UNL     1       4.585   3.552  19.541  0.00  0.00    +0.000 C 
ATOM     14  N   UNL     1       3.208   3.527  19.394  0.00  0.00    +0.000 N 
ATOM     15  C   UNL     1       2.377   4.635  18.931  0.00  0.00    +0.000 C 
ATOM     16  C   UNL     1       1.378   5.054  20.006  0.00  0.00    +0.000 C 
ATOM     17  C   UNL     1       0.580   3.852  20.516  0.00  0.00    +0.000 C 
ATOM     18  C   UNL     1       1.493   2.689  20.912  0.00  0.00    +0.000 C 
ATOM     19  C   UNL     1       2.467   2.337  19.790  0.00  0.00    +0.000 C 
ENDBRANCH  11  13
ENDBRANCH   1  11
TORSDOF 2
ENDMDL
MODEL 4
REMARK VINA RESULT:      -7.2      1.461      2.012
REMARK  Name = 
REMARK  2 active torsions:
REMARK  status: ('A' for Active; 'I' for Inactive)
REMARK    1  A    between atoms: C_2  and  C_3
REMARK    2  A    between atoms: C_3  and  N_4
REMARK                            x       y       z     vdW  Elec       q    Type
REMARK                         _______ _______ _______ _____ _____    ______ ____
ROOT
ATOM      1  N   UNL     1       5.856   4.485  15.901  0.00  0.00    +0.000 N 
ATOM      2  C   UNL     1       6.883   5.289  16.333  0.00  0.00    +0.000 A 
ATOM      3  O   UNL     1       7.083   5.642  17.496  0.00  0.00    +0.000 OA
ATOM      4  O   UNL     1       7.717   5.665  15.277  0.00  0.00    +0.000 OA
ATOM      5  C   UNL     1       7.157   4.984  14.207  0.00  0.00    +0.000 A 
ATOM      6  C   UNL     1       7.661   4.978  12.923  0.00  0.00    +0.000 A 
ATOM      7  C   UNL     1       6.991   4.201  11.975  0.00  0.00    +0.000 A 
ATOM      8  C   UNL     1       5.844   3.464  12.332  0.00  0.00    +0.000 A 
ATOM      9  C   UNL     1       5.348   3.493  13.640  0.00  0.00    +0.000 A 
ATOM     10  C   UNL     1       6.033   4.263  14.554  0.00  0.00    +0.000 A 
ENDROOT
BRANCH   1  11
ATOM     11  C   UNL     1       4.852   3.917  16.756  0.00  0.00    +0.000 C 
BRANCH  11  13
ATOM     12  O   UNL     1       3.771   6.027  17.157  0.00  0.00    +0.000 OA
ATOM     13  C   UNL     1       4.108   4.929  17.624  0.00  0.00    +0.000 C 
ATOM     14  N   UNL     1       3.826   4.572  18.932  0.00  0.00    +0.000 N 
ATOM     15  C   UNL     1       4.216   3.324  19.582  0.00  0.00    +0.000 C 
ATOM     16  C   UNL     1       2.989   2.532  20.024  0.00  0.00    +0.000 C 
ATOM     17  C   UNL     1       2.045   3.397  20.862  0.00  0.00    +0.000 C 
ATOM     18  C   UNL     1       1.732   4.728  20.173  0.00  0.00    +0.000 C 
ATOM     19  C   UNL     1       3.008   5.454  19.754  0.00  0.00    +0.000 C 
ENDBRANCH  11  13
ENDBRANCH   1  11
TORSDOF 2
ENDMDL
MODEL 5
REMARK VINA RESULT:      -7.2      1.378      1.865
REMARK  Name = 
REMARK  2 active torsions:
REMARK  status: ('A' for Active; 'I' for Inactive)
REMARK    1  A    between atoms: C_2  and  C_3
REMARK    2  A    between atoms: C_3  and  N_4
REMARK                            x       y       z     vdW  Elec       q    Type
REMARK                         _______ _______ _______ _____ _____    ______ ____
ROOT
ATOM      1  N   UNL     1       5.741   5.544  16.532  0.00  0.00    +0.000 N 
ATOM      2  C   UNL     1       6.942   6.176  16.749  0.00  0.00    +0.000 A 
ATOM      3  O   UNL     1       7.271   6.766  17.778  0.00  0.00    +0.000 OA
ATOM      4  O   UNL     1       7.788   6.057  15.644  0.00  0.00    +0.000 OA
ATOM      5  C   UNL     1       7.039   5.267  14.786  0.00  0.00    +0.000 A 
ATOM      6  C   UNL     1       7.468   4.807  13.558  0.00  0.00    +0.000 A 
ATOM      7  C   UNL     1       6.595   3.983  12.843  0.00  0.00    +0.000 A 
ATOM      8  C   UNL     1       5.330   3.650  13.366  0.00  0.00    +0.000 A 
ATOM      9  C   UNL     1       4.916   4.136  14.611  0.00  0.00    +0.000 A 
ATOM     10  C   UNL     1       5.799   4.941  15.297  0.00  0.00    +0.000 A 
ENDROOT
BRANCH   1  11
ATOM     11  C   UNL     1       4.676   5.468  17.492  0.00  0.00    +0.000 C 
BRANCH  11  13
ATOM     12  O   UNL     1       5.637   3.961  19.102  0.00  0.00    +0.000 OA
ATOM     13  C   UNL     1       4.682   4.203  18.349  0.00  0.00    +0.000 C 
ATOM     14  N   UNL     1       3.590   3.356  18.255  0.00  0.00    +0.000 N 
ATOM     15  C   UNL     1       2.442   3.535  17.371  0.00  0.00    +0.000 C 
ATOM     16  C   UNL     1       1.152   3.682  18.174  0.00  0.00    +0.000 C 
ATOM     17  C   UNL     1       0.991   2.535  19.174  0.00  0.00    +0.000 C 
ATOM     18  C   UNL     1       2.250   2.337  20.020  0.00  0.00    +0.000 C 
ATOM     19  C   UNL     1       3.496   2.208  19.146  0.00  0.00    +0.000 C 
ENDBRANCH  11  13
ENDBRANCH   1  11
TORSDOF 2
ENDMDL
MODEL 6
REMARK VINA RESULT:      -7.0      1.761      5.495
REMARK  Name = 
REMARK  2 active torsions:
REMARK  status: ('A' for Active; 'I' for Inactive)
REMARK    1  A    between atoms: C_2  and  C_3
REMARK    2  A    between atoms: C_3  and  N_4
REMARK                            x       y       z     vdW  Elec       q    Type
REMARK                         _______ _______ _______ _____ _____    ______ ____
ROOT
ATOM      1  N   UNL     1       2.780   5.671  19.185  0.00  0.00    +0.000 N 
ATOM      2  C   UNL     1       1.981   6.097  20.218  0.00  0.00    +0.000 A 
ATOM      3  O   UNL     1       1.966   7.231  20.698  0.00  0.00    +0.000 OA
ATOM      4  O   UNL     1       1.143   5.076  20.671  0.00  0.00    +0.000 OA
ATOM      5  C   UNL     1       1.451   4.039  19.804  0.00  0.00    +0.000 A 
ATOM      6  C   UNL     1       0.836   2.804  19.798  0.00  0.00    +0.000 A 
ATOM      7  C   UNL     1       1.244   1.890  18.824  0.00  0.00    +0.000 A 
ATOM      8  C   UNL     1       2.248   2.230  17.896  0.00  0.00    +0.000 A 
ATOM      9  C   UNL     1       2.861   3.487  17.928  0.00  0.00    +0.000 A 
ATOM     10  C   UNL     1       2.435   4.370  18.895  0.00  0.00    +0.000 A 
ENDROOT
BRANCH   1  11
ATOM     11  C   UNL     1       3.725   6.498  18.491  0.00  0.00    +0.000 C 
BRANCH  11  13
ATOM     12  O   UNL     1       5.650   5.558  19.586  0.00  0.00    +0.000 OA
ATOM     13  C   UNL     1       5.165   5.989  18.529  0.00  0.00    +0.000 C 
ATOM     14  N   UNL     1       5.891   6.021  17.349  0.00  0.00    +0.000 N 
ATOM     15  C   UNL     1       5.422   6.545  16.070  0.00  0.00    +0.000 C 
ATOM     16  C   UNL     1       5.406   5.452  15.005  0.00  0.00    +0.000 C 
ATOM     17  C   UNL     1       6.758   4.740  14.925  0.00  0.00    +0.000 C 
ATOM     18  C   UNL     1       7.242   4.282  16.302  0.00  0.00    +0.000 C 
ATOM     19  C   UNL     1       7.221   5.428  17.312  0.00  0.00    +0.000 C 
ENDBRANCH  11  13
ENDBRANCH   1  11
TORSDOF 2
ENDMDL
MODEL 7
REMARK VINA RESULT:      -6.9      2.934      6.032
REMARK  Name = 
REMARK  2 active torsions:
REMARK  status: ('A' for Active; 'I' for Inactive)
REMARK    1  A    between atoms: C_2  and  C_3
REMARK    2  A    between atoms: C_3  and  N_4
REMARK                            x       y       z     vdW  Elec       q    Type
REMARK                         _______ _______ _______ _____ _____    ______ ____
ROOT
ATOM      1  N   UNL     1       2.488   6.249  19.229  0.00  0.00    +0.000 N 
ATOM      2  C   UNL     1       2.031   5.981  20.497  0.00  0.00    +0.000 A 
ATOM      3  O   UNL     1       2.198   4.931  21.117  0.00  0.00    +0.000 OA
ATOM      4  O   UNL     1       1.346   7.073  21.035  0.00  0.00    +0.000 OA
ATOM      5  C   UNL     1       1.478   8.023  20.034  0.00  0.00    +0.000 A 
ATOM      6  C   UNL     1       1.016   9.320  20.109  0.00  0.00    +0.000 A 
ATOM      7  C   UNL     1       1.275  10.157  19.021  0.00  0.00    +0.000 A 
ATOM      8  C   UNL     1       1.977   9.677  17.897  0.00  0.00    +0.000 A 
ATOM      9  C   UNL     1       2.429   8.353  17.843  0.00  0.00    +0.000 A 
ATOM     10  C   UNL     1       2.164   7.554  18.933  0.00  0.00    +0.000 A 
ENDROOT
BRANCH   1  11
ATOM     11  C   UNL     1       3.250   5.335  18.428  0.00  0.00    +0.000 C 
BRANCH  11  13
ATOM     12  O   UNL     1       5.269   5.268  19.733  0.00  0.00    +0.000 OA
ATOM     13  C   UNL     1       4.763   5.435  18.614  0.00  0.00    +0.000 C 
ATOM     14  N   UNL     1       5.533   5.709  17.496  0.00  0.00    +0.000 N 
ATOM     15  C   UNL     1       5.027   5.961  16.149  0.00  0.00    +0.000 C 
ATOM     16  C   UNL     1       5.544   4.913  15.168  0.00  0.00    +0.000 C 
ATOM     17  C   UNL     1       7.068   4.789  15.244  0.00  0.00    +0.000 C 
ATOM     18  C   UNL     1       7.552   4.608  16.684  0.00  0.00    +0.000 C 
ATOM     19  C   UNL     1       6.985   5.688  17.604  0.00  0.00    +0.000 C 
ENDBRANCH  11  13
ENDBRANCH   1  11
TORSDOF 2
ENDMDL
MODEL 8
REMARK VINA RESULT:      -6.9      1.804      2.529
REMARK  Name = 
REMARK  2 active torsions:
REMARK  status: ('A' for Active; 'I' for Inactive)
REMARK    1  A    between atoms: C_2  and  C_3
REMARK    2  A    between atoms: C_3  and  N_4
REMARK                            x       y       z     vdW  Elec       q    Type
REMARK                         _______ _______ _______ _____ _____    ______ ____
ROOT
ATOM      1  N   UNL     1       4.520   5.339  17.804  0.00  0.00    +0.000 N 
ATOM      2  C   UNL     1       5.354   5.096  18.869  0.00  0.00    +0.000 A 
ATOM      3  O   UNL     1       5.031   5.116  20.057  0.00  0.00    +0.000 OA
ATOM      4  O   UNL     1       6.650   4.797  18.444  0.00  0.00    +0.000 OA
ATOM      5  C   UNL     1       6.518   4.817  17.064  0.00  0.00    +0.000 A 
ATOM      6  C   UNL     1       7.524   4.518  16.169  0.00  0.00    +0.000 A 
ATOM      7  C   UNL     1       7.202   4.547  14.810  0.00  0.00    +0.000 A 
ATOM      8  C   UNL     1       5.898   4.876  14.388  0.00  0.00    +0.000 A 
ATOM      9  C   UNL     1       4.897   5.183  15.316  0.00  0.00    +0.000 A 
ATOM     10  C   UNL     1       5.242   5.140  16.649  0.00  0.00    +0.000 A 
ENDROOT
BRANCH   1  11
ATOM     11  C   UNL     1       3.122   5.646  17.918  0.00  0.00    +0.000 C 
BRANCH  11  13
ATOM     12  O   UNL     1       2.061   3.741  16.903  0.00  0.00    +0.000 OA
ATOM     13  C   UNL     1       2.202   4.427  17.926  0.00  0.00    +0.000 C 
ATOM     14  N   UNL     1       1.547   4.123  19.108  0.00  0.00    +0.000 N 
ATOM     15  C   UNL     1       1.616   4.891  20.348  0.00  0.00    +0.000 C 
ATOM     16  C   UNL     1       2.204   4.050  21.478  0.00  0.00    +0.000 C 
ATOM     17  C   UNL     1       1.464   2.717  21.616  0.00  0.00    +0.000 C 
ATOM     18  C   UNL     1       1.347   1.990  20.275  0.00  0.00    +0.000 C 
ATOM     19  C   UNL     1       0.761   2.899  19.196  0.00  0.00    +0.000 C 
ENDBRANCH  11  13
ENDBRANCH   1  11
TORSDOF 2
ENDMDL
MODEL 9
REMARK VINA RESULT:      -6.9      1.902      3.168
REMARK  Name = 
REMARK  2 active torsions:
REMARK  status: ('A' for Active; 'I' for Inactive)
REMARK    1  A    between atoms: C_2  and  C_3
REMARK    2  A    between atoms: C_3  and  N_4
REMARK                            x       y       z     vdW  Elec       q    Type
REMARK                         _______ _______ _______ _____ _____    ______ ____
ROOT
ATOM      1  N   UNL     1       5.378   4.184  16.847  0.00  0.00    +0.000 N 
ATOM      2  C   UNL     1       5.440   4.700  15.575  0.00  0.00    +0.000 A 
ATOM      3  O   UNL     1       4.778   4.319  14.609  0.00  0.00    +0.000 OA
ATOM      4  O   UNL     1       6.354   5.753  15.495  0.00  0.00    +0.000 OA
ATOM      5  C   UNL     1       6.783   5.868  16.808  0.00  0.00    +0.000 A 
ATOM      6  C   UNL     1       7.663   6.824  17.271  0.00  0.00    +0.000 A 
ATOM      7  C   UNL     1       7.953   6.820  18.638  0.00  0.00    +0.000 A 
ATOM      8  C   UNL     1       7.366   5.867  19.494  0.00  0.00    +0.000 A 
ATOM      9  C   UNL     1       6.481   4.902  18.997  0.00  0.00    +0.000 A 
ATOM     10  C   UNL     1       6.209   4.935  17.647  0.00  0.00    +0.000 A 
ENDROOT
BRANCH   1  11
ATOM     11  C   UNL     1       4.511   3.113  17.251  0.00  0.00    +0.000 C 
BRANCH  11  13
ATOM     12  O   UNL     1       2.260   3.630  16.580  0.00  0.00    +0.000 OA
ATOM     13  C   UNL     1       3.066   3.531  17.517  0.00  0.00    +0.000 C 
ATOM     14  N   UNL     1       2.699   3.783  18.828  0.00  0.00    +0.000 N 
ATOM     15  C   UNL     1       3.583   3.734  19.989  0.00  0.00    +0.000 C 
ATOM     16  C   UNL     1       3.118   2.673  20.984  0.00  0.00    +0.000 C 
ATOM     17  C   UNL     1       1.641   2.860  21.338  0.00  0.00    +0.000 C 
ATOM     18  C   UNL     1       0.768   2.988  20.088  0.00  0.00    +0.000 C 
ATOM     19  C   UNL     1       1.303   4.059  19.140  0.00  0.00    +0.000 C 
ENDBRANCH  11  13
ENDBRANCH   1  11
TORSDOF 2
ENDMDL
