MODEL 1
REMARK VINA RESULT:      -7.7      0.000      0.000
REMARK  Name = 
REMARK  8 active torsions:
REMARK  status: ('A' for Active; 'I' for Inactive)
REMARK    1  A    between atoms: C_2  and  O_3
REMARK    2  A    between atoms: C_2  and  C_4
REMARK    3  A    between atoms: C_4  and  N_5
REMARK    4  A    between atoms: C_9  and  C_10
REMARK    5  A    between atoms: C_12  and  N_13
REMARK    6  A    between atoms: C_18  and  O_19
REMARK    7  A    between atoms: O_19  and  C_20
REMARK    8  A    between atoms: C_20  and  C_21
REMARK                            x       y       z     vdW  Elec       q    Type
REMARK                         _______ _______ _______ _____ _____    ______ ____
ROOT
ATOM      1  C   UNL     1       2.926   5.348  18.688  0.00  0.00    +0.000 A 
ATOM      2  C   UNL     1       1.756   4.573  18.621  0.00  0.00    +0.000 A 
ATOM      3  C   UNL     1       1.765   3.253  19.086  0.00  0.00    +0.000 A 
ATOM      4  C   UNL     1       2.941   2.678  19.568  0.00  0.00    +0.000 A 
ATOM      5  C   UNL     1       4.103   3.448  19.636  0.00  0.00    +0.000 A 
ATOM      6  C   UNL     1       4.096   4.801  19.257  0.00  0.00    +0.000 A 
ENDROOT
BRANCH   1  11
ATOM      7  N   UNL     1       0.890   8.855  20.245  0.00  0.00    +0.000 N 
ATOM      8  C   UNL     1       1.724   7.763  20.119  0.00  0.00    +0.000 C 
ATOM      9  O   UNL     1       1.803   6.861  20.938  0.00  0.00    +0.000 OA
ATOM     10  C   UNL     1       2.367   7.765  18.778  0.00  0.00    +0.000 C 
ATOM     11  C   UNL     1       2.876   6.708  18.129  0.00  0.00    +0.000 C 
ATOM     12  S   UNL     1       2.162   9.313  18.054  0.00  0.00    +0.000 S 
ATOM     13  C   UNL     1       0.923   9.776  19.217  0.00  0.00    +0.000 C 
ATOM     14  S   UNL     1      -0.042  11.115  19.004  0.00  0.00    +0.000 S 
BRANCH   7  15
ATOM     15  C   UNL     1      -0.011   8.937  21.399  0.00  0.00    +0.000 C 
BRANCH  15  17
ATOM     16  O   UNL     1       0.086   9.961  23.585  0.00  0.00    +0.000 OA
ATOM     17  C   UNL     1       0.690   9.439  22.659  0.00  0.00    +0.000 C 
BRANCH  17  18
ATOM     18  O   UNL     1       2.041   9.380  22.653  0.00  0.00    +0.000 OA
ATOM     19  H   UNL     1       2.430   8.649  22.137  0.00  0.00    +0.000 HD
ENDBRANCH  17  18
ENDBRANCH  15  17
ENDBRANCH   7  15
ENDBRANCH   1  11
BRANCH   3  20
ATOM     20  N   UNL     1       0.528   2.467  19.084  0.00  0.00    +0.000 N 
ATOM     21  O   UNL     1      -0.181   2.507  20.101  0.00  0.00    +0.000 OA
ATOM     22  O   UNL     1       0.276   1.791  18.077  0.00  0.00    +0.000 OA
ENDBRANCH   3  20
BRANCH   6  23
ATOM     23  O   UNL     1       5.189   5.629  19.440  0.00  0.00    +0.000 OA
BRANCH  23  24
ATOM     24  C   UNL     1       6.412   5.088  18.892  0.00  0.00    +0.000 C 
BRANCH  24  25
ATOM     25  C   UNL     1       6.466   4.966  17.386  0.00  0.00    +0.000 A 
ATOM     26  C   UNL     1       5.992   3.836  16.710  0.00  0.00    +0.000 A 
ATOM     27  C   UNL     1       6.008   3.789  15.310  0.00  0.00    +0.000 A 
ATOM     28  C   UNL     1       6.494   4.867  14.570  0.00  0.00    +0.000 A 
ATOM     29  C   UNL     1       6.992   5.987  15.226  0.00  0.00    +0.000 A 
ATOM     30  C   UNL     1       6.988   6.033  16.622  0.00  0.00    +0.000 A 
ATOM     31 CL   UNL     1       7.646   7.451  17.369  0.00  0.00    +0.000 Cl
ENDBRANCH  24  25
ENDBRANCH  23  24
ENDBRANCH   6  23
TORSDOF 8
ENDMDL
MODEL 2
REMARK VINA RESULT:      -7.5      1.041      1.417
REMARK  Name = 
REMARK  8 active torsions:
REMARK  status: ('A' for Active; 'I' for Inactive)
REMARK    1  A    between atoms: C_2  and  O_3
REMARK    2  A    between atoms: C_2  and  C_4
REMARK    3  A    between atoms: C_4  and  N_5
REMARK    4  A    between atoms: C_9  and  C_10
REMARK    5  A    between atoms: C_12  and  N_13
REMARK    6  A    between atoms: C_18  and  O_19
REMARK    7  A    between atoms: O_19  and  C_20
REMARK    8  A    between atoms: C_20  and  C_21
REMARK                            x       y       z     vdW  Elec       q    Type
REMARK                         _______ _______ _______ _____ _____    ______ ____
ROOT
ATOM      1  C   UNL     1       2.913   5.938  18.615  0.00  0.00    +0.000 A 
ATOM      2  C   UNL     1       1.851   5.035  18.785  0.00  0.00    +0.000 A 
ATOM      3  C   UNL     1       2.111   3.715  19.171  0.00  0.00    +0.000 A 
ATOM      4  C   UNL     1       3.422   3.269  19.338  0.00  0.00    +0.000 A 
ATOM      5  C   UNL     1       4.477   4.166  19.170  0.00  0.00    +0.000 A 
ATOM      6  C   UNL     1       4.237   5.517  18.868  0.00  0.00    +0.000 A 
ENDROOT
BRANCH   1  11
ATOM      7  N   UNL     1       0.478   8.967  20.554  0.00  0.00    +0.000 N 
ATOM      8  C   UNL     1       1.466   8.041  20.290  0.00  0.00    +0.000 C 
ATOM      9  O   UNL     1       1.769   7.127  21.041  0.00  0.00    +0.000 OA
ATOM     10  C   UNL     1       1.973   8.216  18.903  0.00  0.00    +0.000 C 
ATOM     11  C   UNL     1       2.587   7.294  18.149  0.00  0.00    +0.000 C 
ATOM     12  S   UNL     1       1.449   9.740  18.298  0.00  0.00    +0.000 S 
ATOM     13  C   UNL     1       0.263   9.928  19.586  0.00  0.00    +0.000 C 
ATOM     14  S   UNL     1      -0.926  11.092  19.539  0.00  0.00    +0.000 S 
BRANCH   7  15
ATOM     15  C   UNL     1      -0.313   8.838  21.781  0.00  0.00    +0.000 C 
BRANCH  15  17
ATOM     16  O   UNL     1       1.243   9.580  23.474  0.00  0.00    +0.000 OA
ATOM     17  C   UNL     1       0.179   9.756  22.898  0.00  0.00    +0.000 C 
BRANCH  17  18
ATOM     18  O   UNL     1      -0.681  10.719  23.300  0.00  0.00    +0.000 OA
ATOM     19  H   UNL     1      -0.272  11.546  23.615  0.00  0.00    +0.000 HD
ENDBRANCH  17  18
ENDBRANCH  15  17
ENDBRANCH   7  15
ENDBRANCH   1  11
BRANCH   3  20
ATOM     20  N   UNL     1       0.999   2.792  19.419  0.00  0.00    +0.000 N 
ATOM     21  O   UNL     1       0.394   2.342  18.433  0.00  0.00    +0.000 OA
ATOM     22  O   UNL     1       0.714   2.535  20.595  0.00  0.00    +0.000 OA
ENDBRANCH   3  20
BRANCH   6  23
ATOM     23  O   UNL     1       5.247   6.461  18.832  0.00  0.00    +0.000 OA
BRANCH  23  24
ATOM     24  C   UNL     1       5.533   6.938  17.498  0.00  0.00    +0.000 C 
BRANCH  24  25
ATOM     25  C   UNL     1       5.811   5.874  16.460  0.00  0.00    +0.000 A 
ATOM     26  C   UNL     1       5.055   5.759  15.288  0.00  0.00    +0.000 A 
ATOM     27  C   UNL     1       5.384   4.796  14.325  0.00  0.00    +0.000 A 
ATOM     28  C   UNL     1       6.468   3.940  14.519  0.00  0.00    +0.000 A 
ATOM     29  C   UNL     1       7.214   4.025  15.690  0.00  0.00    +0.000 A 
ATOM     30  C   UNL     1       6.882   4.976  16.657  0.00  0.00    +0.000 A 
ATOM     31 CL   UNL     1       7.841   5.005  18.100  0.00  0.00    +0.000 Cl
ENDBRANCH  24  25
ENDBRANCH  23  24
ENDBRANCH   6  23
TORSDOF 8
ENDMDL
MODEL 3
REMARK VINA RESULT:      -7.5      3.033      5.468
REMARK  Name = 
REMARK  8 active torsions:
REMARK  status: ('A' for Active; 'I' for Inactive)
REMARK    1  A    between atoms: C_2  and  O_3
REMARK    2  A    between atoms: C_2  and  C_4
REMARK    3  A    between atoms: C_4  and  N_5
REMARK    4  A    between atoms: C_9  and  C_10
REMARK    5  A    between atoms: C_12  and  N_13
REMARK    6  A    between atoms: C_18  and  O_19
REMARK    7  A    between atoms: O_19  and  C_20
REMARK    8  A    between atoms: C_20  and  C_21
REMARK                            x       y       z     vdW  Elec       q    Type
REMARK                         _______ _______ _______ _____ _____    ______ ____
ROOT
ATOM      1  C   UNL     1       4.271   5.741  18.425  0.00  0.00    +0.000 A 
ATOM      2  C   UNL     1       5.465   6.466  18.569  0.00  0.00    +0.000 A 
ATOM      3  C   UNL     1       6.478   6.344  17.610  0.00  0.00    +0.000 A 
ATOM      4  C   UNL     1       6.337   5.465  16.536  0.00  0.00    +0.000 A 
ATOM      5  C   UNL     1       5.150   4.744  16.393  0.00  0.00    +0.000 A 
ATOM      6  C   UNL     1       4.086   4.917  17.294  0.00  0.00    +0.000 A 
ENDROOT
BRANCH   1  11
ATOM      7  N   UNL     1       1.542   9.021  19.235  0.00  0.00    +0.000 N 
ATOM      8  C   UNL     1       2.208   7.984  18.616  0.00  0.00    +0.000 C 
ATOM      9  O   UNL     1       2.726   8.062  17.512  0.00  0.00    +0.000 OA
ATOM     10  C   UNL     1       2.351   6.837  19.552  0.00  0.00    +0.000 C 
ATOM     11  C   UNL     1       3.267   5.860  19.493  0.00  0.00    +0.000 C 
ATOM     12  S   UNL     1       1.291   7.063  20.889  0.00  0.00    +0.000 S 
ATOM     13  C   UNL     1       1.026   8.757  20.489  0.00  0.00    +0.000 C 
ATOM     14  S   UNL     1       0.294   9.817  21.543  0.00  0.00    +0.000 S 
BRANCH   7  15
ATOM     15  C   UNL     1       1.481  10.328  18.575  0.00  0.00    +0.000 C 
BRANCH  15  17
ATOM     16  O   UNL     1      -0.754   9.901  17.764  0.00  0.00    +0.000 OA
ATOM     17  C   UNL     1       0.062  10.717  18.167  0.00  0.00    +0.000 C 
BRANCH  17  18
ATOM     18  O   UNL     1      -0.216  12.040  18.168  0.00  0.00    +0.000 OA
ATOM     19  H   UNL     1       0.553  12.634  18.093  0.00  0.00    +0.000 HD
ENDBRANCH  17  18
ENDBRANCH  15  17
ENDBRANCH   7  15
ENDBRANCH   1  11
BRANCH   3  20
ATOM     20  N   UNL     1       7.693   7.155  17.722  0.00  0.00    +0.000 N 
ATOM     21  O   UNL     1       8.393   7.007  18.736  0.00  0.00    +0.000 OA
ATOM     22  O   UNL     1       7.938   7.956  16.810  0.00  0.00    +0.000 OA
ENDBRANCH   3  20
BRANCH   6  23
ATOM     23  O   UNL     1       2.849   4.326  17.104  0.00  0.00    +0.000 OA
BRANCH  23  24
ATOM     24  C   UNL     1       2.762   2.996  17.660  0.00  0.00    +0.000 C 
BRANCH  24  25
ATOM     25  C   UNL     1       2.280   2.907  19.091  0.00  0.00    +0.000 A 
ATOM     26  C   UNL     1       0.947   3.142  19.446  0.00  0.00    +0.000 A 
ATOM     27  C   UNL     1       0.531   2.991  20.775  0.00  0.00    +0.000 A 
ATOM     28  C   UNL     1       1.438   2.605  21.763  0.00  0.00    +0.000 A 
ATOM     29  C   UNL     1       2.771   2.393  21.431  0.00  0.00    +0.000 A 
ATOM     30  C   UNL     1       3.192   2.553  20.109  0.00  0.00    +0.000 A 
ATOM     31 CL   UNL     1       4.872   2.295  19.776  0.00  0.00    +0.000 Cl
ENDBRANCH  24  25
ENDBRANCH  23  24
ENDBRANCH   6  23
TORSDOF 8
ENDMDL
MODEL 4
REMARK VINA RESULT:      -7.3      3.536      6.761
REMARK  Name = 
REMARK  8 active torsions:
REMARK  status: ('A' for Active; 'I' for Inactive)
REMARK    1  A    between atoms: C_2  and  O_3
REMARK    2  A    between atoms: C_2  and  C_4
REMARK    3  A    between atoms: C_4  and  N_5
REMARK    4  A    between atoms: C_9  and  C_10
REMARK    5  A    between atoms: C_12  and  N_13
REMARK    6  A    between atoms: C_18  and  O_19
REMARK    7  A    between atoms: O_19  and  C_20
REMARK    8  A    between atoms: C_20  and  C_21
REMARK                            x       y       z     vdW  Elec       q    Type
REMARK                         _______ _______ _______ _____ _____    ______ ____
ROOT
ATOM      1  C   UNL     1       2.615   4.702  18.714  0.00  0.00    +0.000 A 
ATOM      2  C   UNL     1       2.614   3.590  19.571  0.00  0.00    +0.000 A 
ATOM      3  C   UNL     1       2.260   3.745  20.917  0.00  0.00    +0.000 A 
ATOM      4  C   UNL     1       1.959   5.006  21.431  0.00  0.00    +0.000 A 
ATOM      5  C   UNL     1       1.960   6.111  20.579  0.00  0.00    +0.000 A 
ATOM      6  C   UNL     1       2.226   5.966  19.207  0.00  0.00    +0.000 A 
ENDROOT
BRANCH   1  11
ATOM      7  N   UNL     1       6.659   4.472  17.148  0.00  0.00    +0.000 N 
ATOM      8  C   UNL     1       5.510   4.224  17.870  0.00  0.00    +0.000 C 
ATOM      9  O   UNL     1       5.469   4.135  19.087  0.00  0.00    +0.000 OA
ATOM     10  C   UNL     1       4.326   4.260  16.971  0.00  0.00    +0.000 C 
ATOM     11  C   UNL     1       3.054   4.493  17.326  0.00  0.00    +0.000 C 
ATOM     12  S   UNL     1       4.854   4.181  15.335  0.00  0.00    +0.000 S 
ATOM     13  C   UNL     1       6.519   4.550  15.777  0.00  0.00    +0.000 C 
ATOM     14  S   UNL     1       7.669   4.961  14.647  0.00  0.00    +0.000 S 
BRANCH   7  15
ATOM     15  C   UNL     1       7.918   4.699  17.864  0.00  0.00    +0.000 C 
BRANCH  15  17
ATOM     16  O   UNL     1       7.918   7.053  18.411  0.00  0.00    +0.000 OA
ATOM     17  C   UNL     1       7.850   5.898  18.807  0.00  0.00    +0.000 C 
BRANCH  17  18
ATOM     18  O   UNL     1       7.824   5.615  20.130  0.00  0.00    +0.000 OA
ATOM     19  H   UNL     1       8.181   6.306  20.717  0.00  0.00    +0.000 HD
ENDBRANCH  17  18
ENDBRANCH  15  17
ENDBRANCH   7  15
ENDBRANCH   1  11
BRANCH   3  20
ATOM     20  N   UNL     1       2.188   2.573  21.795  0.00  0.00    +0.000 N 
ATOM     21  O   UNL     1       3.231   1.927  21.979  0.00  0.00    +0.000 OA
ATOM     22  O   UNL     1       1.087   2.283  22.281  0.00  0.00    +0.000 OA
ENDBRANCH   3  20
BRANCH   6  23
ATOM     23  O   UNL     1       2.100   7.013  18.312  0.00  0.00    +0.000 OA
BRANCH  23  24
ATOM     24  C   UNL     1       2.299   8.309  18.919  0.00  0.00    +0.000 C 
BRANCH  24  25
ATOM     25  C   UNL     1       1.078   9.196  19.003  0.00  0.00    +0.000 A 
ATOM     26  C   UNL     1       0.370   9.603  17.866  0.00  0.00    +0.000 A 
ATOM     27  C   UNL     1      -0.790  10.377  17.994  0.00  0.00    +0.000 A 
ATOM     28  C   UNL     1      -1.257  10.753  19.254  0.00  0.00    +0.000 A 
ATOM     29  C   UNL     1      -0.552  10.379  20.392  0.00  0.00    +0.000 A 
ATOM     30  C   UNL     1       0.612   9.617  20.268  0.00  0.00    +0.000 A 
ATOM     31 CL   UNL     1       1.450   9.209  21.728  0.00  0.00    +0.000 Cl
ENDBRANCH  24  25
ENDBRANCH  23  24
ENDBRANCH   6  23
TORSDOF 8
ENDMDL
MODEL 5
REMARK VINA RESULT:      -7.2      3.175      5.283
REMARK  Name = 
REMARK  8 active torsions:
REMARK  status: ('A' for Active; 'I' for Inactive)
REMARK    1  A    between atoms: C_2  and  O_3
REMARK    2  A    between atoms: C_2  and  C_4
REMARK    3  A    between atoms: C_4  and  N_5
REMARK    4  A    between atoms: C_9  and  C_10
REMARK    5  A    between atoms: C_12  and  N_13
REMARK    6  A    between atoms: C_18  and  O_19
REMARK    7  A    between atoms: O_19  and  C_20
REMARK    8  A    between atoms: C_20  and  C_21
REMARK                            x       y       z     vdW  Elec       q    Type
REMARK                         _______ _______ _______ _____ _____    ______ ____
ROOT
ATOM      1  C   UNL     1       3.974   5.829  18.588  0.00  0.00    +0.000 A 
ATOM      2  C   UNL     1       5.254   6.404  18.652  0.00  0.00    +0.000 A 
ATOM      3  C   UNL     1       6.187   6.145  17.642  0.00  0.00    +0.000 A 
ATOM      4  C   UNL     1       5.879   5.277  16.595  0.00  0.00    +0.000 A 
ATOM      5  C   UNL     1       4.607   4.706  16.531  0.00  0.00    +0.000 A 
ATOM      6  C   UNL     1       3.625   5.019  17.485  0.00  0.00    +0.000 A 
ENDROOT
BRANCH   1  11
ATOM      7  N   UNL     1       1.441   9.286  19.289  0.00  0.00    +0.000 N 
ATOM      8  C   UNL     1       2.020   8.171  18.720  0.00  0.00    +0.000 C 
ATOM      9  O   UNL     1       2.460   8.131  17.581  0.00  0.00    +0.000 OA
ATOM     10  C   UNL     1       2.184   7.104  19.741  0.00  0.00    +0.000 C 
ATOM     11  C   UNL     1       3.054   6.085  19.707  0.00  0.00    +0.000 C 
ATOM     12  S   UNL     1       1.232   7.490  21.122  0.00  0.00    +0.000 S 
ATOM     13  C   UNL     1       1.006   9.155  20.593  0.00  0.00    +0.000 C 
ATOM     14  S   UNL     1       0.393  10.332  21.597  0.00  0.00    +0.000 S 
BRANCH   7  15
ATOM     15  C   UNL     1       1.384  10.534  18.521  0.00  0.00    +0.000 C 
BRANCH  15  17
ATOM     16  O   UNL     1      -0.554  11.976  18.507  0.00  0.00    +0.000 OA
ATOM     17  C   UNL     1      -0.041  10.928  18.142  0.00  0.00    +0.000 C 
BRANCH  17  18
ATOM     18  O   UNL     1      -0.756   9.999  17.467  0.00  0.00    +0.000 OA
ATOM     19  H   UNL     1      -1.514   9.618  17.948  0.00  0.00    +0.000 HD
ENDBRANCH  17  18
ENDBRANCH  15  17
ENDBRANCH   7  15
ENDBRANCH   1  11
BRANCH   3  20
ATOM     20  N   UNL     1       7.498   6.802  17.670  0.00  0.00    +0.000 N 
ATOM     21  O   UNL     1       8.125   6.789  18.741  0.00  0.00    +0.000 OA
ATOM     22  O   UNL     1       7.891   7.351  16.633  0.00  0.00    +0.000 OA
ENDBRANCH   3  20
BRANCH   6  23
ATOM     23  O   UNL     1       2.317   4.583  17.375  0.00  0.00    +0.000 OA
BRANCH  23  24
ATOM     24  C   UNL     1       2.162   3.173  17.648  0.00  0.00    +0.000 C 
BRANCH  24  25
ATOM     25  C   UNL     1       2.741   2.684  18.956  0.00  0.00    +0.000 A 
ATOM     26  C   UNL     1       3.974   2.028  19.028  0.00  0.00    +0.000 A 
ATOM     27  C   UNL     1       4.501   1.643  20.268  0.00  0.00    +0.000 A 
ATOM     28  C   UNL     1       3.804   1.909  21.448  0.00  0.00    +0.000 A 
ATOM     29  C   UNL     1       2.565   2.537  21.391  0.00  0.00    +0.000 A 
ATOM     30  C   UNL     1       2.032   2.912  20.156  0.00  0.00    +0.000 A 
ATOM     31 CL   UNL     1       0.473   3.668  20.163  0.00  0.00    +0.000 Cl
ENDBRANCH  24  25
ENDBRANCH  23  24
ENDBRANCH   6  23
TORSDOF 8
ENDMDL
MODEL 6
REMARK VINA RESULT:      -7.1      3.038      5.376
REMARK  Name = 
REMARK  8 active torsions:
REMARK  status: ('A' for Active; 'I' for Inactive)
REMARK    1  A    between atoms: C_2  and  O_3
REMARK    2  A    between atoms: C_2  and  C_4
REMARK    3  A    between atoms: C_4  and  N_5
REMARK    4  A    between atoms: C_9  and  C_10
REMARK    5  A    between atoms: C_12  and  N_13
REMARK    6  A    between atoms: C_18  and  O_19
REMARK    7  A    between atoms: O_19  and  C_20
REMARK    8  A    between atoms: C_20  and  C_21
REMARK                            x       y       z     vdW  Elec       q    Type
REMARK                         _______ _______ _______ _____ _____    ______ ____
ROOT
ATOM      1  C   UNL     1       3.679   6.178  18.670  0.00  0.00    +0.000 A 
ATOM      2  C   UNL     1       5.020   6.594  18.643  0.00  0.00    +0.000 A 
ATOM      3  C   UNL     1       5.847   6.219  17.578  0.00  0.00    +0.000 A 
ATOM      4  C   UNL     1       5.368   5.389  16.564  0.00  0.00    +0.000 A 
ATOM      5  C   UNL     1       4.034   4.977  16.590  0.00  0.00    +0.000 A 
ATOM      6  C   UNL     1       3.163   5.412  17.602  0.00  0.00    +0.000 A 
ENDROOT
BRANCH   1  11
ATOM      7  N   UNL     1       1.116   9.640  19.222  0.00  0.00    +0.000 N 
ATOM      8  C   UNL     1       1.670   8.476  18.731  0.00  0.00    +0.000 C 
ATOM      9  O   UNL     1       1.990   8.307  17.564  0.00  0.00    +0.000 OA
ATOM     10  C   UNL     1       1.977   7.546  19.849  0.00  0.00    +0.000 C 
ATOM     11  C   UNL     1       2.873   6.549  19.843  0.00  0.00    +0.000 C 
ATOM     12  S   UNL     1       1.161   8.078  21.268  0.00  0.00    +0.000 S 
ATOM     13  C   UNL     1       0.825   9.660  20.572  0.00  0.00    +0.000 C 
ATOM     14  S   UNL     1       0.279  10.938  21.487  0.00  0.00    +0.000 S 
BRANCH   7  15
ATOM     15  C   UNL     1       0.936  10.783  18.321  0.00  0.00    +0.000 C 
BRANCH  15  17
ATOM     16  O   UNL     1       2.375  12.589  19.033  0.00  0.00    +0.000 OA
ATOM     17  C   UNL     1       2.174  11.674  18.247  0.00  0.00    +0.000 C 
BRANCH  17  18
ATOM     18  O   UNL     1       2.991  11.471  17.189  0.00  0.00    +0.000 OA
ATOM     19  H   UNL     1       3.464  10.619  17.177  0.00  0.00    +0.000 HD
ENDBRANCH  17  18
ENDBRANCH  15  17
ENDBRANCH   7  15
ENDBRANCH   1  11
BRANCH   3  20
ATOM     20  N   UNL     1       7.226   6.711  17.513  0.00  0.00    +0.000 N 
ATOM     21  O   UNL     1       7.744   6.826  16.391  0.00  0.00    +0.000 OA
ATOM     22  O   UNL     1       7.802   6.959  18.580  0.00  0.00    +0.000 OA
ENDBRANCH   3  20
BRANCH   6  23
ATOM     23  O   UNL     1       1.807   5.137  17.583  0.00  0.00    +0.000 OA
BRANCH  23  24
ATOM     24  C   UNL     1       1.501   3.757  17.879  0.00  0.00    +0.000 C 
BRANCH  24  25
ATOM     25  C   UNL     1       1.812   3.296  19.285  0.00  0.00    +0.000 A 
ATOM     26  C   UNL     1       1.012   3.643  20.379  0.00  0.00    +0.000 A 
ATOM     27  C   UNL     1       1.304   3.146  21.656  0.00  0.00    +0.000 A 
ATOM     28  C   UNL     1       2.394   2.299  21.855  0.00  0.00    +0.000 A 
ATOM     29  C   UNL     1       3.215   1.965  20.783  0.00  0.00    +0.000 A 
ATOM     30  C   UNL     1       2.933   2.468  19.511  0.00  0.00    +0.000 A 
ATOM     31 CL   UNL     1       4.014   2.028  18.230  0.00  0.00    +0.000 Cl
ENDBRANCH  24  25
ENDBRANCH  23  24
ENDBRANCH   6  23
TORSDOF 8
ENDMDL
MODEL 7
REMARK VINA RESULT:      -7.1      3.197      5.297
REMARK  Name = 
REMARK  8 active torsions:
REMARK  status: ('A' for Active; 'I' for Inactive)
REMARK    1  A    between atoms: C_2  and  O_3
REMARK    2  A    between atoms: C_2  and  C_4
REMARK    3  A    between atoms: C_4  and  N_5
REMARK    4  A    between atoms: C_9  and  C_10
REMARK    5  A    between atoms: C_12  and  N_13
REMARK    6  A    between atoms: C_18  and  O_19
REMARK    7  A    between atoms: O_19  and  C_20
REMARK    8  A    between atoms: C_20  and  C_21
REMARK                            x       y       z     vdW  Elec       q    Type
REMARK                         _______ _______ _______ _____ _____    ______ ____
ROOT
ATOM      1  C   UNL     1       3.706   6.238  18.493  0.00  0.00    +0.000 A 
ATOM      2  C   UNL     1       4.956   6.864  18.360  0.00  0.00    +0.000 A 
ATOM      3  C   UNL     1       5.773   6.569  17.263  0.00  0.00    +0.000 A 
ATOM      4  C   UNL     1       5.383   5.614  16.323  0.00  0.00    +0.000 A 
ATOM      5  C   UNL     1       4.140   4.991  16.455  0.00  0.00    +0.000 A 
ATOM      6  C   UNL     1       3.266   5.336  17.499  0.00  0.00    +0.000 A 
ENDROOT
BRANCH   1  11
ATOM      7  N   UNL     1       1.071   9.608  19.241  0.00  0.00    +0.000 N 
ATOM      8  C   UNL     1       1.643   8.480  18.690  0.00  0.00    +0.000 C 
ATOM      9  O   UNL     1       1.942   8.367  17.511  0.00  0.00    +0.000 OA
ATOM     10  C   UNL     1       1.996   7.512  19.762  0.00  0.00    +0.000 C 
ATOM     11  C   UNL     1       2.916   6.539  19.696  0.00  0.00    +0.000 C 
ATOM     12  S   UNL     1       1.197   7.964  21.218  0.00  0.00    +0.000 S 
ATOM     13  C   UNL     1       0.808   9.565  20.595  0.00  0.00    +0.000 C 
ATOM     14  S   UNL     1       0.251  10.790  21.575  0.00  0.00    +0.000 S 
BRANCH   7  15
ATOM     15  C   UNL     1       0.845  10.782  18.392  0.00  0.00    +0.000 C 
BRANCH  15  17
ATOM     16  O   UNL     1       2.298  12.576  19.104  0.00  0.00    +0.000 OA
ATOM     17  C   UNL     1       2.073  11.685  18.297  0.00  0.00    +0.000 C 
BRANCH  17  18
ATOM     18  O   UNL     1       2.849  11.523  17.202  0.00  0.00    +0.000 OA
ATOM     19  H   UNL     1       3.141  12.344  16.766  0.00  0.00    +0.000 HD
ENDBRANCH  17  18
ENDBRANCH  15  17
ENDBRANCH   7  15
ENDBRANCH   1  11
BRANCH   3  20
ATOM     20  N   UNL     1       7.044   7.275  17.085  0.00  0.00    +0.000 N 
ATOM     21  O   UNL     1       7.888   6.762  16.334  0.00  0.00    +0.000 OA
ATOM     22  O   UNL     1       7.212   8.329  17.713  0.00  0.00    +0.000 OA
ENDBRANCH   3  20
BRANCH   6  23
ATOM     23  O   UNL     1       1.976   4.843  17.581  0.00  0.00    +0.000 OA
BRANCH  23  24
ATOM     24  C   UNL     1       1.924   3.408  17.743  0.00  0.00    +0.000 C 
BRANCH  24  25
ATOM     25  C   UNL     1       2.641   2.852  18.953  0.00  0.00    +0.000 A 
ATOM     26  C   UNL     1       3.843   2.144  18.849  0.00  0.00    +0.000 A 
ATOM     27  C   UNL     1       4.504   1.697  20.000  0.00  0.00    +0.000 A 
ATOM     28  C   UNL     1       3.974   1.951  21.266  0.00  0.00    +0.000 A 
ATOM     29  C   UNL     1       2.767   2.630  21.385  0.00  0.00    +0.000 A 
ATOM     30  C   UNL     1       2.100   3.068  20.239  0.00  0.00    +0.000 A 
ATOM     31 CL   UNL     1       0.589   3.886  20.466  0.00  0.00    +0.000 Cl
ENDBRANCH  24  25
ENDBRANCH  23  24
ENDBRANCH   6  23
TORSDOF 8
ENDMDL
MODEL 8
REMARK VINA RESULT:      -7.0      1.579      2.123
REMARK  Name = 
REMARK  8 active torsions:
REMARK  status: ('A' for Active; 'I' for Inactive)
REMARK    1  A    between atoms: C_2  and  O_3
REMARK    2  A    between atoms: C_2  and  C_4
REMARK    3  A    between atoms: C_4  and  N_5
REMARK    4  A    between atoms: C_9  and  C_10
REMARK    5  A    between atoms: C_12  and  N_13
REMARK    6  A    between atoms: C_18  and  O_19
REMARK    7  A    between atoms: O_19  and  C_20
REMARK    8  A    between atoms: C_20  and  C_21
REMARK                            x       y       z     vdW  Elec       q    Type
REMARK                         _______ _______ _______ _____ _____    ______ ____
ROOT
ATOM      1  C   UNL     1       2.986   4.787  18.205  0.00  0.00    +0.000 A 
ATOM      2  C   UNL     1       2.463   4.460  19.467  0.00  0.00    +0.000 A 
ATOM      3  C   UNL     1       2.483   3.133  19.910  0.00  0.00    +0.000 A 
ATOM      4  C   UNL     1       2.970   2.117  19.087  0.00  0.00    +0.000 A 
ATOM      5  C   UNL     1       3.490   2.441  17.833  0.00  0.00    +0.000 A 
ATOM      6  C   UNL     1       3.560   3.776  17.403  0.00  0.00    +0.000 A 
ENDROOT
BRANCH   1  11
ATOM      7  N   UNL     1       1.271   8.177  20.308  0.00  0.00    +0.000 N 
ATOM      8  C   UNL     1       2.055   7.092  19.977  0.00  0.00    +0.000 C 
ATOM      9  O   UNL     1       2.235   6.127  20.704  0.00  0.00    +0.000 OA
ATOM     10  C   UNL     1       2.495   7.193  18.561  0.00  0.00    +0.000 C 
ATOM     11  C   UNL     1       2.882   6.186  17.765  0.00  0.00    +0.000 C 
ATOM     12  S   UNL     1       2.219   8.795  17.995  0.00  0.00    +0.000 S 
ATOM     13  C   UNL     1       1.172   9.176  19.360  0.00  0.00    +0.000 C 
ATOM     14  S   UNL     1       0.214  10.536  19.394  0.00  0.00    +0.000 S 
BRANCH   7  15
ATOM     15  C   UNL     1       0.550   8.176  21.585  0.00  0.00    +0.000 C 
BRANCH  15  17
ATOM     16  O   UNL     1       0.389   9.978  23.186  0.00  0.00    +0.000 OA
ATOM     17  C   UNL     1       1.104   9.197  22.575  0.00  0.00    +0.000 C 
BRANCH  17  18
ATOM     18  O   UNL     1       2.452   9.274  22.661  0.00  0.00    +0.000 OA
ATOM     19  H   UNL     1       2.910   9.583  21.857  0.00  0.00    +0.000 HD
ENDBRANCH  17  18
ENDBRANCH  15  17
ENDBRANCH   7  15
ENDBRANCH   1  11
BRANCH   3  20
ATOM     20  N   UNL     1       2.005   2.802  21.255  0.00  0.00    +0.000 N 
ATOM     21  O   UNL     1       2.854   2.531  22.118  0.00  0.00    +0.000 OA
ATOM     22  O   UNL     1       0.781   2.788  21.445  0.00  0.00    +0.000 OA
ENDBRANCH   3  20
BRANCH   6  23
ATOM     23  O   UNL     1       4.194   4.146  16.230  0.00  0.00    +0.000 OA
BRANCH  23  24
ATOM     24  C   UNL     1       5.627   3.969  16.277  0.00  0.00    +0.000 C 
BRANCH  24  25
ATOM     25  C   UNL     1       6.398   5.008  17.059  0.00  0.00    +0.000 A 
ATOM     26  C   UNL     1       7.206   4.673  18.151  0.00  0.00    +0.000 A 
ATOM     27  C   UNL     1       7.949   5.660  18.812  0.00  0.00    +0.000 A 
ATOM     28  C   UNL     1       7.895   6.989  18.391  0.00  0.00    +0.000 A 
ATOM     29  C   UNL     1       7.077   7.343  17.324  0.00  0.00    +0.000 A 
ATOM     30  C   UNL     1       6.326   6.363  16.670  0.00  0.00    +0.000 A 
ATOM     31 CL   UNL     1       5.312   6.883  15.365  0.00  0.00    +0.000 Cl
ENDBRANCH  24  25
ENDBRANCH  23  24
ENDBRANCH   6  23
TORSDOF 8
ENDMDL
MODEL 9
REMARK VINA RESULT:      -6.6      4.844      7.395
REMARK  Name = 
REMARK  8 active torsions:
REMARK  status: ('A' for Active; 'I' for Inactive)
REMARK    1  A    between atoms: C_2  and  O_3
REMARK    2  A    between atoms: C_2  and  C_4
REMARK    3  A    between atoms: C_4  and  N_5
REMARK    4  A    between atoms: C_9  and  C_10
REMARK    5  A    between atoms: C_12  and  N_13
REMARK    6  A    between atoms: C_18  and  O_19
REMARK    7  A    between atoms: O_19  and  C_20
REMARK    8  A    between atoms: C_20  and  C_21
REMARK                            x       y       z     vdW  Elec       q    Type
REMARK                         _______ _______ _______ _____ _____    ______ ____
ROOT
ATOM      1  C   UNL     1      -1.172  11.487  19.570  0.00  0.00    +0.000 A 
ATOM      2  C   UNL     1      -2.490  11.674  19.123  0.00  0.00    +0.000 A 
ATOM      3  C   UNL     1      -2.957  10.965  18.010  0.00  0.00    +0.000 A 
ATOM      4  C   UNL     1      -2.110  10.111  17.304  0.00  0.00    +0.000 A 
ATOM      5  C   UNL     1      -0.800   9.926  17.749  0.00  0.00    +0.000 A 
ATOM      6  C   UNL     1      -0.335  10.559  18.914  0.00  0.00    +0.000 A 
ENDROOT
BRANCH   1  11
ATOM      7  N   UNL     1       1.335  15.033  19.534  0.00  0.00    +0.000 N 
ATOM      8  C   UNL     1       0.303  14.147  19.305  0.00  0.00    +0.000 C 
ATOM      9  O   UNL     1      -0.119  13.856  18.196  0.00  0.00    +0.000 OA
ATOM     10  C   UNL     1      -0.089  13.481  20.575  0.00  0.00    +0.000 C 
ATOM     11  C   UNL     1      -0.715  12.303  20.705  0.00  0.00    +0.000 C 
ATOM     12  S   UNL     1       0.587  14.347  21.900  0.00  0.00    +0.000 S 
ATOM     13  C   UNL     1       1.689  15.237  20.853  0.00  0.00    +0.000 C 
ATOM     14  S   UNL     1       2.960  16.129  21.451  0.00  0.00    +0.000 S 
BRANCH   7  15
ATOM     15  C   UNL     1       2.025  15.638  18.391  0.00  0.00    +0.000 C 
BRANCH  15  17
ATOM     16  O   UNL     1       4.276  15.314  17.576  0.00  0.00    +0.000 OA
ATOM     17  C   UNL     1       3.215  14.809  17.914  0.00  0.00    +0.000 C 
BRANCH  17  18
ATOM     18  O   UNL     1       2.999  13.481  17.777  0.00  0.00    +0.000 OA
ATOM     19  H   UNL     1       2.734  13.186  16.886  0.00  0.00    +0.000 HD
ENDBRANCH  17  18
ENDBRANCH  15  17
ENDBRANCH   7  15
ENDBRANCH   1  11
BRANCH   3  20
ATOM     20  N   UNL     1      -4.353  11.104  17.586  0.00  0.00    +0.000 N 
ATOM     21  O   UNL     1      -4.590  11.846  16.620  0.00  0.00    +0.000 OA
ATOM     22  O   UNL     1      -5.216  10.495  18.232  0.00  0.00    +0.000 OA
ENDBRANCH   3  20
BRANCH   6  23
ATOM     23  O   UNL     1       0.908  10.290  19.459  0.00  0.00    +0.000 OA
BRANCH  23  24
ATOM     24  C   UNL     1       1.043   8.929  19.923  0.00  0.00    +0.000 C 
BRANCH  24  25
ATOM     25  C   UNL     1       1.997   8.054  19.141  0.00  0.00    +0.000 A 
ATOM     26  C   UNL     1       2.626   8.494  17.971  0.00  0.00    +0.000 A 
ATOM     27  C   UNL     1       3.547   7.672  17.310  0.00  0.00    +0.000 A 
ATOM     28  C   UNL     1       3.851   6.404  17.807  0.00  0.00    +0.000 A 
ATOM     29  C   UNL     1       3.215   5.941  18.953  0.00  0.00    +0.000 A 
ATOM     30  C   UNL     1       2.288   6.754  19.609  0.00  0.00    +0.000 A 
ATOM     31 CL   UNL     1       1.519   6.100  21.017  0.00  0.00    +0.000 Cl
ENDBRANCH  24  25
ENDBRANCH  23  24
ENDBRANCH   6  23
TORSDOF 8
ENDMDL
