MODEL 1
REMARK VINA RESULT:      -8.1      0.000      0.000
REMARK  Name = 
REMARK  3 active torsions:
REMARK  status: ('A' for Active; 'I' for Inactive)
REMARK    1  A    between atoms: C_1  and  N_2
REMARK    2  A    between atoms: CA_11  and  C_12
REMARK    3  A    between atoms: C_15  and  C_16
REMARK                            x       y       z     vdW  Elec       q    Type
REMARK                         _______ _______ _______ _____ _____    ______ ____
ROOT
ATOM      1  C   UNL     1       3.554   7.636  17.349  0.00  0.00    +0.000 C 
ATOM      2  N   UNL     1       2.928   7.216  18.587  0.00  0.00    +0.000 N 
ATOM      3  C   UNL     1       2.065   8.056  19.273  0.00  0.00    +0.000 A 
ATOM      4  C   UNL     1       1.709   9.400  19.053  0.00  0.00    +0.000 A 
ATOM      5  C   UNL     1       0.754   9.981  19.892  0.00  0.00    +0.000 A 
ATOM      6  C   UNL     1       0.171   9.251  20.920  0.00  0.00    +0.000 A 
ATOM      7  C   UNL     1       0.539   7.918  21.139  0.00  0.00    +0.000 A 
ATOM      8  C   UNL     1       1.506   7.312  20.305  0.00  0.00    +0.000 A 
ATOM      9  C   UNL     1       2.100   6.015  20.265  0.00  0.00    +0.000 A 
ATOM     10  C   UNL     1       1.895   4.878  21.060  0.00  0.00    +0.000 A 
ATOM     11  CA  UNL     1       2.646   3.765  20.746  0.00  0.00    +0.000 A 
ATOM     12  N   UNL     1       3.564   3.710  19.762  0.00  0.00    +0.000 NA
ATOM     13  C   UNL     1       3.811   4.806  18.982  0.00  0.00    +0.000 A 
ATOM     14  C   UNL     1       3.038   5.979  19.214  0.00  0.00    +0.000 A 
ENDROOT
BRANCH  13  15
ATOM     15  C   UNL     1       4.853   4.614  17.958  0.00  0.00    +0.000 A 
ATOM     16  C   UNL     1       4.518   4.205  16.654  0.00  0.00    +0.000 A 
ATOM     17  C   UNL     1       5.485   4.092  15.649  0.00  0.00    +0.000 A 
ATOM     18  C   UNL     1       6.809   4.411  15.921  0.00  0.00    +0.000 A 
ATOM     19  C   UNL     1       7.183   4.748  17.216  0.00  0.00    +0.000 A 
ATOM     20  C   UNL     1       6.219   4.786  18.232  0.00  0.00    +0.000 A 
ENDBRANCH  13  15
BRANCH  11  21
ATOM     21  C   UNL     1       2.466   2.515  21.517  0.00  0.00    +0.000 C 
ATOM     22  O   UNL     1       1.575   2.365  22.348  0.00  0.00    +0.000 OA
ENDBRANCH  11  21
TORSDOF 2
ENDMDL
MODEL 2
REMARK VINA RESULT:      -8.0      0.198      1.038
REMARK  Name = 
REMARK  3 active torsions:
REMARK  status: ('A' for Active; 'I' for Inactive)
REMARK    1  A    between atoms: C_1  and  N_2
REMARK    2  A    between atoms: CA_11  and  C_12
REMARK    3  A    between atoms: C_15  and  C_16
REMARK                            x       y       z     vdW  Elec       q    Type
REMARK                         _______ _______ _______ _____ _____    ______ ____
ROOT
ATOM      1  C   UNL     1       3.416   7.837  17.424  0.00  0.00    +0.000 C 
ATOM      2  N   UNL     1       2.815   7.373  18.658  0.00  0.00    +0.000 N 
ATOM      3  C   UNL     1       1.938   8.174  19.372  0.00  0.00    +0.000 A 
ATOM      4  C   UNL     1       1.545   9.513  19.186  0.00  0.00    +0.000 A 
ATOM      5  C   UNL     1       0.584  10.049  20.048  0.00  0.00    +0.000 A 
ATOM      6  C   UNL     1       0.031   9.281  21.065  0.00  0.00    +0.000 A 
ATOM      7  C   UNL     1       0.437   7.954  21.250  0.00  0.00    +0.000 A 
ATOM      8  C   UNL     1       1.410   7.393  20.392  0.00  0.00    +0.000 A 
ATOM      9  C   UNL     1       2.037   6.113  20.317  0.00  0.00    +0.000 A 
ATOM     10  C   UNL     1       1.871   4.954  21.088  0.00  0.00    +0.000 A 
ATOM     11  CA  UNL     1       2.647   3.869  20.741  0.00  0.00    +0.000 A 
ATOM     12  N   UNL     1       3.556   3.860  19.746  0.00  0.00    +0.000 NA
ATOM     13  C   UNL     1       3.765   4.979  18.989  0.00  0.00    +0.000 A 
ATOM     14  C   UNL     1       2.964   6.125  19.256  0.00  0.00    +0.000 A 
ENDROOT
BRANCH  13  15
ATOM     15  C   UNL     1       4.801   4.838  17.951  0.00  0.00    +0.000 A 
ATOM     16  C   UNL     1       6.133   5.217  18.203  0.00  0.00    +0.000 A 
ATOM     17  C   UNL     1       7.144   5.018  17.257  0.00  0.00    +0.000 A 
ATOM     18  C   UNL     1       6.849   4.410  16.043  0.00  0.00    +0.000 A 
ATOM     19  C   UNL     1       5.532   4.091  15.737  0.00  0.00    +0.000 A 
ATOM     20  C   UNL     1       4.515   4.363  16.661  0.00  0.00    +0.000 A 
ENDBRANCH  13  15
BRANCH  11  21
ATOM     21  C   UNL     1       2.508   2.597  21.485  0.00  0.00    +0.000 C 
ATOM     22  O   UNL     1       1.588   2.377  22.268  0.00  0.00    +0.000 OA
ENDBRANCH  11  21
TORSDOF 2
ENDMDL
MODEL 3
REMARK VINA RESULT:      -7.2      2.558      6.278
REMARK  Name = 
REMARK  3 active torsions:
REMARK  status: ('A' for Active; 'I' for Inactive)
REMARK    1  A    between atoms: C_1  and  N_2
REMARK    2  A    between atoms: CA_11  and  C_12
REMARK    3  A    between atoms: C_15  and  C_16
REMARK                            x       y       z     vdW  Elec       q    Type
REMARK                         _______ _______ _______ _____ _____    ______ ____
ROOT
ATOM      1  C   UNL     1       3.956   2.658  17.719  0.00  0.00    +0.000 C 
ATOM      2  N   UNL     1       4.230   4.027  17.332  0.00  0.00    +0.000 N 
ATOM      3  C   UNL     1       5.138   4.318  16.326  0.00  0.00    +0.000 A 
ATOM      4  C   UNL     1       6.009   3.489  15.594  0.00  0.00    +0.000 A 
ATOM      5  C   UNL     1       6.783   4.066  14.584  0.00  0.00    +0.000 A 
ATOM      6  C   UNL     1       6.698   5.425  14.309  0.00  0.00    +0.000 A 
ATOM      7  C   UNL     1       5.838   6.244  15.049  0.00  0.00    +0.000 A 
ATOM      8  C   UNL     1       5.049   5.682  16.078  0.00  0.00    +0.000 A 
ATOM      9  C   UNL     1       4.107   6.224  17.005  0.00  0.00    +0.000 A 
ATOM     10  C   UNL     1       3.634   7.530  17.187  0.00  0.00    +0.000 A 
ATOM     11  CA  UNL     1       2.706   7.713  18.191  0.00  0.00    +0.000 A 
ATOM     12  N   UNL     1       2.257   6.741  19.009  0.00  0.00    +0.000 NA
ATOM     13  C   UNL     1       2.715   5.459  18.879  0.00  0.00    +0.000 A 
ATOM     14  C   UNL     1       3.637   5.183  17.831  0.00  0.00    +0.000 A 
ENDROOT
BRANCH  13  15
ATOM     15  C   UNL     1       2.156   4.503  19.851  0.00  0.00    +0.000 A 
ATOM     16  C   UNL     1       1.048   3.701  19.519  0.00  0.00    +0.000 A 
ATOM     17  C   UNL     1       0.553   2.733  20.401  0.00  0.00    +0.000 A 
ATOM     18  C   UNL     1       1.173   2.529  21.627  0.00  0.00    +0.000 A 
ATOM     19  C   UNL     1       2.223   3.353  22.012  0.00  0.00    +0.000 A 
ATOM     20  C   UNL     1       2.664   4.368  21.153  0.00  0.00    +0.000 A 
ENDBRANCH  13  15
BRANCH  11  21
ATOM     21  C   UNL     1       2.133   9.057  18.427  0.00  0.00    +0.000 C 
ATOM     22  O   UNL     1       2.084   9.925  17.559  0.00  0.00    +0.000 OA
ENDBRANCH  11  21
TORSDOF 2
ENDMDL
MODEL 4
REMARK VINA RESULT:      -7.2      1.215      1.360
REMARK  Name = 
REMARK  3 active torsions:
REMARK  status: ('A' for Active; 'I' for Inactive)
REMARK    1  A    between atoms: C_1  and  N_2
REMARK    2  A    between atoms: CA_11  and  C_12
REMARK    3  A    between atoms: C_15  and  C_16
REMARK                            x       y       z     vdW  Elec       q    Type
REMARK                         _______ _______ _______ _____ _____    ______ ____
ROOT
ATOM      1  C   UNL     1       3.647   7.498  16.751  0.00  0.00    +0.000 C 
ATOM      2  N   UNL     1       3.297   6.941  18.042  0.00  0.00    +0.000 N 
ATOM      3  C   UNL     1       2.462   7.623  18.913  0.00  0.00    +0.000 A 
ATOM      4  C   UNL     1       1.906   8.914  18.845  0.00  0.00    +0.000 A 
ATOM      5  C   UNL     1       1.041   9.320  19.864  0.00  0.00    +0.000 A 
ATOM      6  C   UNL     1       0.737   8.471  20.921  0.00  0.00    +0.000 A 
ATOM      7  C   UNL     1       1.303   7.192  20.987  0.00  0.00    +0.000 A 
ATOM      8  C   UNL     1       2.185   6.764  19.969  0.00  0.00    +0.000 A 
ATOM      9  C   UNL     1       2.924   5.562  19.746  0.00  0.00    +0.000 A 
ATOM     10  C   UNL     1       3.002   4.374  20.485  0.00  0.00    +0.000 A 
ATOM     11  CA  UNL     1       3.825   3.390  19.979  0.00  0.00    +0.000 A 
ATOM     12  N   UNL     1       4.564   3.505  18.859  0.00  0.00    +0.000 NA
ATOM     13  C   UNL     1       4.534   4.659  18.125  0.00  0.00    +0.000 A 
ATOM     14  C   UNL     1       3.668   5.703  18.558  0.00  0.00    +0.000 A 
ENDROOT
BRANCH  13  15
ATOM     15  C   UNL     1       5.404   4.658  16.936  0.00  0.00    +0.000 A 
ATOM     16  C   UNL     1       4.950   4.141  15.709  0.00  0.00    +0.000 A 
ATOM     17  C   UNL     1       5.734   4.202  14.552  0.00  0.00    +0.000 A 
ATOM     18  C   UNL     1       6.984   4.806  14.592  0.00  0.00    +0.000 A 
ATOM     19  C   UNL     1       7.489   5.261  15.803  0.00  0.00    +0.000 A 
ATOM     20  C   UNL     1       6.727   5.128  16.970  0.00  0.00    +0.000 A 
ENDBRANCH  13  15
BRANCH  11  21
ATOM     21  C   UNL     1       3.939   2.092  20.683  0.00  0.00    +0.000 C 
ATOM     22  O   UNL     1       4.983   1.699  21.196  0.00  0.00    +0.000 OA
ENDBRANCH  11  21
TORSDOF 2
ENDMDL
MODEL 5
REMARK VINA RESULT:      -7.1      1.264      1.753
REMARK  Name = 
REMARK  3 active torsions:
REMARK  status: ('A' for Active; 'I' for Inactive)
REMARK    1  A    between atoms: C_1  and  N_2
REMARK    2  A    between atoms: CA_11  and  C_12
REMARK    3  A    between atoms: C_15  and  C_16
REMARK                            x       y       z     vdW  Elec       q    Type
REMARK                         _______ _______ _______ _____ _____    ______ ____
ROOT
ATOM      1  C   UNL     1       3.536   7.554  16.780  0.00  0.00    +0.000 C 
ATOM      2  N   UNL     1       3.239   6.952  18.065  0.00  0.00    +0.000 N 
ATOM      3  C   UNL     1       2.419   7.591  18.982  0.00  0.00    +0.000 A 
ATOM      4  C   UNL     1       1.835   8.872  18.969  0.00  0.00    +0.000 A 
ATOM      5  C   UNL     1       0.996   9.230  20.026  0.00  0.00    +0.000 A 
ATOM      6  C   UNL     1       0.743   8.345  21.067  0.00  0.00    +0.000 A 
ATOM      7  C   UNL     1       1.337   7.077  21.078  0.00  0.00    +0.000 A 
ATOM      8  C   UNL     1       2.193   6.696  20.020  0.00  0.00    +0.000 A 
ATOM      9  C   UNL     1       2.949   5.518  19.740  0.00  0.00    +0.000 A 
ATOM     10  C   UNL     1       3.075   4.311  20.441  0.00  0.00    +0.000 A 
ATOM     11  CA  UNL     1       3.901   3.359  19.880  0.00  0.00    +0.000 A 
ATOM     12  N   UNL     1       4.601   3.522  18.741  0.00  0.00    +0.000 NA
ATOM     13  C   UNL     1       4.523   4.696  18.043  0.00  0.00    +0.000 A 
ATOM     14  C   UNL     1       3.651   5.708  18.533  0.00  0.00    +0.000 A 
ENDROOT
BRANCH  13  15
ATOM     15  C   UNL     1       5.355   4.747  16.827  0.00  0.00    +0.000 A 
ATOM     16  C   UNL     1       6.664   5.263  16.870  0.00  0.00    +0.000 A 
ATOM     17  C   UNL     1       7.495   5.248  15.745  0.00  0.00    +0.000 A 
ATOM     18  C   UNL     1       7.042   4.693  14.554  0.00  0.00    +0.000 A 
ATOM     19  C   UNL     1       5.732   4.242  14.462  0.00  0.00    +0.000 A 
ATOM     20  C   UNL     1       4.884   4.329  15.573  0.00  0.00    +0.000 A 
ENDBRANCH  13  15
BRANCH  11  21
ATOM     21  C   UNL     1       4.063   2.044  20.542  0.00  0.00    +0.000 C 
ATOM     22  O   UNL     1       5.093   1.710  21.121  0.00  0.00    +0.000 OA
ENDBRANCH  11  21
TORSDOF 2
ENDMDL
MODEL 6
REMARK VINA RESULT:      -7.1      1.171      5.586
REMARK  Name = 
REMARK  3 active torsions:
REMARK  status: ('A' for Active; 'I' for Inactive)
REMARK    1  A    between atoms: C_1  and  N_2
REMARK    2  A    between atoms: CA_11  and  C_12
REMARK    3  A    between atoms: C_15  and  C_16
REMARK                            x       y       z     vdW  Elec       q    Type
REMARK                         _______ _______ _______ _____ _____    ______ ____
ROOT
ATOM      1  C   UNL     1       3.824   8.283  17.538  0.00  0.00    +0.000 C 
ATOM      2  N   UNL     1       3.774   6.845  17.708  0.00  0.00    +0.000 N 
ATOM      3  C   UNL     1       4.470   6.000  16.859  0.00  0.00    +0.000 A 
ATOM      4  C   UNL     1       5.208   6.262  15.689  0.00  0.00    +0.000 A 
ATOM      5  C   UNL     1       5.859   5.198  15.060  0.00  0.00    +0.000 A 
ATOM      6  C   UNL     1       5.779   3.910  15.575  0.00  0.00    +0.000 A 
ATOM      7  C   UNL     1       5.033   3.655  16.732  0.00  0.00    +0.000 A 
ATOM      8  C   UNL     1       4.363   4.717  17.381  0.00  0.00    +0.000 A 
ATOM      9  C   UNL     1       3.531   4.796  18.539  0.00  0.00    +0.000 A 
ATOM     10  C   UNL     1       3.108   3.813  19.444  0.00  0.00    +0.000 A 
ATOM     11  CA  UNL     1       2.294   4.236  20.474  0.00  0.00    +0.000 A 
ATOM     12  N   UNL     1       1.865   5.501  20.645  0.00  0.00    +0.000 NA
ATOM     13  C   UNL     1       2.235   6.483  19.767  0.00  0.00    +0.000 A 
ATOM     14  C   UNL     1       3.116   6.132  18.706  0.00  0.00    +0.000 A 
ENDROOT
BRANCH  13  15
ATOM     15  C   UNL     1       1.678   7.815  20.061  0.00  0.00    +0.000 A 
ATOM     16  C   UNL     1       1.440   8.222  21.387  0.00  0.00    +0.000 A 
ATOM     17  C   UNL     1       0.985   9.510  21.689  0.00  0.00    +0.000 A 
ATOM     18  C   UNL     1       0.781  10.431  20.669  0.00  0.00    +0.000 A 
ATOM     19  C   UNL     1       0.938  10.037  19.346  0.00  0.00    +0.000 A 
ATOM     20  C   UNL     1       1.322   8.723  19.051  0.00  0.00    +0.000 A 
ENDBRANCH  13  15
BRANCH  11  21
ATOM     21  C   UNL     1       1.831   3.265  21.490  0.00  0.00    +0.000 C 
ATOM     22  O   UNL     1       2.597   2.548  22.129  0.00  0.00    +0.000 OA
ENDBRANCH  11  21
TORSDOF 2
ENDMDL
MODEL 7
REMARK VINA RESULT:      -7.0      1.170      5.536
REMARK  Name = 
REMARK  3 active torsions:
REMARK  status: ('A' for Active; 'I' for Inactive)
REMARK    1  A    between atoms: C_1  and  N_2
REMARK    2  A    between atoms: CA_11  and  C_12
REMARK    3  A    between atoms: C_15  and  C_16
REMARK                            x       y       z     vdW  Elec       q    Type
REMARK                         _______ _______ _______ _____ _____    ______ ____
ROOT
ATOM      1  C   UNL     1       3.864   8.259  17.550  0.00  0.00    +0.000 C 
ATOM      2  N   UNL     1       3.802   6.820  17.714  0.00  0.00    +0.000 N 
ATOM      3  C   UNL     1       4.488   5.972  16.859  0.00  0.00    +0.000 A 
ATOM      4  C   UNL     1       5.228   6.234  15.690  0.00  0.00    +0.000 A 
ATOM      5  C   UNL     1       5.868   5.166  15.056  0.00  0.00    +0.000 A 
ATOM      6  C   UNL     1       5.775   3.876  15.564  0.00  0.00    +0.000 A 
ATOM      7  C   UNL     1       5.028   3.623  16.720  0.00  0.00    +0.000 A 
ATOM      8  C   UNL     1       4.370   4.688  17.375  0.00  0.00    +0.000 A 
ATOM      9  C   UNL     1       3.539   4.770  18.534  0.00  0.00    +0.000 A 
ATOM     10  C   UNL     1       3.108   3.786  19.435  0.00  0.00    +0.000 A 
ATOM     11  CA  UNL     1       2.299   4.211  20.467  0.00  0.00    +0.000 A 
ATOM     12  N   UNL     1       1.882   5.480  20.645  0.00  0.00    +0.000 NA
ATOM     13  C   UNL     1       2.260   6.462  19.772  0.00  0.00    +0.000 A 
ATOM     14  C   UNL     1       3.137   6.109  18.709  0.00  0.00    +0.000 A 
ENDROOT
BRANCH  13  15
ATOM     15  C   UNL     1       1.716   7.799  20.073  0.00  0.00    +0.000 A 
ATOM     16  C   UNL     1       1.406   8.701  19.039  0.00  0.00    +0.000 A 
ATOM     17  C   UNL     1       0.817   9.943  19.301  0.00  0.00    +0.000 A 
ATOM     18  C   UNL     1       0.502  10.300  20.607  0.00  0.00    +0.000 A 
ATOM     19  C   UNL     1       0.863   9.462  21.654  0.00  0.00    +0.000 A 
ATOM     20  C   UNL     1       1.519   8.254  21.387  0.00  0.00    +0.000 A 
ENDBRANCH  13  15
BRANCH  11  21
ATOM     21  C   UNL     1       1.827   3.240  21.479  0.00  0.00    +0.000 C 
ATOM     22  O   UNL     1       2.589   2.553  22.153  0.00  0.00    +0.000 OA
ENDBRANCH  11  21
TORSDOF 2
ENDMDL
MODEL 8
REMARK VINA RESULT:      -6.9      2.553      4.707
REMARK  Name = 
REMARK  3 active torsions:
REMARK  status: ('A' for Active; 'I' for Inactive)
REMARK    1  A    between atoms: C_1  and  N_2
REMARK    2  A    between atoms: CA_11  and  C_12
REMARK    3  A    between atoms: C_15  and  C_16
REMARK                            x       y       z     vdW  Elec       q    Type
REMARK                         _______ _______ _______ _____ _____    ______ ____
ROOT
ATOM      1  C   UNL     1       0.687   7.545  21.181  0.00  0.00    +0.000 C 
ATOM      2  N   UNL     1       1.331   8.060  19.989  0.00  0.00    +0.000 N 
ATOM      3  C   UNL     1       1.192   9.388  19.618  0.00  0.00    +0.000 A 
ATOM      4  C   UNL     1       0.401  10.423  20.152  0.00  0.00    +0.000 A 
ATOM      5  C   UNL     1       0.511  11.699  19.595  0.00  0.00    +0.000 A 
ATOM      6  C   UNL     1       1.379  11.942  18.537  0.00  0.00    +0.000 A 
ATOM      7  C   UNL     1       2.153  10.905  18.004  0.00  0.00    +0.000 A 
ATOM      8  C   UNL     1       2.054   9.605  18.551  0.00  0.00    +0.000 A 
ATOM      9  C   UNL     1       2.674   8.357  18.242  0.00  0.00    +0.000 A 
ATOM     10  C   UNL     1       3.627   8.011  17.274  0.00  0.00    +0.000 A 
ATOM     11  CA  UNL     1       4.023   6.690  17.247  0.00  0.00    +0.000 A 
ATOM     12  N   UNL     1       3.542   5.726  18.055  0.00  0.00    +0.000 NA
ATOM     13  C   UNL     1       2.592   6.020  18.995  0.00  0.00    +0.000 A 
ATOM     14  C   UNL     1       2.170   7.374  19.117  0.00  0.00    +0.000 A 
ENDROOT
BRANCH  13  15
ATOM     15  C   UNL     1       2.140   4.869  19.797  0.00  0.00    +0.000 A 
ATOM     16  C   UNL     1       1.227   3.937  19.269  0.00  0.00    +0.000 A 
ATOM     17  C   UNL     1       0.846   2.797  19.986  0.00  0.00    +0.000 A 
ATOM     18  C   UNL     1       1.391   2.552  21.241  0.00  0.00    +0.000 A 
ATOM     19  C   UNL     1       2.239   3.490  21.817  0.00  0.00    +0.000 A 
ATOM     20  C   UNL     1       2.556   4.663  21.122  0.00  0.00    +0.000 A 
ENDBRANCH  13  15
BRANCH  11  21
ATOM     21  C   UNL     1       5.049   6.250  16.274  0.00  0.00    +0.000 C 
ATOM     22  O   UNL     1       5.213   6.791  15.185  0.00  0.00    +0.000 OA
ENDBRANCH  11  21
TORSDOF 2
ENDMDL
MODEL 9
REMARK VINA RESULT:      -6.9      3.094      6.538
REMARK  Name = 
REMARK  3 active torsions:
REMARK  status: ('A' for Active; 'I' for Inactive)
REMARK    1  A    between atoms: C_1  and  N_2
REMARK    2  A    between atoms: CA_11  and  C_12
REMARK    3  A    between atoms: C_15  and  C_16
REMARK                            x       y       z     vdW  Elec       q    Type
REMARK                         _______ _______ _______ _____ _____    ______ ____
ROOT
ATOM      1  C   UNL     1       3.015   3.726  16.317  0.00  0.00    +0.000 C 
ATOM      2  N   UNL     1       4.435   4.015  16.340  0.00  0.00    +0.000 N 
ATOM      3  C   UNL     1       5.179   4.034  15.171  0.00  0.00    +0.000 A 
ATOM      4  C   UNL     1       4.836   3.701  13.847  0.00  0.00    +0.000 A 
ATOM      5  C   UNL     1       5.797   3.873  12.848  0.00  0.00    +0.000 A 
ATOM      6  C   UNL     1       7.063   4.359  13.153  0.00  0.00    +0.000 A 
ATOM      7  C   UNL     1       7.400   4.676  14.474  0.00  0.00    +0.000 A 
ATOM      8  C   UNL     1       6.444   4.506  15.500  0.00  0.00    +0.000 A 
ATOM      9  C   UNL     1       6.467   4.714  16.913  0.00  0.00    +0.000 A 
ATOM     10  C   UNL     1       7.476   5.188  17.762  0.00  0.00    +0.000 A 
ATOM     11  CA  UNL     1       7.161   5.271  19.102  0.00  0.00    +0.000 A 
ATOM     12  N   UNL     1       5.981   4.908  19.639  0.00  0.00    +0.000 NA
ATOM     13  C   UNL     1       4.981   4.417  18.846  0.00  0.00    +0.000 A 
ATOM     14  C   UNL     1       5.214   4.349  17.444  0.00  0.00    +0.000 A 
ENDROOT
BRANCH  13  15
ATOM     15  C   UNL     1       3.751   4.040  19.565  0.00  0.00    +0.000 A 
ATOM     16  C   UNL     1       2.878   5.023  20.068  0.00  0.00    +0.000 A 
ATOM     17  C   UNL     1       1.669   4.684  20.685  0.00  0.00    +0.000 A 
ATOM     18  C   UNL     1       1.293   3.350  20.790  0.00  0.00    +0.000 A 
ATOM     19  C   UNL     1       2.166   2.356  20.369  0.00  0.00    +0.000 A 
ATOM     20  C   UNL     1       3.407   2.703  19.820  0.00  0.00    +0.000 A 
ENDBRANCH  13  15
BRANCH  11  21
ATOM     21  C   UNL     1       8.162   5.792  20.061  0.00  0.00    +0.000 C 
ATOM     22  O   UNL     1       8.568   5.143  21.022  0.00  0.00    +0.000 OA
ENDBRANCH  11  21
TORSDOF 2
ENDMDL
