MODEL 1
REMARK VINA RESULT:      -7.0      0.000      0.000
REMARK  Name = 
REMARK  4 active torsions:
REMARK  status: ('A' for Active; 'I' for Inactive)
REMARK    1  A    between atoms: C_2  and  C_3
REMARK    2  A    between atoms: C_2  and  C_8
REMARK    3  A    between atoms: C_9  and  O_10
REMARK    4  A    between atoms: C_19  and  O_20
REMARK                            x       y       z     vdW  Elec       q    Type
REMARK                         _______ _______ _______ _____ _____    ______ ____
ROOT
ATOM      1  C   UNL     1       5.658   5.250  17.250  0.00  0.00    +0.000 A 
ATOM      2  C   UNL     1       5.315   4.597  18.422  0.00  0.00    +0.000 A 
ATOM      3  N   UNL     1       4.376   5.045  19.281  0.00  0.00    +0.000 NA
ATOM      4  C   UNL     1       3.695   6.158  18.972  0.00  0.00    +0.000 A 
ATOM      5  C   UNL     1       2.704   6.583  19.846  0.00  0.00    +0.000 A 
ATOM      6  C   UNL     1       1.931   7.708  19.573  0.00  0.00    +0.000 A 
ATOM      7 CL   UNL     1       0.684   8.181  20.658  0.00  0.00    +0.000 Cl
ATOM      8  C   UNL     1       2.150   8.444  18.417  0.00  0.00    +0.000 A 
ATOM      9  C   UNL     1       3.142   8.041  17.527  0.00  0.00    +0.000 A 
ATOM     10  C   UNL     1       3.926   6.891  17.787  0.00  0.00    +0.000 A 
ATOM     11  C   UNL     1       4.927   6.395  16.921  0.00  0.00    +0.000 A 
ENDROOT
BRANCH   1  13
ATOM     12  O   UNL     1       7.846   4.548  16.938  0.00  0.00    +0.000 OA
ATOM     13  C   UNL     1       6.743   4.703  16.408  0.00  0.00    +0.000 C 
BRANCH  13  14
ATOM     14  C   UNL     1       6.513   4.423  14.991  0.00  0.00    +0.000 A 
ATOM     15  C   UNL     1       5.385   3.751  14.403  0.00  0.00    +0.000 A 
ATOM     16  C   UNL     1       5.509   3.590  13.039  0.00  0.00    +0.000 A 
ATOM     17  S   UNL     1       6.940   4.306  12.442  0.00  0.00    +0.000 S 
ATOM     18  C   UNL     1       7.403   4.816  14.007  0.00  0.00    +0.000 A 
ENDBRANCH  13  14
ENDBRANCH   1  13
BRANCH   2  19
ATOM     19  O   UNL     1       5.898   3.427  18.824  0.00  0.00    +0.000 OA
ATOM     20  H   UNL     1       5.689   3.295  19.772  0.00  0.00    +0.000 HD
ENDBRANCH   2  19
BRANCH  11  21
ATOM     21  O   UNL     1       5.159   6.988  15.705  0.00  0.00    +0.000 OA
ATOM     22  H   UNL     1       4.715   6.504  14.991  0.00  0.00    +0.000 HD
ENDBRANCH  11  21
TORSDOF 4
ENDMDL
MODEL 2
REMARK VINA RESULT:      -6.9      5.061      7.712
REMARK  Name = 
REMARK  4 active torsions:
REMARK  status: ('A' for Active; 'I' for Inactive)
REMARK    1  A    between atoms: C_2  and  C_3
REMARK    2  A    between atoms: C_2  and  C_8
REMARK    3  A    between atoms: C_9  and  O_10
REMARK    4  A    between atoms: C_19  and  O_20
REMARK                            x       y       z     vdW  Elec       q    Type
REMARK                         _______ _______ _______ _____ _____    ______ ____
ROOT
ATOM      1  C   UNL     1       0.867   9.570  19.401  0.00  0.00    +0.000 A 
ATOM      2  C   UNL     1       0.798   8.783  20.539  0.00  0.00    +0.000 A 
ATOM      3  N   UNL     1       1.462   7.618  20.686  0.00  0.00    +0.000 NA
ATOM      4  C   UNL     1       2.276   7.209  19.704  0.00  0.00    +0.000 A 
ATOM      5  C   UNL     1       2.983   6.029  19.887  0.00  0.00    +0.000 A 
ATOM      6  C   UNL     1       3.875   5.561  18.926  0.00  0.00    +0.000 A 
ATOM      7 CL   UNL     1       4.765   4.118  19.207  0.00  0.00    +0.000 Cl
ATOM      8  C   UNL     1       4.064   6.265  17.745  0.00  0.00    +0.000 A 
ATOM      9  C   UNL     1       3.362   7.450  17.535  0.00  0.00    +0.000 A 
ATOM     10  C   UNL     1       2.462   7.942  18.511  0.00  0.00    +0.000 A 
ATOM     11  C   UNL     1       1.738   9.150  18.390  0.00  0.00    +0.000 A 
ENDROOT
BRANCH   1  13
ATOM     12  O   UNL     1       0.475  11.797  19.911  0.00  0.00    +0.000 OA
ATOM     13  C   UNL     1       0.053  10.800  19.320  0.00  0.00    +0.000 C 
BRANCH  13  14
ATOM     14  C   UNL     1      -1.228  10.796  18.614  0.00  0.00    +0.000 A 
ATOM     15  C   UNL     1      -1.608   9.978  17.492  0.00  0.00    +0.000 A 
ATOM     16  C   UNL     1      -2.870  10.271  17.020  0.00  0.00    +0.000 A 
ATOM     17  S   UNL     1      -3.637  11.474  17.958  0.00  0.00    +0.000 S 
ATOM     18  C   UNL     1      -2.278  11.617  18.986  0.00  0.00    +0.000 A 
ENDBRANCH  13  14
ENDBRANCH   1  13
BRANCH   2  19
ATOM     19  O   UNL     1       0.044   9.116  21.631  0.00  0.00    +0.000 OA
ATOM     20  H   UNL     1      -0.630   9.767  21.345  0.00  0.00    +0.000 HD
ENDBRANCH   2  19
BRANCH  11  21
ATOM     21  O   UNL     1       1.923   9.974  17.308  0.00  0.00    +0.000 OA
ATOM     22  H   UNL     1       1.090  10.119  16.834  0.00  0.00    +0.000 HD
ENDBRANCH  11  21
TORSDOF 4
ENDMDL
MODEL 3
REMARK VINA RESULT:      -6.9      4.032      6.180
REMARK  Name = 
REMARK  4 active torsions:
REMARK  status: ('A' for Active; 'I' for Inactive)
REMARK    1  A    between atoms: C_2  and  C_3
REMARK    2  A    between atoms: C_2  and  C_8
REMARK    3  A    between atoms: C_9  and  O_10
REMARK    4  A    between atoms: C_19  and  O_20
REMARK                            x       y       z     vdW  Elec       q    Type
REMARK                         _______ _______ _______ _____ _____    ______ ____
ROOT
ATOM      1  C   UNL     1       5.210   3.854  18.388  0.00  0.00    +0.000 A 
ATOM      2  C   UNL     1       6.355   4.619  18.532  0.00  0.00    +0.000 A 
ATOM      3  N   UNL     1       7.122   5.022  17.498  0.00  0.00    +0.000 NA
ATOM      4  C   UNL     1       6.741   4.713  16.251  0.00  0.00    +0.000 A 
ATOM      5  C   UNL     1       7.518   5.169  15.197  0.00  0.00    +0.000 A 
ATOM      6  C   UNL     1       7.164   4.919  13.873  0.00  0.00    +0.000 A 
ATOM      7 CL   UNL     1       8.128   5.537  12.591  0.00  0.00    +0.000 Cl
ATOM      8  C   UNL     1       6.023   4.184  13.581  0.00  0.00    +0.000 A 
ATOM      9  C   UNL     1       5.229   3.711  14.623  0.00  0.00    +0.000 A 
ATOM     10  C   UNL     1       5.571   3.970  15.972  0.00  0.00    +0.000 A 
ATOM     11  C   UNL     1       4.804   3.556  17.084  0.00  0.00    +0.000 A 
ENDROOT
BRANCH   1  13
ATOM     12  O   UNL     1       4.939   2.463  20.224  0.00  0.00    +0.000 OA
ATOM     13  C   UNL     1       4.474   3.416  19.593  0.00  0.00    +0.000 C 
BRANCH  13  14
ATOM     14  C   UNL     1       3.217   4.061  19.968  0.00  0.00    +0.000 A 
ATOM     15  C   UNL     1       1.963   3.425  20.278  0.00  0.00    +0.000 A 
ATOM     16  C   UNL     1       0.952   4.328  20.528  0.00  0.00    +0.000 A 
ATOM     17  S   UNL     1       1.509   5.940  20.466  0.00  0.00    +0.000 S 
ATOM     18  C   UNL     1       3.099   5.435  20.089  0.00  0.00    +0.000 A 
ENDBRANCH  13  14
ENDBRANCH   1  13
BRANCH   2  19
ATOM     19  O   UNL     1       6.821   5.044  19.747  0.00  0.00    +0.000 OA
ATOM     20  H   UNL     1       7.518   4.420  20.037  0.00  0.00    +0.000 HD
ENDBRANCH   2  19
BRANCH  11  21
ATOM     21  O   UNL     1       3.606   2.909  16.907  0.00  0.00    +0.000 OA
ATOM     22  H   UNL     1       3.532   2.145  17.500  0.00  0.00    +0.000 HD
ENDBRANCH  11  21
TORSDOF 4
ENDMDL
MODEL 4
REMARK VINA RESULT:      -6.9      0.970      2.320
REMARK  Name = 
REMARK  4 active torsions:
REMARK  status: ('A' for Active; 'I' for Inactive)
REMARK    1  A    between atoms: C_2  and  C_3
REMARK    2  A    between atoms: C_2  and  C_8
REMARK    3  A    between atoms: C_9  and  O_10
REMARK    4  A    between atoms: C_19  and  O_20
REMARK                            x       y       z     vdW  Elec       q    Type
REMARK                         _______ _______ _______ _____ _____    ______ ____
ROOT
ATOM      1  C   UNL     1       5.657   5.182  17.073  0.00  0.00    +0.000 A 
ATOM      2  C   UNL     1       5.117   6.403  16.706  0.00  0.00    +0.000 A 
ATOM      3  N   UNL     1       4.074   6.981  17.338  0.00  0.00    +0.000 NA
ATOM      4  C   UNL     1       3.552   6.374  18.413  0.00  0.00    +0.000 A 
ATOM      5  C   UNL     1       2.507   7.001  19.076  0.00  0.00    +0.000 A 
ATOM      6  C   UNL     1       1.939   6.449  20.221  0.00  0.00    +0.000 A 
ATOM      7 CL   UNL     1       0.675   7.275  21.040  0.00  0.00    +0.000 Cl
ATOM      8  C   UNL     1       2.402   5.238  20.717  0.00  0.00    +0.000 A 
ATOM      9  C   UNL     1       3.447   4.587  20.067  0.00  0.00    +0.000 A 
ATOM     10  C   UNL     1       4.041   5.145  18.909  0.00  0.00    +0.000 A 
ATOM     11  C   UNL     1       5.125   4.566  18.210  0.00  0.00    +0.000 A 
ENDROOT
BRANCH   1  13
ATOM     12  O   UNL     1       7.829   4.400  16.858  0.00  0.00    +0.000 OA
ATOM     13  C   UNL     1       6.763   4.610  16.276  0.00  0.00    +0.000 C 
BRANCH  13  14
ATOM     14  C   UNL     1       6.596   4.369  14.843  0.00  0.00    +0.000 A 
ATOM     15  C   UNL     1       5.529   3.653  14.193  0.00  0.00    +0.000 A 
ATOM     16  C   UNL     1       5.707   3.550  12.830  0.00  0.00    +0.000 A 
ATOM     17  S   UNL     1       7.112   4.368  12.308  0.00  0.00    +0.000 S 
ATOM     18  C   UNL     1       7.493   4.848  13.904  0.00  0.00    +0.000 A 
ENDBRANCH  13  14
ENDBRANCH   1  13
BRANCH   2  19
ATOM     19  O   UNL     1       5.593   7.146  15.660  0.00  0.00    +0.000 OA
ATOM     20  H   UNL     1       5.825   6.530  14.935  0.00  0.00    +0.000 HD
ENDBRANCH   2  19
BRANCH  11  21
ATOM     21  O   UNL     1       5.724   3.421  18.670  0.00  0.00    +0.000 OA
ATOM     22  H   UNL     1       6.061   3.541  19.571  0.00  0.00    +0.000 HD
ENDBRANCH  11  21
TORSDOF 4
ENDMDL
MODEL 5
REMARK VINA RESULT:      -6.8      3.205      4.193
REMARK  Name = 
REMARK  4 active torsions:
REMARK  status: ('A' for Active; 'I' for Inactive)
REMARK    1  A    between atoms: C_2  and  C_3
REMARK    2  A    between atoms: C_2  and  C_8
REMARK    3  A    between atoms: C_9  and  O_10
REMARK    4  A    between atoms: C_19  and  O_20
REMARK                            x       y       z     vdW  Elec       q    Type
REMARK                         _______ _______ _______ _____ _____    ______ ____
ROOT
ATOM      1  C   UNL     1       2.679   6.832  18.914  0.00  0.00    +0.000 A 
ATOM      2  C   UNL     1       2.253   6.466  20.180  0.00  0.00    +0.000 A 
ATOM      3  N   UNL     1       1.547   7.275  20.996  0.00  0.00    +0.000 NA
ATOM      4  C   UNL     1       1.187   8.487  20.552  0.00  0.00    +0.000 A 
ATOM      5  C   UNL     1       0.426   9.291  21.387  0.00  0.00    +0.000 A 
ATOM      6  C   UNL     1      -0.015  10.548  20.980  0.00  0.00    +0.000 A 
ATOM      7 CL   UNL     1      -0.993  11.499  22.026  0.00  0.00    +0.000 Cl
ATOM      8  C   UNL     1       0.316  11.032  19.722  0.00  0.00    +0.000 A 
ATOM      9  C   UNL     1       1.083  10.245  18.867  0.00  0.00    +0.000 A 
ATOM     10  C   UNL     1       1.527   8.961  19.265  0.00  0.00    +0.000 A 
ATOM     11  C   UNL     1       2.279   8.088  18.447  0.00  0.00    +0.000 A 
ENDROOT
BRANCH   1  13
ATOM     12  O   UNL     1       2.910   4.964  17.560  0.00  0.00    +0.000 OA
ATOM     13  C   UNL     1       3.499   5.889  18.124  0.00  0.00    +0.000 C 
BRANCH  13  14
ATOM     14  C   UNL     1       4.954   6.031  18.078  0.00  0.00    +0.000 A 
ATOM     15  C   UNL     1       5.730   6.804  17.146  0.00  0.00    +0.000 A 
ATOM     16  C   UNL     1       7.089   6.669  17.339  0.00  0.00    +0.000 A 
ATOM     17  S   UNL     1       7.444   5.675  18.681  0.00  0.00    +0.000 S 
ATOM     18  C   UNL     1       5.785   5.410  18.995  0.00  0.00    +0.000 A 
ENDBRANCH  13  14
ENDBRANCH   1  13
BRANCH   2  19
ATOM     19  O   UNL     1       2.510   5.239  20.727  0.00  0.00    +0.000 OA
ATOM     20  H   UNL     1       3.093   4.749  20.110  0.00  0.00    +0.000 HD
ENDBRANCH   2  19
BRANCH  11  21
ATOM     21  O   UNL     1       2.578   8.425  17.150  0.00  0.00    +0.000 OA
ATOM     22  H   UNL     1       2.884   7.652  16.651  0.00  0.00    +0.000 HD
ENDBRANCH  11  21
TORSDOF 4
ENDMDL
MODEL 6
REMARK VINA RESULT:      -6.8      4.274      5.550
REMARK  Name = 
REMARK  4 active torsions:
REMARK  status: ('A' for Active; 'I' for Inactive)
REMARK    1  A    between atoms: C_2  and  C_3
REMARK    2  A    between atoms: C_2  and  C_8
REMARK    3  A    between atoms: C_9  and  O_10
REMARK    4  A    between atoms: C_19  and  O_20
REMARK                            x       y       z     vdW  Elec       q    Type
REMARK                         _______ _______ _______ _____ _____    ______ ____
ROOT
ATOM      1  C   UNL     1       2.640   7.027  19.219  0.00  0.00    +0.000 A 
ATOM      2  C   UNL     1       2.892   7.629  17.997  0.00  0.00    +0.000 A 
ATOM      3  N   UNL     1       2.344   8.800  17.613  0.00  0.00    +0.000 NA
ATOM      4  C   UNL     1       1.547   9.454  18.469  0.00  0.00    +0.000 A 
ATOM      5  C   UNL     1       1.025  10.677  18.074  0.00  0.00    +0.000 A 
ATOM      6  C   UNL     1       0.220  11.431  18.925  0.00  0.00    +0.000 A 
ATOM      7 CL   UNL     1      -0.374  12.961  18.417  0.00  0.00    +0.000 Cl
ATOM      8  C   UNL     1      -0.093  10.959  20.192  0.00  0.00    +0.000 A 
ATOM      9  C   UNL     1       0.416   9.732  20.610  0.00  0.00    +0.000 A 
ATOM     10  C   UNL     1       1.246   8.963  19.759  0.00  0.00    +0.000 A 
ATOM     11  C   UNL     1       1.828   7.726  20.118  0.00  0.00    +0.000 A 
ENDROOT
BRANCH   1  13
ATOM     12  O   UNL     1       4.475   5.666  19.613  0.00  0.00    +0.000 OA
ATOM     13  C   UNL     1       3.246   5.712  19.517  0.00  0.00    +0.000 C 
BRANCH  13  14
ATOM     14  C   UNL     1       2.409   4.518  19.629  0.00  0.00    +0.000 A 
ATOM     15  C   UNL     1       2.058   3.802  20.827  0.00  0.00    +0.000 A 
ATOM     16  C   UNL     1       1.305   2.676  20.576  0.00  0.00    +0.000 A 
ATOM     17  S   UNL     1       0.951   2.504  18.915  0.00  0.00    +0.000 S 
ATOM     18  C   UNL     1       1.817   3.926  18.527  0.00  0.00    +0.000 A 
ENDBRANCH  13  14
ENDBRANCH   1  13
BRANCH   2  19
ATOM     19  O   UNL     1       3.726   7.089  17.057  0.00  0.00    +0.000 OA
ATOM     20  H   UNL     1       3.178   6.798  16.299  0.00  0.00    +0.000 HD
ENDBRANCH   2  19
BRANCH  11  21
ATOM     21  O   UNL     1       1.666   7.214  21.381  0.00  0.00    +0.000 OA
ATOM     22  H   UNL     1       2.268   7.641  22.010  0.00  0.00    +0.000 HD
ENDBRANCH  11  21
TORSDOF 4
ENDMDL
MODEL 7
REMARK VINA RESULT:      -6.7      3.723      4.925
REMARK  Name = 
REMARK  4 active torsions:
REMARK  status: ('A' for Active; 'I' for Inactive)
REMARK    1  A    between atoms: C_2  and  C_3
REMARK    2  A    between atoms: C_2  and  C_8
REMARK    3  A    between atoms: C_9  and  O_10
REMARK    4  A    between atoms: C_19  and  O_20
REMARK                            x       y       z     vdW  Elec       q    Type
REMARK                         _______ _______ _______ _____ _____    ______ ____
ROOT
ATOM      1  C   UNL     1       2.971   6.774  18.960  0.00  0.00    +0.000 A 
ATOM      2  C   UNL     1       3.206   7.487  17.796  0.00  0.00    +0.000 A 
ATOM      3  N   UNL     1       2.602   8.655  17.498  0.00  0.00    +0.000 NA
ATOM      4  C   UNL     1       1.759   9.194  18.390  0.00  0.00    +0.000 A 
ATOM      5  C   UNL     1       1.177  10.416  18.086  0.00  0.00    +0.000 A 
ATOM      6  C   UNL     1       0.321  11.054  18.980  0.00  0.00    +0.000 A 
ATOM      7 CL   UNL     1      -0.348  12.588  18.588  0.00  0.00    +0.000 Cl
ATOM      8  C   UNL     1       0.017  10.464  20.199  0.00  0.00    +0.000 A 
ATOM      9  C   UNL     1       0.585   9.235  20.525  0.00  0.00    +0.000 A 
ATOM     10  C   UNL     1       1.467   8.583  19.630  0.00  0.00    +0.000 A 
ATOM     11  C   UNL     1       2.111   7.354  19.898  0.00  0.00    +0.000 A 
ENDROOT
BRANCH   1  13
ATOM     12  O   UNL     1       4.798   5.496  19.594  0.00  0.00    +0.000 OA
ATOM     13  C   UNL     1       3.643   5.473  19.162  0.00  0.00    +0.000 C 
BRANCH  13  14
ATOM     14  C   UNL     1       2.970   4.227  18.798  0.00  0.00    +0.000 A 
ATOM     15  C   UNL     1       3.313   3.325  17.730  0.00  0.00    +0.000 A 
ATOM     16  C   UNL     1       2.432   2.272  17.615  0.00  0.00    +0.000 A 
ATOM     17  S   UNL     1       1.230   2.313  18.827  0.00  0.00    +0.000 S 
ATOM     18  C   UNL     1       1.876   3.748  19.496  0.00  0.00    +0.000 A 
ENDBRANCH  13  14
ENDBRANCH   1  13
BRANCH   2  19
ATOM     19  O   UNL     1       4.082   7.071  16.831  0.00  0.00    +0.000 OA
ATOM     20  H   UNL     1       4.296   7.842  16.265  0.00  0.00    +0.000 HD
ENDBRANCH   2  19
BRANCH  11  21
ATOM     21  O   UNL     1       1.959   6.732  21.112  0.00  0.00    +0.000 OA
ATOM     22  H   UNL     1       1.022   6.578  21.310  0.00  0.00    +0.000 HD
ENDBRANCH  11  21
TORSDOF 4
ENDMDL
MODEL 8
REMARK VINA RESULT:      -6.7      3.499      5.176
REMARK  Name = 
REMARK  4 active torsions:
REMARK  status: ('A' for Active; 'I' for Inactive)
REMARK    1  A    between atoms: C_2  and  C_3
REMARK    2  A    between atoms: C_2  and  C_8
REMARK    3  A    between atoms: C_9  and  O_10
REMARK    4  A    between atoms: C_19  and  O_20
REMARK                            x       y       z     vdW  Elec       q    Type
REMARK                         _______ _______ _______ _____ _____    ______ ____
ROOT
ATOM      1  C   UNL     1       2.192   7.413  18.975  0.00  0.00    +0.000 A 
ATOM      2  C   UNL     1       2.020   8.597  18.278  0.00  0.00    +0.000 A 
ATOM      3  N   UNL     1       1.399   9.681  18.785  0.00  0.00    +0.000 NA
ATOM      4  C   UNL     1       0.961   9.643  20.051  0.00  0.00    +0.000 A 
ATOM      5  C   UNL     1       0.361  10.780  20.572  0.00  0.00    +0.000 A 
ATOM      6  C   UNL     1      -0.085  10.826  21.890  0.00  0.00    +0.000 A 
ATOM      7 CL   UNL     1      -0.785  12.267  22.513  0.00  0.00    +0.000 Cl
ATOM      8  C   UNL     1       0.048   9.717  22.713  0.00  0.00    +0.000 A 
ATOM      9  C   UNL     1       0.643   8.561  22.213  0.00  0.00    +0.000 A 
ATOM     10  C   UNL     1       1.112   8.507  20.878  0.00  0.00    +0.000 A 
ATOM     11  C   UNL     1       1.756   7.387  20.304  0.00  0.00    +0.000 A 
ENDROOT
BRANCH   1  13
ATOM     12  O   UNL     1       2.097   5.380  17.864  0.00  0.00    +0.000 OA
ATOM     13  C   UNL     1       2.836   6.264  18.304  0.00  0.00    +0.000 C 
BRANCH  13  14
ATOM     14  C   UNL     1       4.293   6.169  18.232  0.00  0.00    +0.000 A 
ATOM     15  C   UNL     1       5.162   6.756  17.245  0.00  0.00    +0.000 A 
ATOM     16  C   UNL     1       6.486   6.418  17.429  0.00  0.00    +0.000 A 
ATOM     17  S   UNL     1       6.709   5.457  18.821  0.00  0.00    +0.000 S 
ATOM     18  C   UNL     1       5.036   5.477  19.172  0.00  0.00    +0.000 A 
ENDBRANCH  13  14
ENDBRANCH   1  13
BRANCH   2  19
ATOM     19  O   UNL     1       2.468   8.781  16.998  0.00  0.00    +0.000 OA
ATOM     20  H   UNL     1       1.713   9.092  16.457  0.00  0.00    +0.000 HD
ENDBRANCH   2  19
BRANCH  11  21
ATOM     21  O   UNL     1       2.029   6.272  21.056  0.00  0.00    +0.000 OA
ATOM     22  H   UNL     1       2.307   5.533  20.494  0.00  0.00    +0.000 HD
ENDBRANCH  11  21
TORSDOF 4
ENDMDL
MODEL 9
REMARK VINA RESULT:      -6.7      3.991      5.564
REMARK  Name = 
REMARK  4 active torsions:
REMARK  status: ('A' for Active; 'I' for Inactive)
REMARK    1  A    between atoms: C_2  and  C_3
REMARK    2  A    between atoms: C_2  and  C_8
REMARK    3  A    between atoms: C_9  and  O_10
REMARK    4  A    between atoms: C_19  and  O_20
REMARK                            x       y       z     vdW  Elec       q    Type
REMARK                         _______ _______ _______ _____ _____    ______ ____
ROOT
ATOM      1  C   UNL     1       2.130   7.977  18.939  0.00  0.00    +0.000 A 
ATOM      2  C   UNL     1       1.729   9.166  18.352  0.00  0.00    +0.000 A 
ATOM      3  N   UNL     1       0.926  10.066  18.956  0.00  0.00    +0.000 NA
ATOM      4  C   UNL     1       0.525   9.833  20.213  0.00  0.00    +0.000 A 
ATOM      5  C   UNL     1      -0.267  10.788  20.835  0.00  0.00    +0.000 A 
ATOM      6  C   UNL     1      -0.691  10.633  22.152  0.00  0.00    +0.000 A 
ATOM      7 CL   UNL     1      -1.636  11.856  22.903  0.00  0.00    +0.000 Cl
ATOM      8  C   UNL     1      -0.339   9.499  22.871  0.00  0.00    +0.000 A 
ATOM      9  C   UNL     1       0.451   8.524  22.268  0.00  0.00    +0.000 A 
ATOM     10  C   UNL     1       0.899   8.677  20.933  0.00  0.00    +0.000 A 
ATOM     11  C   UNL     1       1.729   7.753  20.260  0.00  0.00    +0.000 A 
ENDROOT
BRANCH   1  13
ATOM     12  O   UNL     1       3.858   7.513  17.464  0.00  0.00    +0.000 OA
ATOM     13  C   UNL     1       2.965   7.033  18.166  0.00  0.00    +0.000 C 
BRANCH  13  14
ATOM     14  C   UNL     1       2.685   5.598  18.200  0.00  0.00    +0.000 A 
ATOM     15  C   UNL     1       1.455   4.936  17.853  0.00  0.00    +0.000 A 
ATOM     16  C   UNL     1       1.503   3.574  18.060  0.00  0.00    +0.000 A 
ATOM     17  S   UNL     1       3.040   3.067  18.602  0.00  0.00    +0.000 S 
ATOM     18  C   UNL     1       3.639   4.668  18.577  0.00  0.00    +0.000 A 
ENDBRANCH  13  14
ENDBRANCH   1  13
BRANCH   2  19
ATOM     19  O   UNL     1       2.112   9.543  17.094  0.00  0.00    +0.000 OA
ATOM     20  H   UNL     1       3.090   9.488  17.048  0.00  0.00    +0.000 HD
ENDBRANCH   2  19
BRANCH  11  21
ATOM     21  O   UNL     1       2.217   6.646  20.908  0.00  0.00    +0.000 OA
ATOM     22  H   UNL     1       2.324   6.816  21.857  0.00  0.00    +0.000 HD
ENDBRANCH  11  21
TORSDOF 4
ENDMDL
