MODEL 1
REMARK VINA RESULT:      -7.3      0.000      0.000
REMARK  Name = 
REMARK  6 active torsions:
REMARK  status: ('A' for Active; 'I' for Inactive)
REMARK    1  A    between atoms: C_1  and  C_2
REMARK    2  A    between atoms: C_13  and  O_14
REMARK    3  A    between atoms: O_14  and  C_15
REMARK    4  A    between atoms: N_27  and  C_28
REMARK    5  A    between atoms: C_28  and  C_29
REMARK    6  A    between atoms: C_28  and  C_30
REMARK                            x       y       z     vdW  Elec       q    Type
REMARK                         _______ _______ _______ _____ _____    ______ ____
ROOT
ATOM      1  C   UNL     1      -4.882  17.475  25.267  0.00  0.00    +0.000 C 
ATOM      2  C   UNL     1      -5.340  16.661  24.076  0.00  0.00    +0.000 C 
ATOM      3  O   UNL     1      -6.545  16.470  23.903  0.00  0.00    +0.000 OA
ATOM      4  N   UNL     1      -4.373  16.181  23.212  0.00  0.00    +0.000 N 
ATOM      5  C   UNL     1      -2.942  16.450  23.284  0.00  0.00    +0.000 C 
ATOM      6  C   UNL     1      -2.150  15.153  23.120  0.00  0.00    +0.000 C 
ATOM      7  C   UNL     1      -2.598  14.374  21.914  0.00  0.00    +0.000 A 
ATOM      8  N   UNL     1      -1.709  13.514  21.358  0.00  0.00    +0.000 NA
ATOM      9  C   UNL     1      -2.124  12.756  20.303  0.00  0.00    +0.000 A 
ATOM     10  N   UNL     1      -1.153  11.956  19.662  0.00  0.00    +0.000 N 
ATOM     11  C   UNL     1       0.232  12.224  20.097  0.00  0.00    +0.000 C 
ATOM     12  C   UNL     1       1.232  11.555  19.146  0.00  0.00    +0.000 C 
ATOM     13  C   UNL     1       0.926  10.060  19.025  0.00  0.00    +0.000 C 
ATOM     14  C   UNL     1      -0.515   9.876  18.533  0.00  0.00    +0.000 C 
ATOM     15  F   UNL     1      -0.665  10.487  17.317  0.00  0.00    +0.000 F 
ATOM     16  C   UNL     1      -1.475  10.521  19.537  0.00  0.00    +0.000 C 
ATOM     17  C   UNL     1      -3.481  12.855  19.848  0.00  0.00    +0.000 A 
ATOM     18  N   UNL     1      -3.976  12.071  18.791  0.00  0.00    +0.000 N 
ATOM     19  N   UNL     1      -4.347  13.727  20.423  0.00  0.00    +0.000 NA
ATOM     20  C   UNL     1      -3.896  14.494  21.439  0.00  0.00    +0.000 A 
ATOM     21  C   UNL     1      -4.834  15.546  21.974  0.00  0.00    +0.000 C 
ATOM     22  H   UNL     1      -3.415  12.215  17.954  0.00  0.00    +0.000 HD
ENDROOT
BRANCH  18  23
ATOM     23  C   UNL     1      -5.430  12.027  18.612  0.00  0.00    +0.000 C 
ATOM     24  C   UNL     1      -5.894  12.676  17.309  0.00  0.00    +0.000 C 
ATOM     25  C   UNL     1      -5.885  10.566  18.653  0.00  0.00    +0.000 C 
ENDBRANCH  18  23
BRANCH  13  26
ATOM     26  O   UNL     1       1.867   9.435  18.137  0.00  0.00    +0.000 OA
BRANCH  26  27
ATOM     27  C   UNL     1       2.344   8.194  18.480  0.00  0.00    +0.000 A 
ATOM     28  C   UNL     1       3.152   7.593  17.507  0.00  0.00    +0.000 A 
ATOM     29  C   UNL     1       3.722   6.332  17.734  0.00  0.00    +0.000 A 
ATOM     30  C   UNL     1       3.486   5.680  18.940  0.00  0.00    +0.000 A 
ATOM     31  F   UNL     1       4.037   4.482  19.164  0.00  0.00    +0.000 F 
ATOM     32  C   UNL     1       2.679   6.249  19.910  0.00  0.00    +0.000 A 
ATOM     33  C   UNL     1       2.107   7.495  19.675  0.00  0.00    +0.000 A 
ATOM     34  F   UNL     1       1.308   7.979  20.634  0.00  0.00    +0.000 F 
ENDBRANCH  26  27
ENDBRANCH  13  26
TORSDOF 3
ENDMDL
MODEL 2
REMARK VINA RESULT:      -6.8      4.382      5.655
REMARK  Name = 
REMARK  6 active torsions:
REMARK  status: ('A' for Active; 'I' for Inactive)
REMARK    1  A    between atoms: C_1  and  C_2
REMARK    2  A    between atoms: C_13  and  O_14
REMARK    3  A    between atoms: O_14  and  C_15
REMARK    4  A    between atoms: N_27  and  C_28
REMARK    5  A    between atoms: C_28  and  C_29
REMARK    6  A    between atoms: C_28  and  C_30
REMARK                            x       y       z     vdW  Elec       q    Type
REMARK                         _______ _______ _______ _____ _____    ______ ____
ROOT
ATOM      1  C   UNL     1      -7.362  13.283  23.885  0.00  0.00    +0.000 C 
ATOM      2  C   UNL     1      -6.723  12.639  22.673  0.00  0.00    +0.000 C 
ATOM      3  O   UNL     1      -7.185  11.583  22.237  0.00  0.00    +0.000 OA
ATOM      4  N   UNL     1      -5.648  13.285  22.090  0.00  0.00    +0.000 N 
ATOM      5  C   UNL     1      -5.110  14.584  22.476  0.00  0.00    +0.000 C 
ATOM      6  C   UNL     1      -3.587  14.515  22.582  0.00  0.00    +0.000 C 
ATOM      7  C   UNL     1      -2.968  13.902  21.357  0.00  0.00    +0.000 A 
ATOM      8  N   UNL     1      -1.680  14.221  21.078  0.00  0.00    +0.000 NA
ATOM      9  C   UNL     1      -1.089  13.622  20.005  0.00  0.00    +0.000 A 
ATOM     10  N   UNL     1       0.210  14.055  19.659  0.00  0.00    +0.000 N 
ATOM     11  C   UNL     1       0.658  15.258  20.387  0.00  0.00    +0.000 C 
ATOM     12  C   UNL     1       1.922  15.838  19.739  0.00  0.00    +0.000 C 
ATOM     13  C   UNL     1       3.007  14.762  19.644  0.00  0.00    +0.000 C 
ATOM     14  C   UNL     1       2.469  13.570  18.843  0.00  0.00    +0.000 C 
ATOM     15  F   UNL     1       2.109  13.987  17.589  0.00  0.00    +0.000 F 
ATOM     16  C   UNL     1       1.238  13.001  19.553  0.00  0.00    +0.000 C 
ATOM     17  C   UNL     1      -1.820  12.652  19.242  0.00  0.00    +0.000 A 
ATOM     18  N   UNL     1      -1.250  11.973  18.149  0.00  0.00    +0.000 N 
ATOM     19  N   UNL     1      -3.109  12.355  19.543  0.00  0.00    +0.000 NA
ATOM     20  C   UNL     1      -3.681  12.995  20.586  0.00  0.00    +0.000 A 
ATOM     21  C   UNL     1      -5.150  12.748  20.821  0.00  0.00    +0.000 C 
ATOM     22  H   UNL     1      -0.913  12.641  17.459  0.00  0.00    +0.000 HD
ENDROOT
BRANCH  18  23
ATOM     23  C   UNL     1      -1.966  10.801  17.640  0.00  0.00    +0.000 C 
ATOM     24  C   UNL     1      -2.608  11.036  16.274  0.00  0.00    +0.000 C 
ATOM     25  C   UNL     1      -0.988   9.627  17.557  0.00  0.00    +0.000 C 
ENDBRANCH  18  23
BRANCH  13  26
ATOM     26  O   UNL     1       4.190  15.310  19.041  0.00  0.00    +0.000 OA
BRANCH  26  27
ATOM     27  C   UNL     1       5.391  15.082  19.667  0.00  0.00    +0.000 A 
ATOM     28  C   UNL     1       5.326  15.082  21.065  0.00  0.00    +0.000 A 
ATOM     29  C   UNL     1       6.476  14.843  21.831  0.00  0.00    +0.000 A 
ATOM     30  C   UNL     1       7.687  14.595  21.193  0.00  0.00    +0.000 A 
ATOM     31  F   UNL     1       8.783  14.355  21.920  0.00  0.00    +0.000 F 
ATOM     32  C   UNL     1       7.776  14.604  19.812  0.00  0.00    +0.000 A 
ATOM     33  C   UNL     1       6.635  14.853  19.056  0.00  0.00    +0.000 A 
ATOM     34  F   UNL     1       6.790  14.885  17.727  0.00  0.00    +0.000 F 
ENDBRANCH  26  27
ENDBRANCH  13  26
TORSDOF 3
ENDMDL
MODEL 3
REMARK VINA RESULT:      -6.8      1.209      1.566
REMARK  Name = 
REMARK  6 active torsions:
REMARK  status: ('A' for Active; 'I' for Inactive)
REMARK    1  A    between atoms: C_1  and  C_2
REMARK    2  A    between atoms: C_13  and  O_14
REMARK    3  A    between atoms: O_14  and  C_15
REMARK    4  A    between atoms: N_27  and  C_28
REMARK    5  A    between atoms: C_28  and  C_29
REMARK    6  A    between atoms: C_28  and  C_30
REMARK                            x       y       z     vdW  Elec       q    Type
REMARK                         _______ _______ _______ _____ _____    ______ ____
ROOT
ATOM      1  C   UNL     1      -3.146  17.372  25.362  0.00  0.00    +0.000 C 
ATOM      2  C   UNL     1      -3.803  16.635  24.214  0.00  0.00    +0.000 C 
ATOM      3  O   UNL     1      -5.032  16.586  24.152  0.00  0.00    +0.000 OA
ATOM      4  N   UNL     1      -2.980  16.060  23.262  0.00  0.00    +0.000 N 
ATOM      5  C   UNL     1      -1.527  16.162  23.203  0.00  0.00    +0.000 C 
ATOM      6  C   UNL     1      -0.909  14.785  22.960  0.00  0.00    +0.000 C 
ATOM      7  C   UNL     1      -1.552  14.081  21.798  0.00  0.00    +0.000 A 
ATOM      8  N   UNL     1      -0.823  13.134  21.158  0.00  0.00    +0.000 NA
ATOM      9  C   UNL     1      -1.417  12.445  20.142  0.00  0.00    +0.000 A 
ATOM     10  N   UNL     1      -0.607  11.548  19.410  0.00  0.00    +0.000 N 
ATOM     11  C   UNL     1       0.833  11.649  19.717  0.00  0.00    +0.000 C 
ATOM     12  C   UNL     1       1.658  10.884  18.675  0.00  0.00    +0.000 C 
ATOM     13  C   UNL     1       1.171   9.436  18.576  0.00  0.00    +0.000 C 
ATOM     14  C   UNL     1      -0.320   9.426  18.218  0.00  0.00    +0.000 C 
ATOM     15  F   UNL     1      -0.508  10.069  17.024  0.00  0.00    +0.000 F 
ATOM     16  C   UNL     1      -1.103  10.162  19.310  0.00  0.00    +0.000 C 
ATOM     17  C   UNL     1      -2.789  12.706  19.815  0.00  0.00    +0.000 A 
ATOM     18  N   UNL     1      -3.466  11.999  18.804  0.00  0.00    +0.000 N 
ATOM     19  N   UNL     1      -3.493  13.662  20.471  0.00  0.00    +0.000 NA
ATOM     20  C   UNL     1      -2.865  14.356  21.445  0.00  0.00    +0.000 A 
ATOM     21  C   UNL     1      -3.622  15.501  22.069  0.00  0.00    +0.000 C 
ATOM     22  H   UNL     1      -2.971  12.091  17.920  0.00  0.00    +0.000 HD
ENDROOT
BRANCH  18  23
ATOM     23  C   UNL     1      -4.925  12.125  18.760  0.00  0.00    +0.000 C 
ATOM     24  C   UNL     1      -5.473  12.271  17.341  0.00  0.00    +0.000 C 
ATOM     25  C   UNL     1      -5.544  10.895  19.429  0.00  0.00    +0.000 C 
ENDBRANCH  18  23
BRANCH  13  26
ATOM     26  O   UNL     1       1.949   8.721  17.602  0.00  0.00    +0.000 OA
BRANCH  26  27
ATOM     27  C   UNL     1       2.687   7.647  18.036  0.00  0.00    +0.000 A 
ATOM     28  C   UNL     1       2.288   7.131  19.275  0.00  0.00    +0.000 A 
ATOM     29  C   UNL     1       2.943   6.021  19.828  0.00  0.00    +0.000 A 
ATOM     30  C   UNL     1       3.991   5.425  19.133  0.00  0.00    +0.000 A 
ATOM     31  F   UNL     1       4.609   4.360  19.652  0.00  0.00    +0.000 F 
ATOM     32  C   UNL     1       4.409   5.928  17.913  0.00  0.00    +0.000 A 
ATOM     33  C   UNL     1       3.764   7.036  17.374  0.00  0.00    +0.000 A 
ATOM     34  F   UNL     1       4.237   7.498  16.210  0.00  0.00    +0.000 F 
ENDBRANCH  26  27
ENDBRANCH  13  26
TORSDOF 3
ENDMDL
MODEL 4
REMARK VINA RESULT:      -6.7      4.685      5.779
REMARK  Name = 
REMARK  6 active torsions:
REMARK  status: ('A' for Active; 'I' for Inactive)
REMARK    1  A    between atoms: C_1  and  C_2
REMARK    2  A    between atoms: C_13  and  O_14
REMARK    3  A    between atoms: O_14  and  C_15
REMARK    4  A    between atoms: N_27  and  C_28
REMARK    5  A    between atoms: C_28  and  C_29
REMARK    6  A    between atoms: C_28  and  C_30
REMARK                            x       y       z     vdW  Elec       q    Type
REMARK                         _______ _______ _______ _____ _____    ______ ____
ROOT
ATOM      1  C   UNL     1      -5.773  16.351  24.257  0.00  0.00    +0.000 C 
ATOM      2  C   UNL     1      -5.313  15.180  23.415  0.00  0.00    +0.000 C 
ATOM      3  O   UNL     1      -5.824  14.073  23.590  0.00  0.00    +0.000 OA
ATOM      4  N   UNL     1      -4.341  15.415  22.460  0.00  0.00    +0.000 N 
ATOM      5  C   UNL     1      -3.764  16.709  22.117  0.00  0.00    +0.000 C 
ATOM      6  C   UNL     1      -2.240  16.605  22.038  0.00  0.00    +0.000 C 
ATOM      7  C   UNL     1      -1.803  15.457  21.173  0.00  0.00    +0.000 A 
ATOM      8  N   UNL     1      -0.572  15.531  20.608  0.00  0.00    +0.000 NA
ATOM      9  C   UNL     1      -0.139  14.467  19.873  0.00  0.00    +0.000 A 
ATOM     10  N   UNL     1       1.092  14.610  19.194  0.00  0.00    +0.000 N 
ATOM     11  C   UNL     1       1.630  15.984  19.207  0.00  0.00    +0.000 C 
ATOM     12  C   UNL     1       2.780  16.118  18.201  0.00  0.00    +0.000 C 
ATOM     13  C   UNL     1       3.850  15.058  18.477  0.00  0.00    +0.000 C 
ATOM     14  C   UNL     1       3.212  13.666  18.407  0.00  0.00    +0.000 C 
ATOM     15  F   UNL     1       2.668  13.473  17.166  0.00  0.00    +0.000 F 
ATOM     16  C   UNL     1       2.103  13.568  19.459  0.00  0.00    +0.000 C 
ATOM     17  C   UNL     1      -0.965  13.300  19.758  0.00  0.00    +0.000 A 
ATOM     18  N   UNL     1      -0.554  12.158  19.046  0.00  0.00    +0.000 N 
ATOM     19  N   UNL     1      -2.193  13.256  20.332  0.00  0.00    +0.000 NA
ATOM     20  C   UNL     1      -2.612  14.340  21.020  0.00  0.00    +0.000 A 
ATOM     21  C   UNL     1      -4.029  14.321  21.537  0.00  0.00    +0.000 C 
ATOM     22  H   UNL     1      -0.328  12.407  18.086  0.00  0.00    +0.000 HD
ENDROOT
BRANCH  18  23
ATOM     23  C   UNL     1      -1.326  10.930  19.246  0.00  0.00    +0.000 C 
ATOM     24  C   UNL     1      -1.720  10.248  17.937  0.00  0.00    +0.000 C 
ATOM     25  C   UNL     1      -0.502   9.966  20.104  0.00  0.00    +0.000 C 
ENDBRANCH  18  23
BRANCH  13  26
ATOM     26  O   UNL     1       4.927  15.190  17.536  0.00  0.00    +0.000 OA
BRANCH  26  27
ATOM     27  C   UNL     1       6.211  15.093  18.015  0.00  0.00    +0.000 A 
ATOM     28  C   UNL     1       6.896  13.941  17.611  0.00  0.00    +0.000 A 
ATOM     29  C   UNL     1       8.222  13.724  18.012  0.00  0.00    +0.000 A 
ATOM     30  C   UNL     1       8.861  14.668  18.809  0.00  0.00    +0.000 A 
ATOM     31  F   UNL     1      10.130  14.470  19.184  0.00  0.00    +0.000 F 
ATOM     32  C   UNL     1       8.198  15.808  19.230  0.00  0.00    +0.000 A 
ATOM     33  C   UNL     1       6.879  16.012  18.840  0.00  0.00    +0.000 A 
ATOM     34  F   UNL     1       6.278  17.114  19.308  0.00  0.00    +0.000 F 
ENDBRANCH  26  27
ENDBRANCH  13  26
TORSDOF 3
ENDMDL
MODEL 5
REMARK VINA RESULT:      -6.6      4.393      5.944
REMARK  Name = 
REMARK  6 active torsions:
REMARK  status: ('A' for Active; 'I' for Inactive)
REMARK    1  A    between atoms: C_1  and  C_2
REMARK    2  A    between atoms: C_13  and  O_14
REMARK    3  A    between atoms: O_14  and  C_15
REMARK    4  A    between atoms: N_27  and  C_28
REMARK    5  A    between atoms: C_28  and  C_29
REMARK    6  A    between atoms: C_28  and  C_30
REMARK                            x       y       z     vdW  Elec       q    Type
REMARK                         _______ _______ _______ _____ _____    ______ ____
ROOT
ATOM      1  C   UNL     1      -7.678  13.413  24.201  0.00  0.00    +0.000 C 
ATOM      2  C   UNL     1      -7.180  12.868  22.880  0.00  0.00    +0.000 C 
ATOM      3  O   UNL     1      -7.819  11.981  22.312  0.00  0.00    +0.000 OA
ATOM      4  N   UNL     1      -6.023  13.413  22.353  0.00  0.00    +0.000 N 
ATOM      5  C   UNL     1      -5.269  14.532  22.903  0.00  0.00    +0.000 C 
ATOM      6  C   UNL     1      -3.776  14.203  22.930  0.00  0.00    +0.000 C 
ATOM      7  C   UNL     1      -3.293  13.694  21.601  0.00  0.00    +0.000 A 
ATOM      8  N   UNL     1      -1.975  13.839  21.316  0.00  0.00    +0.000 NA
ATOM      9  C   UNL     1      -1.513  13.325  20.140  0.00  0.00    +0.000 A 
ATOM     10  N   UNL     1      -0.167  13.590  19.805  0.00  0.00    +0.000 N 
ATOM     11  C   UNL     1       0.489  14.578  20.683  0.00  0.00    +0.000 C 
ATOM     12  C   UNL     1       1.820  15.038  20.073  0.00  0.00    +0.000 C 
ATOM     13  C   UNL     1       2.708  13.828  19.771  0.00  0.00    +0.000 C 
ATOM     14  C   UNL     1       1.964  12.877  18.826  0.00  0.00    +0.000 C 
ATOM     15  F   UNL     1       1.654  13.535  17.666  0.00  0.00    +0.000 F 
ATOM     16  C   UNL     1       0.669  12.413  19.498  0.00  0.00    +0.000 C 
ATOM     17  C   UNL     1      -2.410  12.616  19.274  0.00  0.00    +0.000 A 
ATOM     18  N   UNL     1      -1.982  12.030  18.069  0.00  0.00    +0.000 N 
ATOM     19  N   UNL     1      -3.724  12.488  19.585  0.00  0.00    +0.000 NA
ATOM     20  C   UNL     1      -4.161  13.043  20.736  0.00  0.00    +0.000 A 
ATOM     21  C   UNL     1      -5.646  13.005  20.997  0.00  0.00    +0.000 C 
ATOM     22  H   UNL     1      -1.552  12.733  17.472  0.00  0.00    +0.000 HD
ENDROOT
BRANCH  18  23
ATOM     23  C   UNL     1      -2.893  11.082  17.423  0.00  0.00    +0.000 C 
ATOM     24  C   UNL     1      -2.862  11.163  15.898  0.00  0.00    +0.000 C 
ATOM     25  C   UNL     1      -2.527   9.665  17.874  0.00  0.00    +0.000 C 
ENDBRANCH  18  23
BRANCH  13  26
ATOM     26  O   UNL     1       3.954  14.264  19.204  0.00  0.00    +0.000 OA
BRANCH  26  27
ATOM     27  C   UNL     1       4.617  15.292  19.828  0.00  0.00    +0.000 A 
ATOM     28  C   UNL     1       5.163  14.960  21.073  0.00  0.00    +0.000 A 
ATOM     29  C   UNL     1       5.883  15.911  21.812  0.00  0.00    +0.000 A 
ATOM     30  C   UNL     1       6.060  17.190  21.294  0.00  0.00    +0.000 A 
ATOM     31  F   UNL     1       6.756  18.096  21.991  0.00  0.00    +0.000 F 
ATOM     32  C   UNL     1       5.517  17.543  20.071  0.00  0.00    +0.000 A 
ATOM     33  C   UNL     1       4.794  16.600  19.349  0.00  0.00    +0.000 A 
ATOM     34  F   UNL     1       4.262  17.010  18.190  0.00  0.00    +0.000 F 
ENDBRANCH  26  27
ENDBRANCH  13  26
TORSDOF 3
ENDMDL
MODEL 6
REMARK VINA RESULT:      -6.4      6.630      8.507
REMARK  Name = 
REMARK  6 active torsions:
REMARK  status: ('A' for Active; 'I' for Inactive)
REMARK    1  A    between atoms: C_1  and  C_2
REMARK    2  A    between atoms: C_13  and  O_14
REMARK    3  A    between atoms: O_14  and  C_15
REMARK    4  A    between atoms: N_27  and  C_28
REMARK    5  A    between atoms: C_28  and  C_29
REMARK    6  A    between atoms: C_28  and  C_30
REMARK                            x       y       z     vdW  Elec       q    Type
REMARK                         _______ _______ _______ _____ _____    ______ ____
ROOT
ATOM      1  C   UNL     1      -2.824   9.607  17.726  0.00  0.00    +0.000 C 
ATOM      2  C   UNL     1      -2.704  11.110  17.859  0.00  0.00    +0.000 C 
ATOM      3  O   UNL     1      -3.615  11.828  17.443  0.00  0.00    +0.000 OA
ATOM      4  N   UNL     1      -1.570  11.615  18.469  0.00  0.00    +0.000 N 
ATOM      5  C   UNL     1      -0.501  10.837  19.081  0.00  0.00    +0.000 C 
ATOM      6  C   UNL     1       0.862  11.358  18.626  0.00  0.00    +0.000 C 
ATOM      7  C   UNL     1       0.974  12.848  18.795  0.00  0.00    +0.000 A 
ATOM      8  N   UNL     1       2.218  13.372  18.923  0.00  0.00    +0.000 NA
ATOM      9  C   UNL     1       2.337  14.727  19.013  0.00  0.00    +0.000 A 
ATOM     10  N   UNL     1       3.626  15.247  19.266  0.00  0.00    +0.000 N 
ATOM     11  C   UNL     1       4.630  14.224  19.613  0.00  0.00    +0.000 C 
ATOM     12  C   UNL     1       5.897  14.884  20.172  0.00  0.00    +0.000 C 
ATOM     13  C   UNL     1       6.428  15.928  19.185  0.00  0.00    +0.000 C 
ATOM     14  C   UNL     1       5.335  16.968  18.912  0.00  0.00    +0.000 C 
ATOM     15  F   UNL     1       4.974  17.571  20.087  0.00  0.00    +0.000 F 
ATOM     16  C   UNL     1       4.111  16.266  18.315  0.00  0.00    +0.000 C 
ATOM     17  C   UNL     1       1.164  15.550  18.926  0.00  0.00    +0.000 A 
ATOM     18  N   UNL     1       1.229  16.955  18.973  0.00  0.00    +0.000 N 
ATOM     19  N   UNL     1      -0.068  14.997  18.801  0.00  0.00    +0.000 NA
ATOM     20  C   UNL     1      -0.157  13.650  18.755  0.00  0.00    +0.000 A 
ATOM     21  C   UNL     1      -1.542  13.053  18.749  0.00  0.00    +0.000 C 
ATOM     22  H   UNL     1       1.689  17.255  19.830  0.00  0.00    +0.000 HD
ENDROOT
BRANCH  18  23
ATOM     23  C   UNL     1       0.030  17.695  18.572  0.00  0.00    +0.000 C 
ATOM     24  C   UNL     1      -0.492  18.629  19.663  0.00  0.00    +0.000 C 
ATOM     25  C   UNL     1       0.351  18.501  17.311  0.00  0.00    +0.000 C 
ENDBRANCH  18  23
BRANCH  13  26
ATOM     26  O   UNL     1       7.617  16.540  19.710  0.00  0.00    +0.000 OA
BRANCH  26  27
ATOM     27  C   UNL     1       8.801  15.859  19.573  0.00  0.00    +0.000 A 
ATOM     28  C   UNL     1       9.366  15.428  20.779  0.00  0.00    +0.000 A 
ATOM     29  C   UNL     1      10.566  14.702  20.784  0.00  0.00    +0.000 A 
ATOM     30  C   UNL     1      11.193  14.404  19.578  0.00  0.00    +0.000 A 
ATOM     31  F   UNL     1      12.332  13.703  19.579  0.00  0.00    +0.000 F 
ATOM     32  C   UNL     1      10.659  14.833  18.375  0.00  0.00    +0.000 A 
ATOM     33  C   UNL     1       9.474  15.562  18.377  0.00  0.00    +0.000 A 
ATOM     34  F   UNL     1       9.026  15.980  17.186  0.00  0.00    +0.000 F 
ENDBRANCH  26  27
ENDBRANCH  13  26
TORSDOF 3
ENDMDL
MODEL 7
REMARK VINA RESULT:      -6.4      4.991      9.378
REMARK  Name = 
REMARK  6 active torsions:
REMARK  status: ('A' for Active; 'I' for Inactive)
REMARK    1  A    between atoms: C_1  and  C_2
REMARK    2  A    between atoms: C_13  and  O_14
REMARK    3  A    between atoms: O_14  and  C_15
REMARK    4  A    between atoms: N_27  and  C_28
REMARK    5  A    between atoms: C_28  and  C_29
REMARK    6  A    between atoms: C_28  and  C_30
REMARK                            x       y       z     vdW  Elec       q    Type
REMARK                         _______ _______ _______ _____ _____    ______ ____
ROOT
ATOM      1  C   UNL     1       2.619   3.704  17.631  0.00  0.00    +0.000 C 
ATOM      2  C   UNL     1       1.971   4.533  18.719  0.00  0.00    +0.000 C 
ATOM      3  O   UNL     1       1.163   4.002  19.483  0.00  0.00    +0.000 OA
ATOM      4  N   UNL     1       2.337   5.863  18.821  0.00  0.00    +0.000 N 
ATOM      5  C   UNL     1       3.358   6.539  18.032  0.00  0.00    +0.000 C 
ATOM      6  C   UNL     1       2.829   7.876  17.513  0.00  0.00    +0.000 C 
ATOM      7  C   UNL     1       2.218   8.699  18.612  0.00  0.00    +0.000 A 
ATOM      8  N   UNL     1       2.173  10.043  18.439  0.00  0.00    +0.000 NA
ATOM      9  C   UNL     1       1.564  10.794  19.401  0.00  0.00    +0.000 A 
ATOM     10  N   UNL     1       1.633  12.198  19.263  0.00  0.00    +0.000 N 
ATOM     11  C   UNL     1       2.548  12.655  18.199  0.00  0.00    +0.000 C 
ATOM     12  C   UNL     1       2.803  14.163  18.322  0.00  0.00    +0.000 C 
ATOM     13  C   UNL     1       1.474  14.924  18.330  0.00  0.00    +0.000 C 
ATOM     14  C   UNL     1       0.605  14.412  19.485  0.00  0.00    +0.000 C 
ATOM     15  F   UNL     1       1.263  14.601  20.671  0.00  0.00    +0.000 F 
ATOM     16  C   UNL     1       0.343  12.916  19.292  0.00  0.00    +0.000 C 
ATOM     17  C   UNL     1       0.958  10.147  20.529  0.00  0.00    +0.000 A 
ATOM     18  N   UNL     1       0.282  10.867  21.531  0.00  0.00    +0.000 N 
ATOM     19  N   UNL     1       1.021   8.800  20.677  0.00  0.00    +0.000 NA
ATOM     20  C   UNL     1       1.666   8.087  19.729  0.00  0.00    +0.000 A 
ATOM     21  C   UNL     1       1.839   6.610  19.979  0.00  0.00    +0.000 C 
ATOM     22  H   UNL     1       0.901  11.564  21.939  0.00  0.00    +0.000 HD
ENDROOT
BRANCH  18  23
ATOM     23  C   UNL     1      -0.552  10.100  22.460  0.00  0.00    +0.000 C 
ATOM     24  C   UNL     1       0.255   9.397  23.551  0.00  0.00    +0.000 C 
ATOM     25  C   UNL     1      -1.572  11.046  23.098  0.00  0.00    +0.000 C 
ENDBRANCH  18  23
BRANCH  13  26
ATOM     26  O   UNL     1       1.718  16.335  18.441  0.00  0.00    +0.000 OA
BRANCH  26  27
ATOM     27  C   UNL     1       2.869  16.739  19.070  0.00  0.00    +0.000 A 
ATOM     28  C   UNL     1       4.029  16.615  18.295  0.00  0.00    +0.000 A 
ATOM     29  C   UNL     1       5.273  17.009  18.807  0.00  0.00    +0.000 A 
ATOM     30  C   UNL     1       5.351  17.535  20.093  0.00  0.00    +0.000 A 
ATOM     31  F   UNL     1       6.535  17.922  20.580  0.00  0.00    +0.000 F 
ATOM     32  C   UNL     1       4.220  17.654  20.881  0.00  0.00    +0.000 A 
ATOM     33  C   UNL     1       2.989  17.251  20.373  0.00  0.00    +0.000 A 
ATOM     34  F   UNL     1       1.937  17.356  21.194  0.00  0.00    +0.000 F 
ENDBRANCH  26  27
ENDBRANCH  13  26
TORSDOF 3
ENDMDL
MODEL 8
REMARK VINA RESULT:      -6.4      4.614      6.095
REMARK  Name = 
REMARK  6 active torsions:
REMARK  status: ('A' for Active; 'I' for Inactive)
REMARK    1  A    between atoms: C_1  and  C_2
REMARK    2  A    between atoms: C_13  and  O_14
REMARK    3  A    between atoms: O_14  and  C_15
REMARK    4  A    between atoms: N_27  and  C_28
REMARK    5  A    between atoms: C_28  and  C_29
REMARK    6  A    between atoms: C_28  and  C_30
REMARK                            x       y       z     vdW  Elec       q    Type
REMARK                         _______ _______ _______ _____ _____    ______ ____
ROOT
ATOM      1  C   UNL     1      -7.375  13.551  21.947  0.00  0.00    +0.000 C 
ATOM      2  C   UNL     1      -6.318  12.643  21.358  0.00  0.00    +0.000 C 
ATOM      3  O   UNL     1      -6.474  11.422  21.409  0.00  0.00    +0.000 OA
ATOM      4  N   UNL     1      -5.218  13.234  20.763  0.00  0.00    +0.000 N 
ATOM      5  C   UNL     1      -5.008  14.663  20.567  0.00  0.00    +0.000 C 
ATOM      6  C   UNL     1      -3.594  15.055  20.996  0.00  0.00    +0.000 C 
ATOM      7  C   UNL     1      -2.555  14.162  20.377  0.00  0.00    +0.000 A 
ATOM      8  N   UNL     1      -1.301  14.659  20.242  0.00  0.00    +0.000 NA
ATOM      9  C   UNL     1      -0.336  13.837  19.740  0.00  0.00    +0.000 A 
ATOM     10  N   UNL     1       0.934  14.406  19.495  0.00  0.00    +0.000 N 
ATOM     11  C   UNL     1       0.968  15.876  19.617  0.00  0.00    +0.000 C 
ATOM     12  C   UNL     1       2.275  16.432  19.037  0.00  0.00    +0.000 C 
ATOM     13  C   UNL     1       3.477  15.752  19.698  0.00  0.00    +0.000 C 
ATOM     14  C   UNL     1       3.379  14.236  19.489  0.00  0.00    +0.000 C 
ATOM     15  F   UNL     1       3.359  13.959  18.149  0.00  0.00    +0.000 F 
ATOM     16  C   UNL     1       2.082  13.725  20.124  0.00  0.00    +0.000 C 
ATOM     17  C   UNL     1      -0.659  12.477  19.417  0.00  0.00    +0.000 A 
ATOM     18  N   UNL     1       0.304  11.572  18.933  0.00  0.00    +0.000 N 
ATOM     19  N   UNL     1      -1.924  12.008  19.559  0.00  0.00    +0.000 NA
ATOM     20  C   UNL     1      -2.868  12.858  20.020  0.00  0.00    +0.000 A 
ATOM     21  C   UNL     1      -4.290  12.356  20.046  0.00  0.00    +0.000 C 
ATOM     22  H   UNL     1       0.737  11.939  18.089  0.00  0.00    +0.000 HD
ENDROOT
BRANCH  18  23
ATOM     23  C   UNL     1      -0.054  10.151  18.928  0.00  0.00    +0.000 C 
ATOM     24  C   UNL     1       0.755   9.332  17.923  0.00  0.00    +0.000 C 
ATOM     25  C   UNL     1       0.149   9.589  20.337  0.00  0.00    +0.000 C 
ENDBRANCH  18  23
BRANCH  13  26
ATOM     26  O   UNL     1       4.699  16.278  19.155  0.00  0.00    +0.000 OA
BRANCH  26  27
ATOM     27  C   UNL     1       5.853  15.565  19.367  0.00  0.00    +0.000 A 
ATOM     28  C   UNL     1       6.504  15.155  18.197  0.00  0.00    +0.000 A 
ATOM     29  C   UNL     1       7.706  14.434  18.266  0.00  0.00    +0.000 A 
ATOM     30  C   UNL     1       8.255  14.134  19.508  0.00  0.00    +0.000 A 
ATOM     31  F   UNL     1       9.406  13.456  19.577  0.00  0.00    +0.000 F 
ATOM     32  C   UNL     1       7.620  14.517  20.677  0.00  0.00    +0.000 A 
ATOM     33  C   UNL     1       6.423  15.222  20.603  0.00  0.00    +0.000 A 
ATOM     34  F   UNL     1       5.837  15.533  21.766  0.00  0.00    +0.000 F 
ENDBRANCH  26  27
ENDBRANCH  13  26
TORSDOF 3
ENDMDL
MODEL 9
REMARK VINA RESULT:      -6.4      4.429     10.989
REMARK  Name = 
REMARK  6 active torsions:
REMARK  status: ('A' for Active; 'I' for Inactive)
REMARK    1  A    between atoms: C_1  and  C_2
REMARK    2  A    between atoms: C_13  and  O_14
REMARK    3  A    between atoms: O_14  and  C_15
REMARK    4  A    between atoms: N_27  and  C_28
REMARK    5  A    between atoms: C_28  and  C_29
REMARK    6  A    between atoms: C_28  and  C_30
REMARK                            x       y       z     vdW  Elec       q    Type
REMARK                         _______ _______ _______ _____ _____    ______ ____
ROOT
ATOM      1  C   UNL     1       6.873   4.981  14.040  0.00  0.00    +0.000 C 
ATOM      2  C   UNL     1       6.118   4.358  15.194  0.00  0.00    +0.000 C 
ATOM      3  O   UNL     1       5.941   3.139  15.213  0.00  0.00    +0.000 OA
ATOM      4  N   UNL     1       5.673   5.196  16.201  0.00  0.00    +0.000 N 
ATOM      5  C   UNL     1       5.931   6.626  16.309  0.00  0.00    +0.000 C 
ATOM      6  C   UNL     1       4.639   7.375  16.637  0.00  0.00    +0.000 C 
ATOM      7  C   UNL     1       3.920   6.761  17.805  0.00  0.00    +0.000 A 
ATOM      8  N   UNL     1       3.082   7.558  18.514  0.00  0.00    +0.000 NA
ATOM      9  C   UNL     1       2.376   6.997  19.537  0.00  0.00    +0.000 A 
ATOM     10  N   UNL     1       1.602   7.865  20.339  0.00  0.00    +0.000 N 
ATOM     11  C   UNL     1       1.842   9.298  20.081  0.00  0.00    +0.000 C 
ATOM     12  C   UNL     1       1.212  10.154  21.187  0.00  0.00    +0.000 C 
ATOM     13  C   UNL     1      -0.274   9.818  21.333  0.00  0.00    +0.000 C 
ATOM     14  C   UNL     1      -0.427   8.323  21.636  0.00  0.00    +0.000 C 
ATOM     15  F   UNL     1       0.240   8.018  22.792  0.00  0.00    +0.000 F 
ATOM     16  C   UNL     1       0.176   7.513  20.484  0.00  0.00    +0.000 C 
ATOM     17  C   UNL     1       2.503   5.592  19.801  0.00  0.00    +0.000 A 
ATOM     18  N   UNL     1       1.771   4.952  20.817  0.00  0.00    +0.000 N 
ATOM     19  N   UNL     1       3.352   4.821  19.077  0.00  0.00    +0.000 NA
ATOM     20  C   UNL     1       4.068   5.412  18.096  0.00  0.00    +0.000 A 
ATOM     21  C   UNL     1       5.099   4.566  17.393  0.00  0.00    +0.000 C 
ATOM     22  H   UNL     1       1.951   5.397  21.714  0.00  0.00    +0.000 HD
ENDROOT
BRANCH  18  23
ATOM     23  C   UNL     1       1.742   3.487  20.801  0.00  0.00    +0.000 C 
ATOM     24  C   UNL     1       1.477   2.877  22.177  0.00  0.00    +0.000 C 
ATOM     25  C   UNL     1       0.665   3.028  19.815  0.00  0.00    +0.000 C 
ENDBRANCH  18  23
BRANCH  13  26
ATOM     26  O   UNL     1      -0.861  10.625  22.367  0.00  0.00    +0.000 OA
BRANCH  26  27
ATOM     27  C   UNL     1      -1.653  11.679  21.983  0.00  0.00    +0.000 A 
ATOM     28  C   UNL     1      -1.334  12.219  20.731  0.00  0.00    +0.000 A 
ATOM     29  C   UNL     1      -2.076  13.288  20.206  0.00  0.00    +0.000 A 
ATOM     30  C   UNL     1      -3.142  13.806  20.935  0.00  0.00    +0.000 A 
ATOM     31  F   UNL     1      -3.858  14.818  20.433  0.00  0.00    +0.000 F 
ATOM     32  C   UNL     1      -3.465  13.296  22.181  0.00  0.00    +0.000 A 
ATOM     33  C   UNL     1      -2.719  12.244  22.701  0.00  0.00    +0.000 A 
ATOM     34  F   UNL     1      -3.056  11.818  23.925  0.00  0.00    +0.000 F 
ENDBRANCH  26  27
ENDBRANCH  13  26
TORSDOF 3
ENDMDL
