MODEL 1
REMARK VINA RESULT:      -8.6      0.000      0.000
REMARK  Name = 
REMARK  7 active torsions:
REMARK  status: ('A' for Active; 'I' for Inactive)
REMARK    1  A    between atoms: C_2  and  C_3
REMARK    2  A    between atoms: C_3  and  C_4
REMARK    3  A    between atoms: C_3  and  C_14
REMARK    4  A    between atoms: N_6  and  C_7
REMARK    5  A    between atoms: C_7  and  C_8
REMARK    6  A    between atoms: N_10  and  C_11
REMARK    7  A    between atoms: C_19  and  C_20
REMARK                            x       y       z     vdW  Elec       q    Type
REMARK                         _______ _______ _______ _____ _____    ______ ____
ROOT
ATOM      1  C   UNL     1       3.864   3.932  19.027  0.00  0.00    +0.000 C 
ENDROOT
BRANCH   1   2
ATOM      2  C   UNL     1       3.171   5.217  19.352  0.00  0.00    +0.000 A 
ATOM      3  N   UNL     1       3.129   6.244  18.529  0.00  0.00    +0.000 NA
ATOM      4  C   UNL     1       2.384   7.269  19.086  0.00  0.00    +0.000 A 
ATOM      5  C   UNL     1       2.123   8.515  18.494  0.00  0.00    +0.000 A 
ATOM      6  C   UNL     1       1.319   9.445  19.168  0.00  0.00    +0.000 A 
ATOM      7  C   UNL     1       0.746   9.168  20.422  0.00  0.00    +0.000 A 
ATOM      8  C   UNL     1       1.031   7.926  21.019  0.00  0.00    +0.000 A 
ATOM      9  C   UNL     1       1.846   7.002  20.343  0.00  0.00    +0.000 A 
ATOM     10  S   UNL     1       2.335   5.437  20.844  0.00  0.00    +0.000 S 
BRANCH   7  11
ATOM     11  C   UNL     1      -0.141  10.147  21.093  0.00  0.00    +0.000 A 
ATOM     12  C   UNL     1      -0.780  11.169  20.367  0.00  0.00    +0.000 A 
ATOM     13  C   UNL     1      -1.614  12.100  20.993  0.00  0.00    +0.000 A 
ATOM     14  C   UNL     1      -1.843  12.019  22.362  0.00  0.00    +0.000 A 
ATOM     15  C   UNL     1      -1.238  11.010  23.103  0.00  0.00    +0.000 A 
ATOM     16  C   UNL     1      -0.393  10.089  22.477  0.00  0.00    +0.000 A 
ENDBRANCH   7  11
ENDBRANCH   1   2
BRANCH   1  17
ATOM     17  C   UNL     1       5.300   4.228  18.552  0.00  0.00    +0.000 C 
ATOM     18  O   UNL     1       6.196   4.593  19.315  0.00  0.00    +0.000 OA
ATOM     19  N   UNL     1       5.564   4.099  17.203  0.00  0.00    +0.000 N 
ATOM     20  H   UNL     1       4.869   3.756  16.542  0.00  0.00    +0.000 HD
BRANCH  19  21
ATOM     21  C   UNL     1       6.925   4.262  16.695  0.00  0.00    +0.000 C 
BRANCH  21  22
ATOM     22  C   UNL     1       6.918   4.636  15.214  0.00  0.00    +0.000 C 
ATOM     23  O   UNL     1       7.611   5.557  14.780  0.00  0.00    +0.000 OA
ATOM     24  N   UNL     1       6.075   3.870  14.427  0.00  0.00    +0.000 N 
ATOM     25  H   UNL     1       5.505   3.147  14.852  0.00  0.00    +0.000 HD
BRANCH  24  26
ATOM     26  C   UNL     1       5.947   4.103  13.020  0.00  0.00    +0.000 C 
ATOM     27  C   UNL     1       6.765   3.293  12.052  0.00  0.00    +0.000 C 
ATOM     28  C   UNL     1       5.276   3.120  12.100  0.00  0.00    +0.000 C 
ENDBRANCH  24  26
ENDBRANCH  21  22
ENDBRANCH  19  21
ENDBRANCH   1  17
BRANCH   1  30
ATOM     29  N   UNL     1       2.496   2.644  16.976  0.00  0.00    +0.000 NA
ATOM     30  C   UNL     1       3.116   3.228  17.906  0.00  0.00    +0.000 C 
ENDBRANCH   1  30
TORSDOF 7
ENDMDL
MODEL 2
REMARK VINA RESULT:      -8.4      0.576      1.092
REMARK  Name = 
REMARK  7 active torsions:
REMARK  status: ('A' for Active; 'I' for Inactive)
REMARK    1  A    between atoms: C_2  and  C_3
REMARK    2  A    between atoms: C_3  and  C_4
REMARK    3  A    between atoms: C_3  and  C_14
REMARK    4  A    between atoms: N_6  and  C_7
REMARK    5  A    between atoms: C_7  and  C_8
REMARK    6  A    between atoms: N_10  and  C_11
REMARK    7  A    between atoms: C_19  and  C_20
REMARK                            x       y       z     vdW  Elec       q    Type
REMARK                         _______ _______ _______ _____ _____    ______ ____
ROOT
ATOM      1  C   UNL     1       3.964   4.285  18.578  0.00  0.00    +0.000 C 
ENDROOT
BRANCH   1   2
ATOM      2  C   UNL     1       3.239   5.530  18.982  0.00  0.00    +0.000 A 
ATOM      3  N   UNL     1       3.081   6.566  18.184  0.00  0.00    +0.000 NA
ATOM      4  C   UNL     1       2.335   7.544  18.818  0.00  0.00    +0.000 A 
ATOM      5  C   UNL     1       1.968   8.784  18.273  0.00  0.00    +0.000 A 
ATOM      6  C   UNL     1       1.178   9.663  19.027  0.00  0.00    +0.000 A 
ATOM      7  C   UNL     1       0.723   9.340  20.318  0.00  0.00    +0.000 A 
ATOM      8  C   UNL     1       1.115   8.105  20.866  0.00  0.00    +0.000 A 
ATOM      9  C   UNL     1       1.915   7.233  20.110  0.00  0.00    +0.000 A 
ATOM     10  S   UNL     1       2.519   5.686  20.541  0.00  0.00    +0.000 S 
BRANCH   7  11
ATOM     11  C   UNL     1      -0.153  10.264  21.076  0.00  0.00    +0.000 A 
ATOM     12  C   UNL     1      -0.426  10.054  22.441  0.00  0.00    +0.000 A 
ATOM     13  C   UNL     1      -1.257  10.917  23.162  0.00  0.00    +0.000 A 
ATOM     14  C   UNL     1      -1.821  12.024  22.536  0.00  0.00    +0.000 A 
ATOM     15  C   UNL     1      -1.556  12.266  21.193  0.00  0.00    +0.000 A 
ATOM     16  C   UNL     1      -0.737  11.392  20.470  0.00  0.00    +0.000 A 
ENDBRANCH   7  11
ENDBRANCH   1   2
BRANCH   1  17
ATOM     17  C   UNL     1       5.288   4.664  17.886  0.00  0.00    +0.000 C 
ATOM     18  O   UNL     1       6.018   5.574  18.285  0.00  0.00    +0.000 OA
ATOM     19  N   UNL     1       5.640   3.957  16.753  0.00  0.00    +0.000 N 
ATOM     20  H   UNL     1       5.094   3.167  16.412  0.00  0.00    +0.000 HD
BRANCH  19  21
ATOM     21  C   UNL     1       6.929   4.189  16.104  0.00  0.00    +0.000 C 
BRANCH  21  22
ATOM     22  C   UNL     1       6.751   4.472  14.614  0.00  0.00    +0.000 C 
ATOM     23  O   UNL     1       7.013   5.576  14.133  0.00  0.00    +0.000 OA
ATOM     24  N   UNL     1       6.272   3.404  13.875  0.00  0.00    +0.000 N 
ATOM     25  H   UNL     1       6.044   2.531  14.336  0.00  0.00    +0.000 HD
BRANCH  24  26
ATOM     26  C   UNL     1       6.041   3.513  12.466  0.00  0.00    +0.000 C 
ATOM     27  C   UNL     1       5.717   2.283  11.665  0.00  0.00    +0.000 C 
ATOM     28  C   UNL     1       4.675   3.344  11.859  0.00  0.00    +0.000 C 
ENDBRANCH  24  26
ENDBRANCH  21  22
ENDBRANCH  19  21
ENDBRANCH   1  17
BRANCH   1  30
ATOM     29  N   UNL     1       2.399   2.852  16.781  0.00  0.00    +0.000 NA
ATOM     30  C   UNL     1       3.109   3.502  17.596  0.00  0.00    +0.000 C 
ENDBRANCH   1  30
TORSDOF 7
ENDMDL
MODEL 3
REMARK VINA RESULT:      -8.2      0.951      1.025
REMARK  Name = 
REMARK  7 active torsions:
REMARK  status: ('A' for Active; 'I' for Inactive)
REMARK    1  A    between atoms: C_2  and  C_3
REMARK    2  A    between atoms: C_3  and  C_4
REMARK    3  A    between atoms: C_3  and  C_14
REMARK    4  A    between atoms: N_6  and  C_7
REMARK    5  A    between atoms: C_7  and  C_8
REMARK    6  A    between atoms: N_10  and  C_11
REMARK    7  A    between atoms: C_19  and  C_20
REMARK                            x       y       z     vdW  Elec       q    Type
REMARK                         _______ _______ _______ _____ _____    ______ ____
ROOT
ATOM      1  C   UNL     1       4.108   3.973  19.099  0.00  0.00    +0.000 C 
ENDROOT
BRANCH   1   2
ATOM      2  C   UNL     1       3.423   5.300  19.187  0.00  0.00    +0.000 A 
ATOM      3  N   UNL     1       3.417   6.177  18.205  0.00  0.00    +0.000 NA
ATOM      4  C   UNL     1       2.670   7.286  18.562  0.00  0.00    +0.000 A 
ATOM      5  C   UNL     1       2.442   8.419  17.766  0.00  0.00    +0.000 A 
ATOM      6  C   UNL     1       1.632   9.454  18.254  0.00  0.00    +0.000 A 
ATOM      7  C   UNL     1       1.021   9.393  19.518  0.00  0.00    +0.000 A 
ATOM      8  C   UNL     1       1.274   8.265  20.320  0.00  0.00    +0.000 A 
ATOM      9  C   UNL     1       2.094   7.235  19.830  0.00  0.00    +0.000 A 
ATOM     10  S   UNL     1       2.550   5.770  20.597  0.00  0.00    +0.000 S 
BRANCH   7  11
ATOM     11  C   UNL     1       0.128  10.477  19.992  0.00  0.00    +0.000 A 
ATOM     12  C   UNL     1      -1.040  10.819  19.287  0.00  0.00    +0.000 A 
ATOM     13  C   UNL     1      -1.885  11.844  19.723  0.00  0.00    +0.000 A 
ATOM     14  C   UNL     1      -1.588  12.540  20.890  0.00  0.00    +0.000 A 
ATOM     15  C   UNL     1      -0.448  12.214  21.617  0.00  0.00    +0.000 A 
ATOM     16  C   UNL     1       0.403  11.198  21.169  0.00  0.00    +0.000 A 
ENDBRANCH   7  11
ENDBRANCH   1   2
BRANCH   1  17
ATOM     17  C   UNL     1       5.425   4.126  18.314  0.00  0.00    +0.000 C 
ATOM     18  O   UNL     1       6.500   4.393  18.855  0.00  0.00    +0.000 OA
ATOM     19  N   UNL     1       5.371   3.979  16.942  0.00  0.00    +0.000 N 
ATOM     20  H   UNL     1       4.517   3.712  16.456  0.00  0.00    +0.000 HD
BRANCH  19  21
ATOM     21  C   UNL     1       6.595   4.007  16.144  0.00  0.00    +0.000 C 
BRANCH  21  22
ATOM     22  C   UNL     1       6.296   4.370  14.691  0.00  0.00    +0.000 C 
ATOM     23  O   UNL     1       6.019   5.524  14.360  0.00  0.00    +0.000 OA
ATOM     24  N   UNL     1       6.355   3.308  13.805  0.00  0.00    +0.000 N 
ATOM     25  H   UNL     1       6.556   2.375  14.147  0.00  0.00    +0.000 HD
BRANCH  24  26
ATOM     26  C   UNL     1       6.089   3.482  12.409  0.00  0.00    +0.000 C 
ATOM     27  C   UNL     1       5.644   2.308  11.581  0.00  0.00    +0.000 C 
ATOM     28  C   UNL     1       4.696   3.440  11.844  0.00  0.00    +0.000 C 
ENDBRANCH  24  26
ENDBRANCH  21  22
ENDBRANCH  19  21
ENDBRANCH   1  17
BRANCH   1  30
ATOM     29  N   UNL     1       2.468   2.181  17.744  0.00  0.00    +0.000 NA
ATOM     30  C   UNL     1       3.212   2.993  18.358  0.00  0.00    +0.000 C 
ENDBRANCH   1  30
TORSDOF 7
ENDMDL
MODEL 4
REMARK VINA RESULT:      -8.2      1.590      2.163
REMARK  Name = 
REMARK  7 active torsions:
REMARK  status: ('A' for Active; 'I' for Inactive)
REMARK    1  A    between atoms: C_2  and  C_3
REMARK    2  A    between atoms: C_3  and  C_4
REMARK    3  A    between atoms: C_3  and  C_14
REMARK    4  A    between atoms: N_6  and  C_7
REMARK    5  A    between atoms: C_7  and  C_8
REMARK    6  A    between atoms: N_10  and  C_11
REMARK    7  A    between atoms: C_19  and  C_20
REMARK                            x       y       z     vdW  Elec       q    Type
REMARK                         _______ _______ _______ _____ _____    ______ ____
ROOT
ATOM      1  C   UNL     1       4.160   4.109  19.236  0.00  0.00    +0.000 C 
ENDROOT
BRANCH   1   2
ATOM      2  C   UNL     1       3.367   5.376  19.276  0.00  0.00    +0.000 A 
ATOM      3  N   UNL     1       2.763   5.818  20.359  0.00  0.00    +0.000 NA
ATOM      4  C   UNL     1       2.148   7.030  20.101  0.00  0.00    +0.000 A 
ATOM      5  C   UNL     1       1.413   7.795  21.019  0.00  0.00    +0.000 A 
ATOM      6  C   UNL     1       0.875   9.026  20.619  0.00  0.00    +0.000 A 
ATOM      7  C   UNL     1       1.058   9.536  19.321  0.00  0.00    +0.000 A 
ATOM      8  C   UNL     1       1.776   8.752  18.399  0.00  0.00    +0.000 A 
ATOM      9  C   UNL     1       2.305   7.515  18.804  0.00  0.00    +0.000 A 
ATOM     10  S   UNL     1       3.211   6.384  17.886  0.00  0.00    +0.000 S 
BRANCH   7  11
ATOM     11  C   UNL     1       0.523  10.863  18.935  0.00  0.00    +0.000 A 
ATOM     12  C   UNL     1       1.316  12.022  19.023  0.00  0.00    +0.000 A 
ATOM     13  C   UNL     1       0.817  13.278  18.667  0.00  0.00    +0.000 A 
ATOM     14  C   UNL     1      -0.486  13.401  18.196  0.00  0.00    +0.000 A 
ATOM     15  C   UNL     1      -1.288  12.271  18.084  0.00  0.00    +0.000 A 
ATOM     16  C   UNL     1      -0.791  11.018  18.455  0.00  0.00    +0.000 A 
ENDBRANCH   7  11
ENDBRANCH   1   2
BRANCH   1  17
ATOM     17  C   UNL     1       5.512   4.369  18.542  0.00  0.00    +0.000 C 
ATOM     18  O   UNL     1       6.463   4.909  19.109  0.00  0.00    +0.000 OA
ATOM     19  N   UNL     1       5.630   3.997  17.218  0.00  0.00    +0.000 N 
ATOM     20  H   UNL     1       4.888   3.506  16.721  0.00  0.00    +0.000 HD
BRANCH  19  21
ATOM     21  C   UNL     1       6.911   4.117  16.525  0.00  0.00    +0.000 C 
BRANCH  21  22
ATOM     22  C   UNL     1       6.714   4.543  15.072  0.00  0.00    +0.000 C 
ATOM     23  O   UNL     1       6.903   5.705  14.709  0.00  0.00    +0.000 OA
ATOM     24  N   UNL     1       6.303   3.529  14.222  0.00  0.00    +0.000 N 
ATOM     25  H   UNL     1       6.132   2.600  14.590  0.00  0.00    +0.000 HD
BRANCH  24  26
ATOM     26  C   UNL     1       6.063   3.769  12.831  0.00  0.00    +0.000 C 
ATOM     27  C   UNL     1       6.943   3.122  11.799  0.00  0.00    +0.000 C 
ATOM     28  C   UNL     1       5.505   2.713  11.917  0.00  0.00    +0.000 C 
ENDBRANCH  24  26
ENDBRANCH  21  22
ENDBRANCH  19  21
ENDBRANCH   1  17
BRANCH   1  30
ATOM     29  N   UNL     1       2.764   2.197  17.776  0.00  0.00    +0.000 NA
ATOM     30  C   UNL     1       3.397   3.064  18.438  0.00  0.00    +0.000 C 
ENDBRANCH   1  30
TORSDOF 7
ENDMDL
MODEL 5
REMARK VINA RESULT:      -7.7      1.707      2.822
REMARK  Name = 
REMARK  7 active torsions:
REMARK  status: ('A' for Active; 'I' for Inactive)
REMARK    1  A    between atoms: C_2  and  C_3
REMARK    2  A    between atoms: C_3  and  C_4
REMARK    3  A    between atoms: C_3  and  C_14
REMARK    4  A    between atoms: N_6  and  C_7
REMARK    5  A    between atoms: C_7  and  C_8
REMARK    6  A    between atoms: N_10  and  C_11
REMARK    7  A    between atoms: C_19  and  C_20
REMARK                            x       y       z     vdW  Elec       q    Type
REMARK                         _______ _______ _______ _____ _____    ______ ____
ROOT
ATOM      1  C   UNL     1       3.620   3.606  18.957  0.00  0.00    +0.000 C 
ENDROOT
BRANCH   1   2
ATOM      2  C   UNL     1       3.025   4.932  19.312  0.00  0.00    +0.000 A 
ATOM      3  N   UNL     1       3.043   5.972  18.505  0.00  0.00    +0.000 NA
ATOM      4  C   UNL     1       2.382   7.039  19.089  0.00  0.00    +0.000 A 
ATOM      5  C   UNL     1       2.201   8.308  18.520  0.00  0.00    +0.000 A 
ATOM      6  C   UNL     1       1.476   9.282  19.221  0.00  0.00    +0.000 A 
ATOM      7  C   UNL     1       0.905   9.028  20.480  0.00  0.00    +0.000 A 
ATOM      8  C   UNL     1       1.111   7.760  21.054  0.00  0.00    +0.000 A 
ATOM      9  C   UNL     1       1.847   6.791  20.351  0.00  0.00    +0.000 A 
ATOM     10  S   UNL     1       2.233   5.187  20.822  0.00  0.00    +0.000 S 
BRANCH   7  11
ATOM     11  C   UNL     1       0.100  10.056  21.180  0.00  0.00    +0.000 A 
ATOM     12  C   UNL     1      -0.365   9.849  22.492  0.00  0.00    +0.000 A 
ATOM     13  C   UNL     1      -1.130  10.812  23.157  0.00  0.00    +0.000 A 
ATOM     14  C   UNL     1      -1.434  12.015  22.529  0.00  0.00    +0.000 A 
ATOM     15  C   UNL     1      -0.974  12.254  21.239  0.00  0.00    +0.000 A 
ATOM     16  C   UNL     1      -0.221  11.283  20.571  0.00  0.00    +0.000 A 
ENDBRANCH   7  11
ENDBRANCH   1   2
BRANCH   1  17
ATOM     17  C   UNL     1       4.139   3.648  17.506  0.00  0.00    +0.000 C 
ATOM     18  O   UNL     1       3.401   3.524  16.527  0.00  0.00    +0.000 OA
ATOM     19  N   UNL     1       5.498   3.804  17.319  0.00  0.00    +0.000 N 
ATOM     20  H   UNL     1       6.140   3.956  18.095  0.00  0.00    +0.000 HD
BRANCH  19  21
ATOM     21  C   UNL     1       6.050   3.955  15.974  0.00  0.00    +0.000 C 
BRANCH  21  22
ATOM     22  C   UNL     1       6.938   5.194  15.880  0.00  0.00    +0.000 C 
ATOM     23  O   UNL     1       7.555   5.466  14.849  0.00  0.00    +0.000 OA
ATOM     24  N   UNL     1       6.992   5.957  17.034  0.00  0.00    +0.000 N 
ATOM     25  H   UNL     1       6.487   5.660  17.861  0.00  0.00    +0.000 HD
BRANCH  24  26
ATOM     26  C   UNL     1       7.790   7.143  17.110  0.00  0.00    +0.000 C 
ATOM     27  C   UNL     1       7.174   8.429  17.588  0.00  0.00    +0.000 C 
ATOM     28  C   UNL     1       8.215   7.744  18.422  0.00  0.00    +0.000 C 
ENDBRANCH  24  26
ENDBRANCH  21  22
ENDBRANCH  19  21
ENDBRANCH   1  17
BRANCH   1  30
ATOM     29  N   UNL     1       1.662   1.641  19.146  0.00  0.00    +0.000 NA
ATOM     30  C   UNL     1       2.550   2.532  19.060  0.00  0.00    +0.000 C 
ENDBRANCH   1  30
TORSDOF 7
ENDMDL
MODEL 6
REMARK VINA RESULT:      -7.7      5.917     10.022
REMARK  Name = 
REMARK  7 active torsions:
REMARK  status: ('A' for Active; 'I' for Inactive)
REMARK    1  A    between atoms: C_2  and  C_3
REMARK    2  A    between atoms: C_3  and  C_4
REMARK    3  A    between atoms: C_3  and  C_14
REMARK    4  A    between atoms: N_6  and  C_7
REMARK    5  A    between atoms: C_7  and  C_8
REMARK    6  A    between atoms: N_10  and  C_11
REMARK    7  A    between atoms: C_19  and  C_20
REMARK                            x       y       z     vdW  Elec       q    Type
REMARK                         _______ _______ _______ _____ _____    ______ ____
ROOT
ATOM      1  C   UNL     1      -1.417  12.178  22.875  0.00  0.00    +0.000 C 
ENDROOT
BRANCH   1   2
ATOM      2  C   UNL     1      -0.707  11.258  21.933  0.00  0.00    +0.000 A 
ATOM      3  N   UNL     1      -0.522  11.530  20.658  0.00  0.00    +0.000 NA
ATOM      4  C   UNL     1       0.201  10.515  20.055  0.00  0.00    +0.000 A 
ATOM      5  C   UNL     1       0.586  10.465  18.707  0.00  0.00    +0.000 A 
ATOM      6  C   UNL     1       1.350   9.383  18.246  0.00  0.00    +0.000 A 
ATOM      7  C   UNL     1       1.760   8.342  19.097  0.00  0.00    +0.000 A 
ATOM      8  C   UNL     1       1.350   8.387  20.442  0.00  0.00    +0.000 A 
ATOM      9  C   UNL     1       0.577   9.469  20.895  0.00  0.00    +0.000 A 
ATOM     10  S   UNL     1      -0.041   9.761  22.469  0.00  0.00    +0.000 S 
BRANCH   7  11
ATOM     11  C   UNL     1       2.609   7.234  18.599  0.00  0.00    +0.000 A 
ATOM     12  C   UNL     1       2.454   5.922  19.083  0.00  0.00    +0.000 A 
ATOM     13  C   UNL     1       3.255   4.873  18.623  0.00  0.00    +0.000 A 
ATOM     14  C   UNL     1       4.222   5.110  17.652  0.00  0.00    +0.000 A 
ATOM     15  C   UNL     1       4.388   6.393  17.144  0.00  0.00    +0.000 A 
ATOM     16  C   UNL     1       3.595   7.444  17.616  0.00  0.00    +0.000 A 
ENDBRANCH   7  11
ENDBRANCH   1   2
BRANCH   1  17
ATOM     17  C   UNL     1      -2.870  12.379  22.400  0.00  0.00    +0.000 C 
ATOM     18  O   UNL     1      -3.847  12.110  23.100  0.00  0.00    +0.000 OA
ATOM     19  N   UNL     1      -3.061  12.857  21.119  0.00  0.00    +0.000 N 
ATOM     20  H   UNL     1      -2.286  13.136  20.520  0.00  0.00    +0.000 HD
BRANCH  19  21
ATOM     21  C   UNL     1      -4.404  13.170  20.636  0.00  0.00    +0.000 C 
BRANCH  21  22
ATOM     22  C   UNL     1      -4.739  12.369  19.379  0.00  0.00    +0.000 C 
ATOM     23  O   UNL     1      -5.903  12.115  19.069  0.00  0.00    +0.000 OA
ATOM     24  N   UNL     1      -3.639  11.958  18.645  0.00  0.00    +0.000 N 
ATOM     25  H   UNL     1      -2.704  12.171  18.973  0.00  0.00    +0.000 HD
BRANCH  24  26
ATOM     26  C   UNL     1      -3.784  11.189  17.447  0.00  0.00    +0.000 C 
ATOM     27  C   UNL     1      -2.612  11.020  16.521  0.00  0.00    +0.000 C 
ATOM     28  C   UNL     1      -3.145   9.838  17.275  0.00  0.00    +0.000 C 
ENDBRANCH  24  26
ENDBRANCH  21  22
ENDBRANCH  19  21
ENDBRANCH   1  17
BRANCH   1  30
ATOM     29  N   UNL     1      -0.136  14.646  22.888  0.00  0.00    +0.000 NA
ATOM     30  C   UNL     1      -0.717  13.527  22.882  0.00  0.00    +0.000 C 
ENDBRANCH   1  30
TORSDOF 7
ENDMDL
MODEL 7
REMARK VINA RESULT:      -7.6      2.370      4.565
REMARK  Name = 
REMARK  7 active torsions:
REMARK  status: ('A' for Active; 'I' for Inactive)
REMARK    1  A    between atoms: C_2  and  C_3
REMARK    2  A    between atoms: C_3  and  C_4
REMARK    3  A    between atoms: C_3  and  C_14
REMARK    4  A    between atoms: N_6  and  C_7
REMARK    5  A    between atoms: C_7  and  C_8
REMARK    6  A    between atoms: N_10  and  C_11
REMARK    7  A    between atoms: C_19  and  C_20
REMARK                            x       y       z     vdW  Elec       q    Type
REMARK                         _______ _______ _______ _____ _____    ______ ____
ROOT
ATOM      1  C   UNL     1       4.806   6.091  16.831  0.00  0.00    +0.000 C 
ENDROOT
BRANCH   1   2
ATOM      2  C   UNL     1       3.794   6.721  17.734  0.00  0.00    +0.000 A 
ATOM      3  N   UNL     1       3.378   6.165  18.854  0.00  0.00    +0.000 NA
ATOM      4  C   UNL     1       2.478   7.000  19.492  0.00  0.00    +0.000 A 
ATOM      5  C   UNL     1       1.831   6.738  20.710  0.00  0.00    +0.000 A 
ATOM      6  C   UNL     1       0.966   7.698  21.253  0.00  0.00    +0.000 A 
ATOM      7  C   UNL     1       0.731   8.934  20.625  0.00  0.00    +0.000 A 
ATOM      8  C   UNL     1       1.365   9.179  19.393  0.00  0.00    +0.000 A 
ATOM      9  C   UNL     1       2.223   8.209  18.849  0.00  0.00    +0.000 A 
ATOM     10  S   UNL     1       3.110   8.264  17.382  0.00  0.00    +0.000 S 
BRANCH   7  11
ATOM     11  C   UNL     1      -0.147   9.954  21.244  0.00  0.00    +0.000 A 
ATOM     12  C   UNL     1      -0.450   9.920  22.617  0.00  0.00    +0.000 A 
ATOM     13  C   UNL     1      -1.283  10.874  23.207  0.00  0.00    +0.000 A 
ATOM     14  C   UNL     1      -1.819  11.901  22.437  0.00  0.00    +0.000 A 
ATOM     15  C   UNL     1      -1.525  11.970  21.080  0.00  0.00    +0.000 A 
ATOM     16  C   UNL     1      -0.703  11.005  20.490  0.00  0.00    +0.000 A 
ENDBRANCH   7  11
ENDBRANCH   1   2
BRANCH   1  17
ATOM     17  C   UNL     1       5.081   4.647  17.295  0.00  0.00    +0.000 C 
ATOM     18  O   UNL     1       6.163   4.288  17.765  0.00  0.00    +0.000 OA
ATOM     19  N   UNL     1       4.066   3.724  17.143  0.00  0.00    +0.000 N 
ATOM     20  H   UNL     1       3.141   3.983  16.803  0.00  0.00    +0.000 HD
BRANCH  19  21
ATOM     21  C   UNL     1       4.216   2.363  17.654  0.00  0.00    +0.000 C 
BRANCH  21  22
ATOM     22  C   UNL     1       3.860   2.289  19.137  0.00  0.00    +0.000 C 
ATOM     23  O   UNL     1       4.730   2.202  20.004  0.00  0.00    +0.000 OA
ATOM     24  N   UNL     1       2.503   2.318  19.409  0.00  0.00    +0.000 N 
ATOM     25  H   UNL     1       1.835   2.356  18.647  0.00  0.00    +0.000 HD
BRANCH  24  26
ATOM     26  C   UNL     1       2.006   2.245  20.750  0.00  0.00    +0.000 C 
ATOM     27  C   UNL     1       2.306   3.355  21.718  0.00  0.00    +0.000 C 
ATOM     28  C   UNL     1       0.899   3.134  21.247  0.00  0.00    +0.000 C 
ENDBRANCH  24  26
ENDBRANCH  21  22
ENDBRANCH  19  21
ENDBRANCH   1  17
BRANCH   1  30
ATOM     29  N   UNL     1       7.180   7.534  16.963  0.00  0.00    +0.000 NA
ATOM     30  C   UNL     1       6.104   6.880  16.903  0.00  0.00    +0.000 C 
ENDBRANCH   1  30
TORSDOF 7
ENDMDL
MODEL 8
REMARK VINA RESULT:      -7.6      3.143      4.346
REMARK  Name = 
REMARK  7 active torsions:
REMARK  status: ('A' for Active; 'I' for Inactive)
REMARK    1  A    between atoms: C_2  and  C_3
REMARK    2  A    between atoms: C_3  and  C_4
REMARK    3  A    between atoms: C_3  and  C_14
REMARK    4  A    between atoms: N_6  and  C_7
REMARK    5  A    between atoms: C_7  and  C_8
REMARK    6  A    between atoms: N_10  and  C_11
REMARK    7  A    between atoms: C_19  and  C_20
REMARK                            x       y       z     vdW  Elec       q    Type
REMARK                         _______ _______ _______ _____ _____    ______ ____
ROOT
ATOM      1  C   UNL     1       4.625   4.289  19.076  0.00  0.00    +0.000 C 
ENDROOT
BRANCH   1   2
ATOM      2  C   UNL     1       3.725   5.482  19.129  0.00  0.00    +0.000 A 
ATOM      3  N   UNL     1       3.052   5.833  20.205  0.00  0.00    +0.000 NA
ATOM      4  C   UNL     1       2.343   6.997  19.964  0.00  0.00    +0.000 A 
ATOM      5  C   UNL     1       1.516   7.664  20.881  0.00  0.00    +0.000 A 
ATOM      6  C   UNL     1       0.887   8.858  20.502  0.00  0.00    +0.000 A 
ATOM      7  C   UNL     1       1.066   9.426  19.228  0.00  0.00    +0.000 A 
ATOM      8  C   UNL     1       1.877   8.739  18.307  0.00  0.00    +0.000 A 
ATOM      9  C   UNL     1       2.498   7.538  18.690  0.00  0.00    +0.000 A 
ATOM     10  S   UNL     1       3.526   6.521  17.767  0.00  0.00    +0.000 S 
BRANCH   7  11
ATOM     11  C   UNL     1       0.431  10.715  18.866  0.00  0.00    +0.000 A 
ATOM     12  C   UNL     1       1.149  11.924  18.928  0.00  0.00    +0.000 A 
ATOM     13  C   UNL     1       0.555  13.145  18.595  0.00  0.00    +0.000 A 
ATOM     14  C   UNL     1      -0.769  13.182  18.174  0.00  0.00    +0.000 A 
ATOM     15  C   UNL     1      -1.500  12.002  18.088  0.00  0.00    +0.000 A 
ATOM     16  C   UNL     1      -0.908  10.784  18.436  0.00  0.00    +0.000 A 
ENDBRANCH   7  11
ENDBRANCH   1   2
BRANCH   1  17
ATOM     17  C   UNL     1       5.943   4.669  18.373  0.00  0.00    +0.000 C 
ATOM     18  O   UNL     1       6.321   4.140  17.326  0.00  0.00    +0.000 OA
ATOM     19  N   UNL     1       6.733   5.628  18.975  0.00  0.00    +0.000 N 
ATOM     20  H   UNL     1       6.441   6.126  19.815  0.00  0.00    +0.000 HD
BRANCH  19  21
ATOM     21  C   UNL     1       7.943   6.114  18.316  0.00  0.00    +0.000 C 
BRANCH  21  22
ATOM     22  C   UNL     1       7.842   7.606  18.009  0.00  0.00    +0.000 C 
ATOM     23  O   UNL     1       7.096   8.033  17.127  0.00  0.00    +0.000 OA
ATOM     24  N   UNL     1       8.654   8.414  18.787  0.00  0.00    +0.000 N 
ATOM     25  H   UNL     1       9.271   7.998  19.475  0.00  0.00    +0.000 HD
BRANCH  24  26
ATOM     26  C   UNL     1       8.683   9.835  18.615  0.00  0.00    +0.000 C 
ATOM     27  C   UNL     1       9.396  10.696  19.620  0.00  0.00    +0.000 C 
ATOM     28  C   UNL     1       9.934  10.573  18.226  0.00  0.00    +0.000 C 
ENDBRANCH  24  26
ENDBRANCH  21  22
ENDBRANCH  19  21
ENDBRANCH   1  17
BRANCH   1  30
ATOM     29  N   UNL     1       3.389   2.270  17.616  0.00  0.00    +0.000 NA
ATOM     30  C   UNL     1       3.950   3.185  18.278  0.00  0.00    +0.000 C 
ENDBRANCH   1  30
TORSDOF 7
ENDMDL
MODEL 9
REMARK VINA RESULT:      -7.5      1.447      1.894
REMARK  Name = 
REMARK  7 active torsions:
REMARK  status: ('A' for Active; 'I' for Inactive)
REMARK    1  A    between atoms: C_2  and  C_3
REMARK    2  A    between atoms: C_3  and  C_4
REMARK    3  A    between atoms: C_3  and  C_14
REMARK    4  A    between atoms: N_6  and  C_7
REMARK    5  A    between atoms: C_7  and  C_8
REMARK    6  A    between atoms: N_10  and  C_11
REMARK    7  A    between atoms: C_19  and  C_20
REMARK                            x       y       z     vdW  Elec       q    Type
REMARK                         _______ _______ _______ _____ _____    ______ ____
ROOT
ATOM      1  C   UNL     1       3.300   4.301  19.480  0.00  0.00    +0.000 C 
ENDROOT
BRANCH   1   2
ATOM      2  C   UNL     1       2.798   5.709  19.429  0.00  0.00    +0.000 A 
ATOM      3  N   UNL     1       2.889   6.471  18.359  0.00  0.00    +0.000 NA
ATOM      4  C   UNL     1       2.302   7.701  18.599  0.00  0.00    +0.000 A 
ATOM      5  C   UNL     1       2.210   8.764  17.688  0.00  0.00    +0.000 A 
ATOM      6  C   UNL     1       1.553   9.943  18.066  0.00  0.00    +0.000 A 
ATOM      7  C   UNL     1       0.964  10.098  19.333  0.00  0.00    +0.000 A 
ATOM      8  C   UNL     1       1.080   9.037  20.249  0.00  0.00    +0.000 A 
ATOM      9  C   UNL     1       1.748   7.861  19.868  0.00  0.00    +0.000 A 
ATOM     10  S   UNL     1       2.022   6.437  20.785  0.00  0.00    +0.000 S 
BRANCH   7  11
ATOM     11  C   UNL     1       0.231  11.335  19.692  0.00  0.00    +0.000 A 
ATOM     12  C   UNL     1       0.037  12.366  18.755  0.00  0.00    +0.000 A 
ATOM     13  C   UNL     1      -0.648  13.538  19.088  0.00  0.00    +0.000 A 
ATOM     14  C   UNL     1      -1.172  13.698  20.366  0.00  0.00    +0.000 A 
ATOM     15  C   UNL     1      -1.010  12.689  21.309  0.00  0.00    +0.000 A 
ATOM     16  C   UNL     1      -0.312  11.524  20.977  0.00  0.00    +0.000 A 
ENDBRANCH   7  11
ENDBRANCH   1   2
BRANCH   1  17
ATOM     17  C   UNL     1       4.830   4.294  19.292  0.00  0.00    +0.000 C 
ATOM     18  O   UNL     1       5.490   3.256  19.209  0.00  0.00    +0.000 OA
ATOM     19  N   UNL     1       5.472   5.515  19.244  0.00  0.00    +0.000 N 
ATOM     20  H   UNL     1       4.965   6.398  19.262  0.00  0.00    +0.000 HD
BRANCH  19  21
ATOM     21  C   UNL     1       6.905   5.589  18.966  0.00  0.00    +0.000 C 
BRANCH  21  22
ATOM     22  C   UNL     1       7.166   5.779  17.473  0.00  0.00    +0.000 C 
ATOM     23  O   UNL     1       7.675   6.812  17.035  0.00  0.00    +0.000 OA
ATOM     24  N   UNL     1       6.778   4.715  16.677  0.00  0.00    +0.000 N 
ATOM     25  H   UNL     1       6.333   3.906  17.096  0.00  0.00    +0.000 HD
BRANCH  24  26
ATOM     26  C   UNL     1       6.946   4.743  15.256  0.00  0.00    +0.000 C 
ATOM     27  C   UNL     1       6.262   3.710  14.402  0.00  0.00    +0.000 C 
ATOM     28  C   UNL     1       5.837   5.146  14.323  0.00  0.00    +0.000 C 
ENDBRANCH  24  26
ENDBRANCH  21  22
ENDBRANCH  19  21
ENDBRANCH   1  17
BRANCH   1  30
ATOM     29  N   UNL     1       2.143   2.838  17.417  0.00  0.00    +0.000 NA
ATOM     30  C   UNL     1       2.668   3.501  18.352  0.00  0.00    +0.000 C 
ENDBRANCH   1  30
TORSDOF 7
ENDMDL
