MODEL 1
REMARK VINA RESULT:      -7.3      0.000      0.000
REMARK  Name = 
REMARK  6 active torsions:
REMARK  status: ('A' for Active; 'I' for Inactive)
REMARK    1  A    between atoms: C_1  and  C_2
REMARK    2  A    between atoms: C_3  and  C_4
REMARK    3  A    between atoms: C_4  and  N_5
REMARK    4  A    between atoms: N_5  and  C_6
REMARK    5  A    between atoms: N_5  and  C_7
REMARK    6  A    between atoms: C_7  and  C_8
REMARK                            x       y       z     vdW  Elec       q    Type
REMARK                         _______ _______ _______ _____ _____    ______ ____
ROOT
ATOM      1  C   UNL     1       4.185   5.325  17.174  0.00  0.00    +0.000 A 
ATOM      2  C   UNL     1       3.685   6.347  18.001  0.00  0.00    +0.000 A 
ATOM      3  C   UNL     1       2.694   6.089  18.941  0.00  0.00    +0.000 A 
ATOM      4  C   UNL     1       2.156   4.809  19.057  0.00  0.00    +0.000 A 
ATOM      5  C   UNL     1       2.572   3.793  18.169  0.00  0.00    +0.000 A 
ATOM      6  C   UNL     1       3.594   4.048  17.243  0.00  0.00    +0.000 A 
ATOM      7  O   UNL     1       1.975   2.574  18.214  0.00  0.00    +0.000 OA
ATOM      8  C   UNL     1       0.776   2.372  18.888  0.00  0.00    +0.000 C 
ATOM      9  C   UNL     1       0.888   3.005  20.270  0.00  0.00    +0.000 C 
ATOM     10  C   UNL     1       1.122   4.518  20.117  0.00  0.00    +0.000 C 
ENDROOT
BRANCH   1  11
ATOM     11  C   UNL     1       5.311   5.607  16.195  0.00  0.00    +0.000 C 
BRANCH  11  12
ATOM     12  N   UNL     1       6.277   4.478  16.052  0.00  0.00    +0.000 NA
ATOM     13  C   UNL     1       7.452   4.541  16.948  0.00  0.00    +0.000 C 
BRANCH  12  14
ATOM     14  C   UNL     1       6.708   4.310  14.646  0.00  0.00    +0.000 C 
BRANCH  14  17
ATOM     15  C   UNL     1       4.496   3.227  11.655  0.00  0.00    +0.000 C 
ATOM     16  C   UNL     1       5.676   3.458  12.545  0.00  0.00    +0.000 C 
ATOM     17  C   UNL     1       5.538   4.100  13.709  0.00  0.00    +0.000 C 
ENDBRANCH  14  17
ENDBRANCH  12  14
ENDBRANCH  11  12
ENDBRANCH   1  11
TORSDOF 4
ENDMDL
MODEL 2
REMARK VINA RESULT:      -6.9      2.056      3.857
REMARK  Name = 
REMARK  6 active torsions:
REMARK  status: ('A' for Active; 'I' for Inactive)
REMARK    1  A    between atoms: C_1  and  C_2
REMARK    2  A    between atoms: C_3  and  C_4
REMARK    3  A    between atoms: C_4  and  N_5
REMARK    4  A    between atoms: N_5  and  C_6
REMARK    5  A    between atoms: N_5  and  C_7
REMARK    6  A    between atoms: C_7  and  C_8
REMARK                            x       y       z     vdW  Elec       q    Type
REMARK                         _______ _______ _______ _____ _____    ______ ____
ROOT
ATOM      1  C   UNL     1       4.215   5.299  17.281  0.00  0.00    +0.000 A 
ATOM      2  C   UNL     1       3.980   4.019  16.750  0.00  0.00    +0.000 A 
ATOM      3  C   UNL     1       3.235   3.076  17.451  0.00  0.00    +0.000 A 
ATOM      4  C   UNL     1       2.732   3.383  18.715  0.00  0.00    +0.000 A 
ATOM      5  C   UNL     1       3.041   4.626  19.307  0.00  0.00    +0.000 A 
ATOM      6  C   UNL     1       3.765   5.585  18.585  0.00  0.00    +0.000 A 
ATOM      7  O   UNL     1       2.638   4.884  20.579  0.00  0.00    +0.000 OA
ATOM      8  C   UNL     1       2.195   3.874  21.424  0.00  0.00    +0.000 C 
ATOM      9  C   UNL     1       1.185   3.019  20.666  0.00  0.00    +0.000 C 
ATOM     10  C   UNL     1       1.875   2.381  19.448  0.00  0.00    +0.000 C 
ENDROOT
BRANCH   1  11
ATOM     11  C   UNL     1       4.977   6.338  16.478  0.00  0.00    +0.000 C 
BRANCH  11  12
ATOM     12  N   UNL     1       6.428   6.025  16.316  0.00  0.00    +0.000 NA
ATOM     13  C   UNL     1       6.736   4.972  15.325  0.00  0.00    +0.000 C 
BRANCH  12  14
ATOM     14  C   UNL     1       7.062   5.711  17.617  0.00  0.00    +0.000 C 
BRANCH  14  17
ATOM     15  C   UNL     1       8.458   9.274  18.226  0.00  0.00    +0.000 C 
ATOM     16  C   UNL     1       7.792   8.092  17.593  0.00  0.00    +0.000 C 
ATOM     17  C   UNL     1       7.764   6.910  18.216  0.00  0.00    +0.000 C 
ENDBRANCH  14  17
ENDBRANCH  12  14
ENDBRANCH  11  12
ENDBRANCH   1  11
TORSDOF 4
ENDMDL
MODEL 3
REMARK VINA RESULT:      -6.8      1.525      2.312
REMARK  Name = 
REMARK  6 active torsions:
REMARK  status: ('A' for Active; 'I' for Inactive)
REMARK    1  A    between atoms: C_1  and  C_2
REMARK    2  A    between atoms: C_3  and  C_4
REMARK    3  A    between atoms: C_4  and  N_5
REMARK    4  A    between atoms: N_5  and  C_6
REMARK    5  A    between atoms: N_5  and  C_7
REMARK    6  A    between atoms: C_7  and  C_8
REMARK                            x       y       z     vdW  Elec       q    Type
REMARK                         _______ _______ _______ _____ _____    ______ ____
ROOT
ATOM      1  C   UNL     1       4.219   5.314  17.952  0.00  0.00    +0.000 A 
ATOM      2  C   UNL     1       3.488   4.505  17.064  0.00  0.00    +0.000 A 
ATOM      3  C   UNL     1       2.496   3.646  17.525  0.00  0.00    +0.000 A 
ATOM      4  C   UNL     1       2.232   3.553  18.890  0.00  0.00    +0.000 A 
ATOM      5  C   UNL     1       3.021   4.281  19.806  0.00  0.00    +0.000 A 
ATOM      6  C   UNL     1       3.998   5.170  19.336  0.00  0.00    +0.000 A 
ATOM      7  O   UNL     1       2.831   4.112  21.141  0.00  0.00    +0.000 OA
ATOM      8  C   UNL     1       2.104   3.041  21.645  0.00  0.00    +0.000 C 
ATOM      9  C   UNL     1       0.799   2.933  20.864  0.00  0.00    +0.000 C 
ATOM     10  C   UNL     1       1.117   2.664  19.383  0.00  0.00    +0.000 C 
ENDROOT
BRANCH   1  11
ATOM     11  C   UNL     1       5.255   6.292  17.429  0.00  0.00    +0.000 C 
BRANCH  11  12
ATOM     12  N   UNL     1       6.648   5.980  17.865  0.00  0.00    +0.000 NA
ATOM     13  C   UNL     1       7.604   7.103  17.765  0.00  0.00    +0.000 C 
BRANCH  12  14
ATOM     14  C   UNL     1       7.179   4.786  17.169  0.00  0.00    +0.000 C 
BRANCH  14  17
ATOM     15  C   UNL     1       6.143   3.904  13.541  0.00  0.00    +0.000 C 
ATOM     16  C   UNL     1       6.407   3.811  15.011  0.00  0.00    +0.000 C 
ATOM     17  C   UNL     1       6.940   4.841  15.675  0.00  0.00    +0.000 C 
ENDBRANCH  14  17
ENDBRANCH  12  14
ENDBRANCH  11  12
ENDBRANCH   1  11
TORSDOF 4
ENDMDL
MODEL 4
REMARK VINA RESULT:      -6.8      1.626      2.267
REMARK  Name = 
REMARK  6 active torsions:
REMARK  status: ('A' for Active; 'I' for Inactive)
REMARK    1  A    between atoms: C_1  and  C_2
REMARK    2  A    between atoms: C_3  and  C_4
REMARK    3  A    between atoms: C_4  and  N_5
REMARK    4  A    between atoms: N_5  and  C_6
REMARK    5  A    between atoms: N_5  and  C_7
REMARK    6  A    between atoms: C_7  and  C_8
REMARK                            x       y       z     vdW  Elec       q    Type
REMARK                         _______ _______ _______ _____ _____    ______ ____
ROOT
ATOM      1  C   UNL     1       5.311   5.172  18.969  0.00  0.00    +0.000 A 
ATOM      2  C   UNL     1       4.470   5.999  18.204  0.00  0.00    +0.000 A 
ATOM      3  C   UNL     1       3.175   5.608  17.883  0.00  0.00    +0.000 A 
ATOM      4  C   UNL     1       2.699   4.364  18.296  0.00  0.00    +0.000 A 
ATOM      5  C   UNL     1       3.559   3.478  18.978  0.00  0.00    +0.000 A 
ATOM      6  C   UNL     1       4.854   3.889  19.328  0.00  0.00    +0.000 A 
ATOM      7  O   UNL     1       3.129   2.228  19.290  0.00  0.00    +0.000 OA
ATOM      8  C   UNL     1       1.991   1.681  18.709  0.00  0.00    +0.000 C 
ATOM      9  C   UNL     1       0.867   2.709  18.788  0.00  0.00    +0.000 C 
ATOM     10  C   UNL     1       1.275   3.966  17.998  0.00  0.00    +0.000 C 
ENDROOT
BRANCH   1  11
ATOM     11  C   UNL     1       6.700   5.639  19.363  0.00  0.00    +0.000 C 
BRANCH  11  12
ATOM     12  N   UNL     1       7.646   5.745  18.213  0.00  0.00    +0.000 NA
ATOM     13  C   UNL     1       7.456   6.930  17.350  0.00  0.00    +0.000 C 
BRANCH  12  14
ATOM     14  C   UNL     1       7.647   4.508  17.399  0.00  0.00    +0.000 C 
BRANCH  14  17
ATOM     15  C   UNL     1       5.571   4.205  14.141  0.00  0.00    +0.000 C 
ATOM     16  C   UNL     1       6.142   3.937  15.498  0.00  0.00    +0.000 C 
ATOM     17  C   UNL     1       7.083   4.734  16.012  0.00  0.00    +0.000 C 
ENDBRANCH  14  17
ENDBRANCH  12  14
ENDBRANCH  11  12
ENDBRANCH   1  11
TORSDOF 4
ENDMDL
MODEL 5
REMARK VINA RESULT:      -6.7      1.667      3.205
REMARK  Name = 
REMARK  6 active torsions:
REMARK  status: ('A' for Active; 'I' for Inactive)
REMARK    1  A    between atoms: C_1  and  C_2
REMARK    2  A    between atoms: C_3  and  C_4
REMARK    3  A    between atoms: C_4  and  N_5
REMARK    4  A    between atoms: N_5  and  C_6
REMARK    5  A    between atoms: N_5  and  C_7
REMARK    6  A    between atoms: C_7  and  C_8
REMARK                            x       y       z     vdW  Elec       q    Type
REMARK                         _______ _______ _______ _____ _____    ______ ____
ROOT
ATOM      1  C   UNL     1       4.313   4.170  17.130  0.00  0.00    +0.000 A 
ATOM      2  C   UNL     1       3.804   5.452  17.404  0.00  0.00    +0.000 A 
ATOM      3  C   UNL     1       3.002   5.683  18.516  0.00  0.00    +0.000 A 
ATOM      4  C   UNL     1       2.667   4.631  19.367  0.00  0.00    +0.000 A 
ATOM      5  C   UNL     1       3.085   3.320  19.055  0.00  0.00    +0.000 A 
ATOM      6  C   UNL     1       3.919   3.095  17.950  0.00  0.00    +0.000 A 
ATOM      7  O   UNL     1       2.673   2.280  19.826  0.00  0.00    +0.000 OA
ATOM      8  C   UNL     1       1.623   2.411  20.727  0.00  0.00    +0.000 C 
ATOM      9  C   UNL     1       1.845   3.678  21.546  0.00  0.00    +0.000 C 
ATOM     10  C   UNL     1       1.846   4.895  20.605  0.00  0.00    +0.000 C 
ENDROOT
BRANCH   1  11
ATOM     11  C   UNL     1       5.237   3.946  15.946  0.00  0.00    +0.000 C 
BRANCH  11  12
ATOM     12  N   UNL     1       6.328   4.959  15.837  0.00  0.00    +0.000 NA
ATOM     13  C   UNL     1       7.079   4.938  14.564  0.00  0.00    +0.000 C 
BRANCH  12  14
ATOM     14  C   UNL     1       7.258   4.880  16.987  0.00  0.00    +0.000 C 
BRANCH  14  17
ATOM     15  C   UNL     1       7.803   8.619  17.845  0.00  0.00    +0.000 C 
ATOM     16  C   UNL     1       7.738   7.322  17.103  0.00  0.00    +0.000 C 
ATOM     17  C   UNL     1       7.370   6.197  17.724  0.00  0.00    +0.000 C 
ENDBRANCH  14  17
ENDBRANCH  12  14
ENDBRANCH  11  12
ENDBRANCH   1  11
TORSDOF 4
ENDMDL
MODEL 6
REMARK VINA RESULT:      -6.7      1.027      1.315
REMARK  Name = 
REMARK  6 active torsions:
REMARK  status: ('A' for Active; 'I' for Inactive)
REMARK    1  A    between atoms: C_1  and  C_2
REMARK    2  A    between atoms: C_3  and  C_4
REMARK    3  A    between atoms: C_4  and  N_5
REMARK    4  A    between atoms: N_5  and  C_6
REMARK    5  A    between atoms: N_5  and  C_7
REMARK    6  A    between atoms: C_7  and  C_8
REMARK                            x       y       z     vdW  Elec       q    Type
REMARK                         _______ _______ _______ _____ _____    ______ ____
ROOT
ATOM      1  C   UNL     1       5.334   4.406  17.607  0.00  0.00    +0.000 A 
ATOM      2  C   UNL     1       5.204   5.371  18.622  0.00  0.00    +0.000 A 
ATOM      3  C   UNL     1       4.117   5.359  19.490  0.00  0.00    +0.000 A 
ATOM      4  C   UNL     1       3.118   4.398  19.344  0.00  0.00    +0.000 A 
ATOM      5  C   UNL     1       3.179   3.483  18.272  0.00  0.00    +0.000 A 
ATOM      6  C   UNL     1       4.292   3.478  17.418  0.00  0.00    +0.000 A 
ATOM      7  O   UNL     1       2.155   2.614  18.069  0.00  0.00    +0.000 OA
ATOM      8  C   UNL     1       0.922   2.782  18.687  0.00  0.00    +0.000 C 
ATOM      9  C   UNL     1       1.157   3.053  20.168  0.00  0.00    +0.000 C 
ATOM     10  C   UNL     1       1.970   4.350  20.322  0.00  0.00    +0.000 C 
ENDROOT
BRANCH   1  11
ATOM     11  C   UNL     1       6.557   4.395  16.707  0.00  0.00    +0.000 C 
BRANCH  11  12
ATOM     12  N   UNL     1       6.542   5.461  15.662  0.00  0.00    +0.000 NA
ATOM     13  C   UNL     1       5.233   6.117  15.453  0.00  0.00    +0.000 C 
BRANCH  12  14
ATOM     14  C   UNL     1       7.083   4.966  14.376  0.00  0.00    +0.000 C 
BRANCH  14  17
ATOM     15  C   UNL     1       5.412   2.576  11.825  0.00  0.00    +0.000 C 
ATOM     16  C   UNL     1       6.301   3.613  12.437  0.00  0.00    +0.000 C 
ATOM     17  C   UNL     1       6.170   3.951  13.723  0.00  0.00    +0.000 C 
ENDBRANCH  14  17
ENDBRANCH  12  14
ENDBRANCH  11  12
ENDBRANCH   1  11
TORSDOF 4
ENDMDL
MODEL 7
REMARK VINA RESULT:      -6.6      1.792      3.396
REMARK  Name = 
REMARK  6 active torsions:
REMARK  status: ('A' for Active; 'I' for Inactive)
REMARK    1  A    between atoms: C_1  and  C_2
REMARK    2  A    between atoms: C_3  and  C_4
REMARK    3  A    between atoms: C_4  and  N_5
REMARK    4  A    between atoms: N_5  and  C_6
REMARK    5  A    between atoms: N_5  and  C_7
REMARK    6  A    between atoms: C_7  and  C_8
REMARK                            x       y       z     vdW  Elec       q    Type
REMARK                         _______ _______ _______ _____ _____    ______ ____
ROOT
ATOM      1  C   UNL     1       4.320   3.509  17.295  0.00  0.00    +0.000 A 
ATOM      2  C   UNL     1       3.015   3.658  16.793  0.00  0.00    +0.000 A 
ATOM      3  C   UNL     1       1.910   3.598  17.635  0.00  0.00    +0.000 A 
ATOM      4  C   UNL     1       2.082   3.358  18.997  0.00  0.00    +0.000 A 
ATOM      5  C   UNL     1       3.375   3.108  19.505  0.00  0.00    +0.000 A 
ATOM      6  C   UNL     1       4.490   3.200  18.659  0.00  0.00    +0.000 A 
ATOM      7  O   UNL     1       3.531   2.773  20.812  0.00  0.00    +0.000 OA
ATOM      8  C   UNL     1       2.456   2.377  21.598  0.00  0.00    +0.000 C 
ATOM      9  C   UNL     1       1.318   3.371  21.395  0.00  0.00    +0.000 C 
ATOM     10  C   UNL     1       0.887   3.352  19.918  0.00  0.00    +0.000 C 
ENDROOT
BRANCH   1  11
ATOM     11  C   UNL     1       5.520   3.639  16.374  0.00  0.00    +0.000 C 
BRANCH  11  12
ATOM     12  N   UNL     1       5.555   4.923  15.613  0.00  0.00    +0.000 NA
ATOM     13  C   UNL     1       6.482   4.946  14.462  0.00  0.00    +0.000 C 
BRANCH  12  14
ATOM     14  C   UNL     1       5.814   6.075  16.508  0.00  0.00    +0.000 C 
BRANCH  14  17
ATOM     15  C   UNL     1       2.719   8.005  17.816  0.00  0.00    +0.000 C 
ATOM     16  C   UNL     1       3.871   7.055  17.720  0.00  0.00    +0.000 C 
ATOM     17  C   UNL     1       4.619   6.998  16.614  0.00  0.00    +0.000 C 
ENDBRANCH  14  17
ENDBRANCH  12  14
ENDBRANCH  11  12
ENDBRANCH   1  11
TORSDOF 4
ENDMDL
MODEL 8
REMARK VINA RESULT:      -6.5      2.209      3.764
REMARK  Name = 
REMARK  6 active torsions:
REMARK  status: ('A' for Active; 'I' for Inactive)
REMARK    1  A    between atoms: C_1  and  C_2
REMARK    2  A    between atoms: C_3  and  C_4
REMARK    3  A    between atoms: C_4  and  N_5
REMARK    4  A    between atoms: N_5  and  C_6
REMARK    5  A    between atoms: N_5  and  C_7
REMARK    6  A    between atoms: C_7  and  C_8
REMARK                            x       y       z     vdW  Elec       q    Type
REMARK                         _______ _______ _______ _____ _____    ______ ____
ROOT
ATOM      1  C   UNL     1       4.853   4.850  17.139  0.00  0.00    +0.000 A 
ATOM      2  C   UNL     1       4.310   6.011  17.718  0.00  0.00    +0.000 A 
ATOM      3  C   UNL     1       3.237   5.939  18.599  0.00  0.00    +0.000 A 
ATOM      4  C   UNL     1       2.661   4.705  18.900  0.00  0.00    +0.000 A 
ATOM      5  C   UNL     1       3.126   3.541  18.253  0.00  0.00    +0.000 A 
ATOM      6  C   UNL     1       4.229   3.613  17.389  0.00  0.00    +0.000 A 
ATOM      7  O   UNL     1       2.499   2.355  18.467  0.00  0.00    +0.000 OA
ATOM      8  C   UNL     1       1.244   2.290  19.060  0.00  0.00    +0.000 C 
ATOM      9  C   UNL     1       1.253   3.166  20.308  0.00  0.00    +0.000 C 
ATOM     10  C   UNL     1       1.535   4.623  19.901  0.00  0.00    +0.000 C 
ENDROOT
BRANCH   1  11
ATOM     11  C   UNL     1       6.064   4.939  16.227  0.00  0.00    +0.000 C 
BRANCH  11  12
ATOM     12  N   UNL     1       7.227   5.645  16.842  0.00  0.00    +0.000 NA
ATOM     13  C   UNL     1       7.620   5.158  18.182  0.00  0.00    +0.000 C 
BRANCH  12  14
ATOM     14  C   UNL     1       7.019   7.111  16.866  0.00  0.00    +0.000 C 
BRANCH  14  17
ATOM     15  C   UNL     1       8.961   9.787  18.886  0.00  0.00    +0.000 C 
ATOM     16  C   UNL     1       8.103   9.124  17.855  0.00  0.00    +0.000 C 
ATOM     17  C   UNL     1       7.914   7.801  17.873  0.00  0.00    +0.000 C 
ENDBRANCH  14  17
ENDBRANCH  12  14
ENDBRANCH  11  12
ENDBRANCH   1  11
TORSDOF 4
ENDMDL
MODEL 9
REMARK VINA RESULT:      -6.4      1.443      1.619
REMARK  Name = 
REMARK  6 active torsions:
REMARK  status: ('A' for Active; 'I' for Inactive)
REMARK    1  A    between atoms: C_1  and  C_2
REMARK    2  A    between atoms: C_3  and  C_4
REMARK    3  A    between atoms: C_4  and  N_5
REMARK    4  A    between atoms: N_5  and  C_6
REMARK    5  A    between atoms: N_5  and  C_7
REMARK    6  A    between atoms: C_7  and  C_8
REMARK                            x       y       z     vdW  Elec       q    Type
REMARK                         _______ _______ _______ _____ _____    ______ ____
ROOT
ATOM      1  C   UNL     1       4.076   5.068  17.718  0.00  0.00    +0.000 A 
ATOM      2  C   UNL     1       2.733   5.477  17.630  0.00  0.00    +0.000 A 
ATOM      3  C   UNL     1       1.793   5.061  18.567  0.00  0.00    +0.000 A 
ATOM      4  C   UNL     1       2.168   4.202  19.599  0.00  0.00    +0.000 A 
ATOM      5  C   UNL     1       3.486   3.701  19.647  0.00  0.00    +0.000 A 
ATOM      6  C   UNL     1       4.439   4.146  18.719  0.00  0.00    +0.000 A 
ATOM      7  O   UNL     1       3.824   2.784  20.591  0.00  0.00    +0.000 OA
ATOM      8  C   UNL     1       2.860   2.098  21.320  0.00  0.00    +0.000 C 
ATOM      9  C   UNL     1       1.840   3.106  21.841  0.00  0.00    +0.000 C 
ATOM     10  C   UNL     1       1.160   3.799  20.647  0.00  0.00    +0.000 C 
ENDROOT
BRANCH   1  11
ATOM     11  C   UNL     1       5.103   5.579  16.724  0.00  0.00    +0.000 C 
BRANCH  11  12
ATOM     12  N   UNL     1       6.486   5.077  16.980  0.00  0.00    +0.000 NA
ATOM     13  C   UNL     1       7.385   6.033  17.660  0.00  0.00    +0.000 C 
BRANCH  12  14
ATOM     14  C   UNL     1       7.115   4.569  15.740  0.00  0.00    +0.000 C 
BRANCH  14  17
ATOM     15  C   UNL     1       5.356   3.445  12.476  0.00  0.00    +0.000 C 
ATOM     16  C   UNL     1       6.369   3.980  13.437  0.00  0.00    +0.000 C 
ATOM     17  C   UNL     1       6.093   4.069  14.742  0.00  0.00    +0.000 C 
ENDBRANCH  14  17
ENDBRANCH  12  14
ENDBRANCH  11  12
ENDBRANCH   1  11
TORSDOF 4
ENDMDL
