MODEL 1
REMARK VINA RESULT:      -7.2      0.000      0.000
REMARK  Name = 
REMARK  8 active torsions:
REMARK  status: ('A' for Active; 'I' for Inactive)
REMARK    1  A    between atoms: C_1  and  N_2
REMARK    2  A    between atoms: N_2  and  C_3
REMARK    3  A    between atoms: C_3  and  C_4
REMARK    4  A    between atoms: C_4  and  O_5
REMARK    5  A    between atoms: C_13  and  O_14
REMARK    6  A    between atoms: O_14  and  C_15
REMARK    7  A    between atoms: C_20  and  C_21
REMARK    8  A    between atoms: C_21  and  O_22
REMARK                            x       y       z     vdW  Elec       q    Type
REMARK                         _______ _______ _______ _____ _____    ______ ____
ROOT
ATOM      1  C   UNL     1       4.117   5.871  18.414  0.00  0.00    +0.000 C 
ATOM      2  C   UNL     1       3.353   4.984  17.393  0.00  0.00    +0.000 C 
ATOM      3  C   UNL     1       2.374   4.295  18.301  0.00  0.00    +0.000 A 
ATOM      4  C   UNL     1       1.728   3.087  18.105  0.00  0.00    +0.000 A 
ATOM      5  C   UNL     1       0.915   2.604  19.131  0.00  0.00    +0.000 A 
ATOM      6  C   UNL     1       0.743   3.337  20.317  0.00  0.00    +0.000 A 
ATOM      7  C   UNL     1       1.378   4.568  20.494  0.00  0.00    +0.000 A 
ATOM      8  C   UNL     1       2.197   5.032  19.479  0.00  0.00    +0.000 A 
ATOM      9  C   UNL     1       3.040   6.289  19.473  0.00  0.00    +0.000 C 
ENDROOT
BRANCH   1  10
ATOM     10  O   UNL     1       5.102   5.023  19.071  0.00  0.00    +0.000 OA
ATOM     11  H   UNL     1       4.854   4.099  18.901  0.00  0.00    +0.000 HD
ENDBRANCH   1  10
BRANCH   1  12
ATOM     12  C   UNL     1       4.872   7.022  17.705  0.00  0.00    +0.000 C 
BRANCH  12  14
ATOM     13  C   UNL     1       7.273   7.294  17.446  0.00  0.00    +0.000 C 
ATOM     14  N   UNL     1       6.091   6.558  17.024  0.00  0.00    +0.000 NA
ATOM     15  H   UNL     1       6.232   5.568  17.221  0.00  0.00    +0.000 HD
ENDBRANCH  12  14
ENDBRANCH   1  12
BRANCH   9  16
ATOM     16  O   UNL     1       2.162   7.334  19.042  0.00  0.00    +0.000 OA
BRANCH  16  17
ATOM     17  C   UNL     1       1.598   8.200  19.936  0.00  0.00    +0.000 A 
ATOM     18  C   UNL     1       1.515   7.996  21.316  0.00  0.00    +0.000 A 
ATOM     19  C   UNL     1       1.034   9.004  22.162  0.00  0.00    +0.000 A 
ATOM     20  C   UNL     1       0.657  10.240  21.645  0.00  0.00    +0.000 A 
ATOM     21  C   UNL     1       0.672  10.429  20.270  0.00  0.00    +0.000 A 
ATOM     22  C   UNL     1       1.074   9.395  19.403  0.00  0.00    +0.000 A 
BRANCH  22  23
ATOM     23  C   UNL     1       0.830   9.588  17.927  0.00  0.00    +0.000 C 
BRANCH  23  24
ATOM     24  O   UNL     1       2.081   9.795  17.264  0.00  0.00    +0.000 OA
ATOM     25  H   UNL     1       2.020  10.656  16.805  0.00  0.00    +0.000 HD
ENDBRANCH  23  24
ENDBRANCH  22  23
ENDBRANCH  16  17
ENDBRANCH   9  16
TORSDOF 7
ENDMDL
MODEL 2
REMARK VINA RESULT:      -7.1      3.319      4.379
REMARK  Name = 
REMARK  8 active torsions:
REMARK  status: ('A' for Active; 'I' for Inactive)
REMARK    1  A    between atoms: C_1  and  N_2
REMARK    2  A    between atoms: N_2  and  C_3
REMARK    3  A    between atoms: C_3  and  C_4
REMARK    4  A    between atoms: C_4  and  O_5
REMARK    5  A    between atoms: C_13  and  O_14
REMARK    6  A    between atoms: O_14  and  C_15
REMARK    7  A    between atoms: C_20  and  C_21
REMARK    8  A    between atoms: C_21  and  O_22
REMARK                            x       y       z     vdW  Elec       q    Type
REMARK                         _______ _______ _______ _____ _____    ______ ____
ROOT
ATOM      1  C   UNL     1       3.851   3.043  17.525  0.00  0.00    +0.000 C 
ATOM      2  C   UNL     1       2.310   3.239  17.482  0.00  0.00    +0.000 C 
ATOM      3  C   UNL     1       1.976   3.138  18.943  0.00  0.00    +0.000 A 
ATOM      4  C   UNL     1       0.769   2.788  19.523  0.00  0.00    +0.000 A 
ATOM      5  C   UNL     1       0.715   2.684  20.913  0.00  0.00    +0.000 A 
ATOM      6  C   UNL     1       1.850   2.949  21.698  0.00  0.00    +0.000 A 
ATOM      7  C   UNL     1       3.056   3.327  21.104  0.00  0.00    +0.000 A 
ATOM      8  C   UNL     1       3.106   3.411  19.724  0.00  0.00    +0.000 A 
ATOM      9  C   UNL     1       4.309   3.725  18.860  0.00  0.00    +0.000 C 
ENDROOT
BRANCH   1  10
ATOM     10  O   UNL     1       4.101   1.613  17.631  0.00  0.00    +0.000 OA
ATOM     11  H   UNL     1       3.394   1.154  17.146  0.00  0.00    +0.000 HD
ENDBRANCH   1  10
BRANCH   1  12
ATOM     12  C   UNL     1       4.520   3.553  16.225  0.00  0.00    +0.000 C 
BRANCH  12  14
ATOM     13  C   UNL     1       6.620   4.166  15.167  0.00  0.00    +0.000 C 
ATOM     14  N   UNL     1       5.988   3.484  16.286  0.00  0.00    +0.000 NA
ATOM     15  H   UNL     1       6.311   3.909  17.154  0.00  0.00    +0.000 HD
ENDBRANCH  12  14
ENDBRANCH   1  12
BRANCH   9  16
ATOM     16  O   UNL     1       4.373   5.154  18.802  0.00  0.00    +0.000 OA
BRANCH  16  17
ATOM     17  C   UNL     1       5.563   5.803  18.627  0.00  0.00    +0.000 A 
ATOM     18  C   UNL     1       6.727   5.568  19.363  0.00  0.00    +0.000 A 
ATOM     19  C   UNL     1       7.931   6.196  19.019  0.00  0.00    +0.000 A 
ATOM     20  C   UNL     1       7.997   7.043  17.918  0.00  0.00    +0.000 A 
ATOM     21  C   UNL     1       6.832   7.336  17.221  0.00  0.00    +0.000 A 
ATOM     22  C   UNL     1       5.599   6.776  17.608  0.00  0.00    +0.000 A 
BRANCH  22  23
ATOM     23  C   UNL     1       4.351   7.327  16.966  0.00  0.00    +0.000 C 
BRANCH  23  24
ATOM     24  O   UNL     1       3.348   7.521  17.968  0.00  0.00    +0.000 OA
ATOM     25  H   UNL     1       3.795   7.915  18.743  0.00  0.00    +0.000 HD
ENDBRANCH  23  24
ENDBRANCH  22  23
ENDBRANCH  16  17
ENDBRANCH   9  16
TORSDOF 7
ENDMDL
MODEL 3
REMARK VINA RESULT:      -6.9      4.142      6.194
REMARK  Name = 
REMARK  8 active torsions:
REMARK  status: ('A' for Active; 'I' for Inactive)
REMARK    1  A    between atoms: C_1  and  N_2
REMARK    2  A    between atoms: N_2  and  C_3
REMARK    3  A    between atoms: C_3  and  C_4
REMARK    4  A    between atoms: C_4  and  O_5
REMARK    5  A    between atoms: C_13  and  O_14
REMARK    6  A    between atoms: O_14  and  C_15
REMARK    7  A    between atoms: C_20  and  C_21
REMARK    8  A    between atoms: C_21  and  O_22
REMARK                            x       y       z     vdW  Elec       q    Type
REMARK                         _______ _______ _______ _____ _____    ______ ____
ROOT
ATOM      1  C   UNL     1       5.649   4.726  15.194  0.00  0.00    +0.000 C 
ATOM      2  C   UNL     1       6.972   4.091  15.704  0.00  0.00    +0.000 C 
ATOM      3  C   UNL     1       6.984   4.579  17.125  0.00  0.00    +0.000 A 
ATOM      4  C   UNL     1       8.071   4.740  17.966  0.00  0.00    +0.000 A 
ATOM      5  C   UNL     1       7.847   5.287  19.230  0.00  0.00    +0.000 A 
ATOM      6  C   UNL     1       6.550   5.642  19.641  0.00  0.00    +0.000 A 
ATOM      7  C   UNL     1       5.457   5.450  18.794  0.00  0.00    +0.000 A 
ATOM      8  C   UNL     1       5.690   4.923  17.535  0.00  0.00    +0.000 A 
ATOM      9  C   UNL     1       4.683   4.698  16.427  0.00  0.00    +0.000 C 
ENDROOT
BRANCH   1  10
ATOM     10  O   UNL     1       5.936   6.116  14.866  0.00  0.00    +0.000 OA
ATOM     11  H   UNL     1       5.960   6.615  15.700  0.00  0.00    +0.000 HD
ENDBRANCH   1  10
BRANCH   1  12
ATOM     12  C   UNL     1       5.148   4.024  13.908  0.00  0.00    +0.000 C 
BRANCH  12  14
ATOM     13  C   UNL     1       5.809   2.873  11.872  0.00  0.00    +0.000 C 
ATOM     14  N   UNL     1       6.230   3.338  13.184  0.00  0.00    +0.000 NA
ATOM     15  H   UNL     1       7.017   3.975  13.070  0.00  0.00    +0.000 HD
ENDBRANCH  12  14
ENDBRANCH   1  12
BRANCH   9  16
ATOM     16  O   UNL     1       4.104   3.416  16.695  0.00  0.00    +0.000 OA
BRANCH  16  17
ATOM     17  C   UNL     1       3.031   3.285  17.531  0.00  0.00    +0.000 A 
ATOM     18  C   UNL     1       1.952   4.169  17.607  0.00  0.00    +0.000 A 
ATOM     19  C   UNL     1       0.838   3.875  18.404  0.00  0.00    +0.000 A 
ATOM     20  C   UNL     1       0.774   2.681  19.115  0.00  0.00    +0.000 A 
ATOM     21  C   UNL     1       1.869   1.827  19.101  0.00  0.00    +0.000 A 
ATOM     22  C   UNL     1       3.028   2.151  18.369  0.00  0.00    +0.000 A 
BRANCH  22  23
ATOM     23  C   UNL     1       4.256   1.305  18.597  0.00  0.00    +0.000 C 
BRANCH  23  24
ATOM     24  O   UNL     1       5.055   1.899  19.625  0.00  0.00    +0.000 OA
ATOM     25  H   UNL     1       4.601   2.720  19.898  0.00  0.00    +0.000 HD
ENDBRANCH  23  24
ENDBRANCH  22  23
ENDBRANCH  16  17
ENDBRANCH   9  16
TORSDOF 7
ENDMDL
MODEL 4
REMARK VINA RESULT:      -6.9      3.734      5.857
REMARK  Name = 
REMARK  8 active torsions:
REMARK  status: ('A' for Active; 'I' for Inactive)
REMARK    1  A    between atoms: C_1  and  N_2
REMARK    2  A    between atoms: N_2  and  C_3
REMARK    3  A    between atoms: C_3  and  C_4
REMARK    4  A    between atoms: C_4  and  O_5
REMARK    5  A    between atoms: C_13  and  O_14
REMARK    6  A    between atoms: O_14  and  C_15
REMARK    7  A    between atoms: C_20  and  C_21
REMARK    8  A    between atoms: C_21  and  O_22
REMARK                            x       y       z     vdW  Elec       q    Type
REMARK                         _______ _______ _______ _____ _____    ______ ____
ROOT
ATOM      1  C   UNL     1       4.205   2.234  20.169  0.00  0.00    +0.000 C 
ATOM      2  C   UNL     1       3.292   1.876  18.964  0.00  0.00    +0.000 C 
ATOM      3  C   UNL     1       2.768   3.236  18.599  0.00  0.00    +0.000 A 
ATOM      4  C   UNL     1       1.601   3.551  17.925  0.00  0.00    +0.000 A 
ATOM      5  C   UNL     1       1.278   4.900  17.768  0.00  0.00    +0.000 A 
ATOM      6  C   UNL     1       2.127   5.905  18.263  0.00  0.00    +0.000 A 
ATOM      7  C   UNL     1       3.315   5.576  18.919  0.00  0.00    +0.000 A 
ATOM      8  C   UNL     1       3.619   4.236  19.086  0.00  0.00    +0.000 A 
ATOM      9  C   UNL     1       4.801   3.642  19.823  0.00  0.00    +0.000 C 
ENDROOT
BRANCH   1  10
ATOM     10  O   UNL     1       3.345   2.373  21.335  0.00  0.00    +0.000 OA
ATOM     11  H   UNL     1       2.807   3.173  21.210  0.00  0.00    +0.000 HD
ENDBRANCH   1  10
BRANCH   1  12
ATOM     12  C   UNL     1       5.225   1.105  20.457  0.00  0.00    +0.000 C 
BRANCH  12  14
ATOM     13  C   UNL     1       6.335  -0.140  22.224  0.00  0.00    +0.000 C 
ATOM     14  N   UNL     1       5.685   1.108  21.854  0.00  0.00    +0.000 NA
ATOM     15  H   UNL     1       6.342   1.874  21.992  0.00  0.00    +0.000 HD
ENDBRANCH  12  14
ENDBRANCH   1  12
BRANCH   9  16
ATOM     16  O   UNL     1       5.868   3.613  18.869  0.00  0.00    +0.000 OA
BRANCH  16  17
ATOM     17  C   UNL     1       6.434   4.768  18.405  0.00  0.00    +0.000 A 
ATOM     18  C   UNL     1       7.105   5.710  19.188  0.00  0.00    +0.000 A 
ATOM     19  C   UNL     1       7.763   6.797  18.596  0.00  0.00    +0.000 A 
ATOM     20  C   UNL     1       7.783   6.941  17.212  0.00  0.00    +0.000 A 
ATOM     21  C   UNL     1       7.063   6.048  16.430  0.00  0.00    +0.000 A 
ATOM     22  C   UNL     1       6.329   5.000  17.019  0.00  0.00    +0.000 A 
BRANCH  22  23
ATOM     23  C   UNL     1       5.381   4.229  16.134  0.00  0.00    +0.000 C 
BRANCH  23  24
ATOM     24  O   UNL     1       5.944   2.946  15.843  0.00  0.00    +0.000 OA
ATOM     25  H   UNL     1       6.831   2.926  16.253  0.00  0.00    +0.000 HD
ENDBRANCH  23  24
ENDBRANCH  22  23
ENDBRANCH  16  17
ENDBRANCH   9  16
TORSDOF 7
ENDMDL
MODEL 5
REMARK VINA RESULT:      -6.8      2.056      4.376
REMARK  Name = 
REMARK  8 active torsions:
REMARK  status: ('A' for Active; 'I' for Inactive)
REMARK    1  A    between atoms: C_1  and  N_2
REMARK    2  A    between atoms: N_2  and  C_3
REMARK    3  A    between atoms: C_3  and  C_4
REMARK    4  A    between atoms: C_4  and  O_5
REMARK    5  A    between atoms: C_13  and  O_14
REMARK    6  A    between atoms: O_14  and  C_15
REMARK    7  A    between atoms: C_20  and  C_21
REMARK    8  A    between atoms: C_21  and  O_22
REMARK                            x       y       z     vdW  Elec       q    Type
REMARK                         _______ _______ _______ _____ _____    ______ ____
ROOT
ATOM      1  C   UNL     1       2.831   4.376  18.471  0.00  0.00    +0.000 C 
ATOM      2  C   UNL     1       4.106   3.999  19.274  0.00  0.00    +0.000 C 
ATOM      3  C   UNL     1       5.123   4.884  18.612  0.00  0.00    +0.000 A 
ATOM      4  C   UNL     1       6.496   4.715  18.553  0.00  0.00    +0.000 A 
ATOM      5  C   UNL     1       7.238   5.633  17.808  0.00  0.00    +0.000 A 
ATOM      6  C   UNL     1       6.608   6.708  17.158  0.00  0.00    +0.000 A 
ATOM      7  C   UNL     1       5.225   6.884  17.247  0.00  0.00    +0.000 A 
ATOM      8  C   UNL     1       4.495   5.960  17.972  0.00  0.00    +0.000 A 
ATOM      9  C   UNL     1       2.992   5.901  18.146  0.00  0.00    +0.000 C 
ENDROOT
BRANCH   1  10
ATOM     10  O   UNL     1       2.875   3.633  17.219  0.00  0.00    +0.000 OA
ATOM     11  H   UNL     1       3.702   3.869  16.766  0.00  0.00    +0.000 HD
ENDBRANCH   1  10
BRANCH   1  12
ATOM     12  C   UNL     1       1.545   3.963  19.229  0.00  0.00    +0.000 C 
BRANCH  12  14
ATOM     13  C   UNL     1       1.367   2.916  21.414  0.00  0.00    +0.000 C 
ATOM     14  N   UNL     1       1.672   4.137  20.684  0.00  0.00    +0.000 NA
ATOM     15  H   UNL     1       2.624   4.425  20.908  0.00  0.00    +0.000 HD
ENDBRANCH  12  14
ENDBRANCH   1  12
BRANCH   9  16
ATOM     16  O   UNL     1       2.702   6.772  19.244  0.00  0.00    +0.000 OA
BRANCH  16  17
ATOM     17  C   UNL     1       2.133   7.998  19.044  0.00  0.00    +0.000 A 
ATOM     18  C   UNL     1       2.251   8.764  17.882  0.00  0.00    +0.000 A 
ATOM     19  C   UNL     1       1.521   9.950  17.727  0.00  0.00    +0.000 A 
ATOM     20  C   UNL     1       0.642  10.373  18.719  0.00  0.00    +0.000 A 
ATOM     21  C   UNL     1       0.567   9.656  19.906  0.00  0.00    +0.000 A 
ATOM     22  C   UNL     1       1.358   8.508  20.106  0.00  0.00    +0.000 A 
BRANCH  22  23
ATOM     23  C   UNL     1       1.407   7.929  21.499  0.00  0.00    +0.000 C 
BRANCH  23  24
ATOM     24  O   UNL     1       1.788   8.953  22.423  0.00  0.00    +0.000 OA
ATOM     25  H   UNL     1       1.401   8.712  23.288  0.00  0.00    +0.000 HD
ENDBRANCH  23  24
ENDBRANCH  22  23
ENDBRANCH  16  17
ENDBRANCH   9  16
TORSDOF 7
ENDMDL
MODEL 6
REMARK VINA RESULT:      -6.6      1.262      1.288
REMARK  Name = 
REMARK  8 active torsions:
REMARK  status: ('A' for Active; 'I' for Inactive)
REMARK    1  A    between atoms: C_1  and  N_2
REMARK    2  A    between atoms: N_2  and  C_3
REMARK    3  A    between atoms: C_3  and  C_4
REMARK    4  A    between atoms: C_4  and  O_5
REMARK    5  A    between atoms: C_13  and  O_14
REMARK    6  A    between atoms: O_14  and  C_15
REMARK    7  A    between atoms: C_20  and  C_21
REMARK    8  A    between atoms: C_21  and  O_22
REMARK                            x       y       z     vdW  Elec       q    Type
REMARK                         _______ _______ _______ _____ _____    ______ ____
ROOT
ATOM      1  C   UNL     1       4.625   4.780  19.071  0.00  0.00    +0.000 C 
ATOM      2  C   UNL     1       4.033   4.024  17.850  0.00  0.00    +0.000 C 
ATOM      3  C   UNL     1       2.714   3.576  18.414  0.00  0.00    +0.000 A 
ATOM      4  C   UNL     1       1.927   2.512  18.008  0.00  0.00    +0.000 A 
ATOM      5  C   UNL     1       0.770   2.237  18.738  0.00  0.00    +0.000 A 
ATOM      6  C   UNL     1       0.408   3.033  19.838  0.00  0.00    +0.000 A 
ATOM      7  C   UNL     1       1.195   4.121  20.222  0.00  0.00    +0.000 A 
ATOM      8  C   UNL     1       2.350   4.376  19.504  0.00  0.00    +0.000 A 
ATOM      9  C   UNL     1       3.391   5.442  19.776  0.00  0.00    +0.000 C 
ENDROOT
BRANCH   1  10
ATOM     10  O   UNL     1       5.185   3.779  19.969  0.00  0.00    +0.000 OA
ATOM     11  H   UNL     1       4.520   3.079  20.078  0.00  0.00    +0.000 HD
ENDBRANCH   1  10
BRANCH   1  12
ATOM     12  C   UNL     1       5.768   5.733  18.643  0.00  0.00    +0.000 C 
BRANCH  12  14
ATOM     13  C   UNL     1       7.677   4.606  17.649  0.00  0.00    +0.000 C 
ATOM     14  N   UNL     1       7.099   5.150  18.869  0.00  0.00    +0.000 NA
ATOM     15  H   UNL     1       7.724   5.865  19.238  0.00  0.00    +0.000 HD
ENDBRANCH  12  14
ENDBRANCH   1  12
BRANCH   9  16
ATOM     16  O   UNL     1       2.904   6.622  19.130  0.00  0.00    +0.000 OA
BRANCH  16  17
ATOM     17  C   UNL     1       2.104   7.512  19.790  0.00  0.00    +0.000 A 
ATOM     18  C   UNL     1       1.725   7.417  21.131  0.00  0.00    +0.000 A 
ATOM     19  C   UNL     1       1.008   8.451  21.748  0.00  0.00    +0.000 A 
ATOM     20  C   UNL     1       0.684   9.606  21.042  0.00  0.00    +0.000 A 
ATOM     21  C   UNL     1       0.997   9.681  19.692  0.00  0.00    +0.000 A 
ATOM     22  C   UNL     1       1.644   8.613  19.039  0.00  0.00    +0.000 A 
BRANCH  22  23
ATOM     23  C   UNL     1       1.728   8.663  17.534  0.00  0.00    +0.000 C 
BRANCH  23  24
ATOM     24  O   UNL     1       3.092   8.508  17.131  0.00  0.00    +0.000 OA
ATOM     25  H   UNL     1       3.280   9.218  16.486  0.00  0.00    +0.000 HD
ENDBRANCH  23  24
ENDBRANCH  22  23
ENDBRANCH  16  17
ENDBRANCH   9  16
TORSDOF 7
ENDMDL
MODEL 7
REMARK VINA RESULT:      -6.6      2.039      3.851
REMARK  Name = 
REMARK  8 active torsions:
REMARK  status: ('A' for Active; 'I' for Inactive)
REMARK    1  A    between atoms: C_1  and  N_2
REMARK    2  A    between atoms: N_2  and  C_3
REMARK    3  A    between atoms: C_3  and  C_4
REMARK    4  A    between atoms: C_4  and  O_5
REMARK    5  A    between atoms: C_13  and  O_14
REMARK    6  A    between atoms: O_14  and  C_15
REMARK    7  A    between atoms: C_20  and  C_21
REMARK    8  A    between atoms: C_21  and  O_22
REMARK                            x       y       z     vdW  Elec       q    Type
REMARK                         _______ _______ _______ _____ _____    ______ ____
ROOT
ATOM      1  C   UNL     1       2.277   4.793  19.226  0.00  0.00    +0.000 C 
ATOM      2  C   UNL     1       3.710   4.311  19.580  0.00  0.00    +0.000 C 
ATOM      3  C   UNL     1       4.503   4.971  18.488  0.00  0.00    +0.000 A 
ATOM      4  C   UNL     1       5.735   4.597  17.979  0.00  0.00    +0.000 A 
ATOM      5  C   UNL     1       6.246   5.322  16.901  0.00  0.00    +0.000 A 
ATOM      6  C   UNL     1       5.537   6.411  16.366  0.00  0.00    +0.000 A 
ATOM      7  C   UNL     1       4.308   6.796  16.905  0.00  0.00    +0.000 A 
ATOM      8  C   UNL     1       3.799   6.061  17.962  0.00  0.00    +0.000 A 
ATOM      9  C   UNL     1       2.465   6.241  18.654  0.00  0.00    +0.000 C 
ENDROOT
BRANCH   1  10
ATOM     10  O   UNL     1       1.786   3.937  18.155  0.00  0.00    +0.000 OA
ATOM     11  H   UNL     1       1.851   4.438  17.325  0.00  0.00    +0.000 HD
ENDBRANCH   1  10
BRANCH   1  12
ATOM     12  C   UNL     1       1.319   4.647  20.434  0.00  0.00    +0.000 C 
BRANCH  12  14
ATOM     13  C   UNL     1       1.465   2.576  21.696  0.00  0.00    +0.000 C 
ATOM     14  N   UNL     1       0.822   3.272  20.593  0.00  0.00    +0.000 NA
ATOM     15  H   UNL     1      -0.184   3.293  20.759  0.00  0.00    +0.000 HD
ENDBRANCH  12  14
ENDBRANCH   1  12
BRANCH   9  16
ATOM     16  O   UNL     1       2.685   7.245  19.651  0.00  0.00    +0.000 OA
BRANCH  16  17
ATOM     17  C   UNL     1       1.672   8.061  20.068  0.00  0.00    +0.000 A 
ATOM     18  C   UNL     1       0.950   7.912  21.255  0.00  0.00    +0.000 A 
ATOM     19  C   UNL     1       0.018   8.879  21.654  0.00  0.00    +0.000 A 
ATOM     20  C   UNL     1      -0.185  10.023  20.888  0.00  0.00    +0.000 A 
ATOM     21  C   UNL     1       0.476  10.148  19.674  0.00  0.00    +0.000 A 
ATOM     22  C   UNL     1       1.353   9.143  19.222  0.00  0.00    +0.000 A 
BRANCH  22  23
ATOM     23  C   UNL     1       1.839   9.230  17.796  0.00  0.00    +0.000 C 
BRANCH  23  24
ATOM     24  O   UNL     1       2.065  10.602  17.457  0.00  0.00    +0.000 OA
ATOM     25  H   UNL     1       1.402  11.128  17.946  0.00  0.00    +0.000 HD
ENDBRANCH  23  24
ENDBRANCH  22  23
ENDBRANCH  16  17
ENDBRANCH   9  16
TORSDOF 7
ENDMDL
MODEL 8
REMARK VINA RESULT:      -6.6      2.271      5.664
REMARK  Name = 
REMARK  8 active torsions:
REMARK  status: ('A' for Active; 'I' for Inactive)
REMARK    1  A    between atoms: C_1  and  N_2
REMARK    2  A    between atoms: N_2  and  C_3
REMARK    3  A    between atoms: C_3  and  C_4
REMARK    4  A    between atoms: C_4  and  O_5
REMARK    5  A    between atoms: C_13  and  O_14
REMARK    6  A    between atoms: O_14  and  C_15
REMARK    7  A    between atoms: C_20  and  C_21
REMARK    8  A    between atoms: C_21  and  O_22
REMARK                            x       y       z     vdW  Elec       q    Type
REMARK                         _______ _______ _______ _____ _____    ______ ____
ROOT
ATOM      1  C   UNL     1       2.227   7.982  18.261  0.00  0.00    +0.000 C 
ATOM      2  C   UNL     1       2.162   7.565  19.756  0.00  0.00    +0.000 C 
ATOM      3  C   UNL     1       2.001   6.077  19.622  0.00  0.00    +0.000 A 
ATOM      4  C   UNL     1       1.452   5.191  20.532  0.00  0.00    +0.000 A 
ATOM      5  C   UNL     1       1.335   3.852  20.154  0.00  0.00    +0.000 A 
ATOM      6  C   UNL     1       1.784   3.419  18.895  0.00  0.00    +0.000 A 
ATOM      7  C   UNL     1       2.362   4.317  17.995  0.00  0.00    +0.000 A 
ATOM      8  C   UNL     1       2.457   5.646  18.370  0.00  0.00    +0.000 A 
ATOM      9  C   UNL     1       2.972   6.805  17.543  0.00  0.00    +0.000 C 
ENDROOT
BRANCH   1  10
ATOM     10  O   UNL     1       0.858   8.030  17.766  0.00  0.00    +0.000 OA
ATOM     11  H   UNL     1       0.802   7.436  17.000  0.00  0.00    +0.000 HD
ENDBRANCH   1  10
BRANCH   1  12
ATOM     12  C   UNL     1       2.846   9.393  18.097  0.00  0.00    +0.000 C 
BRANCH  12  14
ATOM     13  C   UNL     1       1.747  11.525  18.486  0.00  0.00    +0.000 C 
ATOM     14  N   UNL     1       1.873  10.378  17.600  0.00  0.00    +0.000 NA
ATOM     15  H   UNL     1       2.162  10.704  16.679  0.00  0.00    +0.000 HD
ENDBRANCH  12  14
ENDBRANCH   1  12
BRANCH   9  16
ATOM     16  O   UNL     1       4.391   6.804  17.728  0.00  0.00    +0.000 OA
BRANCH  16  17
ATOM     17  C   UNL     1       5.205   6.023  16.956  0.00  0.00    +0.000 A 
ATOM     18  C   UNL     1       5.196   5.980  15.559  0.00  0.00    +0.000 A 
ATOM     19  C   UNL     1       6.160   5.243  14.859  0.00  0.00    +0.000 A 
ATOM     20  C   UNL     1       7.163   4.562  15.541  0.00  0.00    +0.000 A 
ATOM     21  C   UNL     1       7.141   4.543  16.929  0.00  0.00    +0.000 A 
ATOM     22  C   UNL     1       6.128   5.211  17.645  0.00  0.00    +0.000 A 
BRANCH  22  23
ATOM     23  C   UNL     1       6.028   4.943  19.126  0.00  0.00    +0.000 C 
BRANCH  23  24
ATOM     24  O   UNL     1       5.601   3.593  19.335  0.00  0.00    +0.000 OA
ATOM     25  H   UNL     1       6.320   3.015  19.012  0.00  0.00    +0.000 HD
ENDBRANCH  23  24
ENDBRANCH  22  23
ENDBRANCH  16  17
ENDBRANCH   9  16
TORSDOF 7
ENDMDL
MODEL 9
REMARK VINA RESULT:      -6.5      2.840      5.666
REMARK  Name = 
REMARK  8 active torsions:
REMARK  status: ('A' for Active; 'I' for Inactive)
REMARK    1  A    between atoms: C_1  and  N_2
REMARK    2  A    between atoms: N_2  and  C_3
REMARK    3  A    between atoms: C_3  and  C_4
REMARK    4  A    between atoms: C_4  and  O_5
REMARK    5  A    between atoms: C_13  and  O_14
REMARK    6  A    between atoms: O_14  and  C_15
REMARK    7  A    between atoms: C_20  and  C_21
REMARK    8  A    between atoms: C_21  and  O_22
REMARK                            x       y       z     vdW  Elec       q    Type
REMARK                         _______ _______ _______ _____ _____    ______ ____
ROOT
ATOM      1  C   UNL     1       6.927   4.951  17.249  0.00  0.00    +0.000 C 
ATOM      2  C   UNL     1       7.280   5.992  16.152  0.00  0.00    +0.000 C 
ATOM      3  C   UNL     1       6.944   5.213  14.912  0.00  0.00    +0.000 A 
ATOM      4  C   UNL     1       7.434   5.392  13.630  0.00  0.00    +0.000 A 
ATOM      5  C   UNL     1       7.033   4.489  12.643  0.00  0.00    +0.000 A 
ATOM      6  C   UNL     1       6.141   3.445  12.943  0.00  0.00    +0.000 A 
ATOM      7  C   UNL     1       5.632   3.291  14.234  0.00  0.00    +0.000 A 
ATOM      8  C   UNL     1       6.048   4.179  15.210  0.00  0.00    +0.000 A 
ATOM      9  C   UNL     1       5.694   4.166  16.682  0.00  0.00    +0.000 C 
ENDROOT
BRANCH   1  10
ATOM     10  O   UNL     1       8.051   4.030  17.348  0.00  0.00    +0.000 OA
ATOM     11  H   UNL     1       8.012   3.612  18.224  0.00  0.00    +0.000 HD
ENDBRANCH   1  10
BRANCH   1  12
ATOM     12  C   UNL     1       6.739   5.628  18.629  0.00  0.00    +0.000 C 
BRANCH  12  14
ATOM     13  C   UNL     1       8.316   7.474  18.752  0.00  0.00    +0.000 C 
ATOM     14  N   UNL     1       8.007   6.121  19.189  0.00  0.00    +0.000 NA
ATOM     15  H   UNL     1       7.955   6.108  20.207  0.00  0.00    +0.000 HD
ENDBRANCH  12  14
ENDBRANCH   1  12
BRANCH   9  16
ATOM     16  O   UNL     1       4.451   4.868  16.781  0.00  0.00    +0.000 OA
BRANCH  16  17
ATOM     17  C   UNL     1       3.385   4.330  17.445  0.00  0.00    +0.000 A 
ATOM     18  C   UNL     1       2.948   3.007  17.335  0.00  0.00    +0.000 A 
ATOM     19  C   UNL     1       1.923   2.520  18.157  0.00  0.00    +0.000 A 
ATOM     20  C   UNL     1       1.341   3.337  19.120  0.00  0.00    +0.000 A 
ATOM     21  C   UNL     1       1.720   4.671  19.192  0.00  0.00    +0.000 A 
ATOM     22  C   UNL     1       2.689   5.195  18.315  0.00  0.00    +0.000 A 
BRANCH  22  23
ATOM     23  C   UNL     1       2.869   6.692  18.287  0.00  0.00    +0.000 C 
BRANCH  23  24
ATOM     24  O   UNL     1       2.416   7.246  19.526  0.00  0.00    +0.000 OA
ATOM     25  H   UNL     1       2.678   6.620  20.229  0.00  0.00    +0.000 HD
ENDBRANCH  23  24
ENDBRANCH  22  23
ENDBRANCH  16  17
ENDBRANCH   9  16
TORSDOF 7
ENDMDL
