MODEL 1
REMARK VINA RESULT:      -8.7      0.000      0.000
REMARK  Name = 
REMARK  8 active torsions:
REMARK  status: ('A' for Active; 'I' for Inactive)
REMARK    1  A    between atoms: C_1  and  C_2
REMARK    2  A    between atoms: C_2  and  N_3
REMARK    3  A    between atoms: C_2  and  C_4
REMARK    4  A    between atoms: C_6  and  C_7
REMARK    5  A    between atoms: C_13  and  N_14
REMARK    6  A    between atoms: C_18  and  C_20
REMARK    7  A    between atoms: C_20  and  C_21
REMARK    8  A    between atoms: C_21  and  C_22
REMARK                            x       y       z     vdW  Elec       q    Type
REMARK                         _______ _______ _______ _____ _____    ______ ____
ROOT
ATOM      1  N   UNL     1       2.699   7.732  18.539  0.00  0.00    +0.000 N 
ATOM      2  C   UNL     1       1.933   7.272  19.718  0.00  0.00    +0.000 C 
ATOM      3  C   UNL     1       1.533   8.506  20.546  0.00  0.00    +0.000 C 
ATOM      4  N   UNL     1       0.809   9.511  19.751  0.00  0.00    +0.000 N 
ATOM      5  C   UNL     1       0.024  10.426  20.446  0.00  0.00    +0.000 C 
ATOM      6  O   UNL     1      -0.175  10.350  21.661  0.00  0.00    +0.000 OA
ATOM      7  C   UNL     1       1.399   9.807  18.422  0.00  0.00    +0.000 C 
ATOM      8  C   UNL     1       1.849   8.548  17.649  0.00  0.00    +0.000 C 
ENDROOT
BRANCH   1  14
ATOM      9  C   UNL     1       3.513   5.476  17.997  0.00  0.00    +0.000 A 
ATOM     10  C   UNL     1       4.456   4.678  17.304  0.00  0.00    +0.000 A 
ATOM     11  C   UNL     1       5.520   5.222  16.579  0.00  0.00    +0.000 A 
ATOM     12  C   UNL     1       5.642   6.610  16.533  0.00  0.00    +0.000 A 
ATOM     13  C   UNL     1       4.715   7.419  17.203  0.00  0.00    +0.000 A 
ATOM     14  C   UNL     1       3.636   6.889  17.942  0.00  0.00    +0.000 A 
BRANCH  11  15
ATOM     15  C   UNL     1       6.507   4.321  15.884  0.00  0.00    +0.000 C 
ATOM     16  F   UNL     1       5.984   3.109  15.539  0.00  0.00    +0.000 F 
ATOM     17  F   UNL     1       6.984   4.858  14.727  0.00  0.00    +0.000 F 
ATOM     18  F   UNL     1       7.598   4.047  16.650  0.00  0.00    +0.000 F 
ENDBRANCH  11  15
BRANCH   9  20
ATOM     19  C   UNL     1       1.464   3.940  17.862  0.00  0.00    +0.000 C 
ATOM     20  C   UNL     1       2.415   4.737  18.763  0.00  0.00    +0.000 C 
BRANCH  20  21
ATOM     21  N   UNL     1       3.014   3.837  19.767  0.00  0.00    +0.000 NA
ATOM     22  H   UNL     1       2.332   3.126  20.034  0.00  0.00    +0.000 HD
ATOM     23  H   UNL     1       3.204   4.362  20.617  0.00  0.00    +0.000 HD
ENDBRANCH  20  21
ENDBRANCH   9  20
ENDBRANCH   1  14
BRANCH   5  24
ATOM     24  C   UNL     1      -0.634  11.497  19.600  0.00  0.00    +0.000 C 
BRANCH  24  25
ATOM     25  C   UNL     1      -2.157  11.485  19.664  0.00  0.00    +0.000 C 
BRANCH  25  26
ATOM     26  C   UNL     1      -2.705  11.054  18.318  0.00  0.00    +0.000 A 
ATOM     27  C   UNL     1      -1.872  10.310  17.464  0.00  0.00    +0.000 A 
ATOM     28  C   UNL     1      -2.282   9.994  16.168  0.00  0.00    +0.000 A 
ATOM     29  C   UNL     1      -3.528  10.417  15.714  0.00  0.00    +0.000 A 
ATOM     30 CL   UNL     1      -4.015  10.059  14.103  0.00  0.00    +0.000 Cl
ATOM     31  C   UNL     1      -4.375  11.142  16.547  0.00  0.00    +0.000 A 
ATOM     32  C   UNL     1      -3.965  11.461  17.843  0.00  0.00    +0.000 A 
ATOM     33 CL   UNL     1      -5.046  12.400  18.811  0.00  0.00    +0.000 Cl
ENDBRANCH  25  26
ENDBRANCH  24  25
ENDBRANCH   5  24
TORSDOF 7
ENDMDL
MODEL 2
REMARK VINA RESULT:      -8.3      5.735      9.381
REMARK  Name = 
REMARK  8 active torsions:
REMARK  status: ('A' for Active; 'I' for Inactive)
REMARK    1  A    between atoms: C_1  and  C_2
REMARK    2  A    between atoms: C_2  and  N_3
REMARK    3  A    between atoms: C_2  and  C_4
REMARK    4  A    between atoms: C_6  and  C_7
REMARK    5  A    between atoms: C_13  and  N_14
REMARK    6  A    between atoms: C_18  and  C_20
REMARK    7  A    between atoms: C_20  and  C_21
REMARK    8  A    between atoms: C_21  and  C_22
REMARK                            x       y       z     vdW  Elec       q    Type
REMARK                         _______ _______ _______ _____ _____    ______ ____
ROOT
ATOM      1  N   UNL     1       1.365   7.629  20.177  0.00  0.00    +0.000 N 
ATOM      2  C   UNL     1       1.745   6.472  21.017  0.00  0.00    +0.000 C 
ATOM      3  C   UNL     1       1.772   5.217  20.127  0.00  0.00    +0.000 C 
ATOM      4  N   UNL     1       2.639   5.377  18.949  0.00  0.00    +0.000 N 
ATOM      5  C   UNL     1       3.094   4.215  18.332  0.00  0.00    +0.000 C 
ATOM      6  O   UNL     1       2.900   3.090  18.799  0.00  0.00    +0.000 OA
ATOM      7  C   UNL     1       2.484   6.662  18.222  0.00  0.00    +0.000 C 
ATOM      8  C   UNL     1       2.395   7.892  19.152  0.00  0.00    +0.000 C 
ENDROOT
BRANCH   1  14
ATOM      9  C   UNL     1       0.167   9.765  19.957  0.00  0.00    +0.000 A 
ATOM     10  C   UNL     1      -0.533  10.816  20.598  0.00  0.00    +0.000 A 
ATOM     11  C   UNL     1      -0.680  10.892  21.986  0.00  0.00    +0.000 A 
ATOM     12  C   UNL     1      -0.120   9.879  22.762  0.00  0.00    +0.000 A 
ATOM     13  C   UNL     1       0.569   8.823  22.149  0.00  0.00    +0.000 A 
ATOM     14  C   UNL     1       0.729   8.731  20.750  0.00  0.00    +0.000 A 
BRANCH  11  15
ATOM     15  C   UNL     1      -1.413  12.050  22.612  0.00  0.00    +0.000 C 
ATOM     16  F   UNL     1      -2.182  12.747  21.726  0.00  0.00    +0.000 F 
ATOM     17  F   UNL     1      -2.259  11.660  23.606  0.00  0.00    +0.000 F 
ATOM     18  F   UNL     1      -0.573  12.964  23.169  0.00  0.00    +0.000 F 
ENDBRANCH  11  15
BRANCH   9  20
ATOM     19  C   UNL     1      -1.083  10.096  17.742  0.00  0.00    +0.000 C 
ATOM     20  C   UNL     1       0.261   9.828  18.432  0.00  0.00    +0.000 C 
BRANCH  20  21
ATOM     21  N   UNL     1       1.237  10.855  18.025  0.00  0.00    +0.000 NA
ATOM     22  H   UNL     1       1.129  11.050  17.030  0.00  0.00    +0.000 HD
ATOM     23  H   UNL     1       2.178  10.483  18.127  0.00  0.00    +0.000 HD
ENDBRANCH  20  21
ENDBRANCH   9  20
ENDBRANCH   1  14
BRANCH   5  24
ATOM     24  C   UNL     1       3.911   4.421  17.073  0.00  0.00    +0.000 C 
BRANCH  24  25
ATOM     25  C   UNL     1       5.349   3.928  17.182  0.00  0.00    +0.000 C 
BRANCH  25  26
ATOM     26  C   UNL     1       6.258   5.111  17.451  0.00  0.00    +0.000 A 
ATOM     27  C   UNL     1       7.081   5.076  18.590  0.00  0.00    +0.000 A 
ATOM     28  C   UNL     1       7.844   6.187  18.950  0.00  0.00    +0.000 A 
ATOM     29  C   UNL     1       7.794   7.342  18.176  0.00  0.00    +0.000 A 
ATOM     30 CL   UNL     1       8.707   8.723  18.643  0.00  0.00    +0.000 Cl
ATOM     31  C   UNL     1       6.997   7.394  17.036  0.00  0.00    +0.000 A 
ATOM     32  C   UNL     1       6.231   6.284  16.675  0.00  0.00    +0.000 A 
ATOM     33 CL   UNL     1       5.230   6.430  15.273  0.00  0.00    +0.000 Cl
ENDBRANCH  25  26
ENDBRANCH  24  25
ENDBRANCH   5  24
TORSDOF 7
ENDMDL
MODEL 3
REMARK VINA RESULT:      -8.3      6.788     10.472
REMARK  Name = 
REMARK  8 active torsions:
REMARK  status: ('A' for Active; 'I' for Inactive)
REMARK    1  A    between atoms: C_1  and  C_2
REMARK    2  A    between atoms: C_2  and  N_3
REMARK    3  A    between atoms: C_2  and  C_4
REMARK    4  A    between atoms: C_6  and  C_7
REMARK    5  A    between atoms: C_13  and  N_14
REMARK    6  A    between atoms: C_18  and  C_20
REMARK    7  A    between atoms: C_20  and  C_21
REMARK    8  A    between atoms: C_21  and  C_22
REMARK                            x       y       z     vdW  Elec       q    Type
REMARK                         _______ _______ _______ _____ _____    ______ ____
ROOT
ATOM      1  N   UNL     1      -0.239  11.226  21.175  0.00  0.00    +0.000 N 
ATOM      2  C   UNL     1      -0.671  11.143  19.763  0.00  0.00    +0.000 C 
ATOM      3  C   UNL     1       0.523  10.658  18.921  0.00  0.00    +0.000 C 
ATOM      4  N   UNL     1       1.093   9.396  19.420  0.00  0.00    +0.000 N 
ATOM      5  C   UNL     1       1.848   8.642  18.525  0.00  0.00    +0.000 C 
ATOM      6  O   UNL     1       1.952   8.929  17.331  0.00  0.00    +0.000 OA
ATOM      7  C   UNL     1       1.290   9.331  20.889  0.00  0.00    +0.000 C 
ATOM      8  C   UNL     1       0.098   9.887  21.699  0.00  0.00    +0.000 C 
ENDROOT
BRANCH   1  14
ATOM      9  C   UNL     1      -0.383  13.445  22.223  0.00  0.00    +0.000 A 
ATOM     10  C   UNL     1      -1.107  14.329  23.061  0.00  0.00    +0.000 A 
ATOM     11  C   UNL     1      -2.268  13.948  23.740  0.00  0.00    +0.000 A 
ATOM     12  C   UNL     1      -2.731  12.644  23.568  0.00  0.00    +0.000 A 
ATOM     13  C   UNL     1      -2.037  11.756  22.736  0.00  0.00    +0.000 A 
ATOM     14  C   UNL     1      -0.862  12.121  22.045  0.00  0.00    +0.000 A 
BRANCH  11  15
ATOM     15  C   UNL     1      -2.980  14.924  24.639  0.00  0.00    +0.000 C 
ATOM     16  F   UNL     1      -2.681  16.228  24.367  0.00  0.00    +0.000 F 
ATOM     17  F   UNL     1      -4.335  14.831  24.547  0.00  0.00    +0.000 F 
ATOM     18  F   UNL     1      -2.678  14.744  25.954  0.00  0.00    +0.000 F 
ENDBRANCH  11  15
BRANCH   9  20
ATOM     19  C   UNL     1       0.621  14.685  20.215  0.00  0.00    +0.000 C 
ATOM     20  C   UNL     1       0.879  14.000  21.563  0.00  0.00    +0.000 C 
BRANCH  20  21
ATOM     21  N   UNL     1       1.556  14.944  22.473  0.00  0.00    +0.000 NA
ATOM     22  H   UNL     1       1.907  14.438  23.287  0.00  0.00    +0.000 HD
ATOM     23  H   UNL     1       0.874  15.604  22.839  0.00  0.00    +0.000 HD
ENDBRANCH  20  21
ENDBRANCH   9  20
ENDBRANCH   1  14
BRANCH   5  24
ATOM     24  C   UNL     1       2.490   7.396  19.102  0.00  0.00    +0.000 C 
BRANCH  24  25
ATOM     25  C   UNL     1       2.201   6.130  18.305  0.00  0.00    +0.000 C 
BRANCH  25  26
ATOM     26  C   UNL     1       3.476   5.670  17.627  0.00  0.00    +0.000 A 
ATOM     27  C   UNL     1       4.457   6.631  17.327  0.00  0.00    +0.000 A 
ATOM     28  C   UNL     1       5.593   6.284  16.595  0.00  0.00    +0.000 A 
ATOM     29  C   UNL     1       5.761   4.974  16.157  0.00  0.00    +0.000 A 
ATOM     30 CL   UNL     1       7.144   4.557  15.223  0.00  0.00    +0.000 Cl
ATOM     31  C   UNL     1       4.810   4.003  16.455  0.00  0.00    +0.000 A 
ATOM     32  C   UNL     1       3.671   4.349  17.186  0.00  0.00    +0.000 A 
ATOM     33 CL   UNL     1       2.508   3.105  17.484  0.00  0.00    +0.000 Cl
ENDBRANCH  25  26
ENDBRANCH  24  25
ENDBRANCH   5  24
TORSDOF 7
ENDMDL
MODEL 4
REMARK VINA RESULT:      -8.1      0.787      1.839
REMARK  Name = 
REMARK  8 active torsions:
REMARK  status: ('A' for Active; 'I' for Inactive)
REMARK    1  A    between atoms: C_1  and  C_2
REMARK    2  A    between atoms: C_2  and  N_3
REMARK    3  A    between atoms: C_2  and  C_4
REMARK    4  A    between atoms: C_6  and  C_7
REMARK    5  A    between atoms: C_13  and  N_14
REMARK    6  A    between atoms: C_18  and  C_20
REMARK    7  A    between atoms: C_20  and  C_21
REMARK    8  A    between atoms: C_21  and  C_22
REMARK                            x       y       z     vdW  Elec       q    Type
REMARK                         _______ _______ _______ _____ _____    ______ ____
ROOT
ATOM      1  N   UNL     1       2.693   7.720  18.528  0.00  0.00    +0.000 N 
ATOM      2  C   UNL     1       1.946   7.269  19.723  0.00  0.00    +0.000 C 
ATOM      3  C   UNL     1       1.513   8.512  20.519  0.00  0.00    +0.000 C 
ATOM      4  N   UNL     1       0.756   9.473  19.702  0.00  0.00    +0.000 N 
ATOM      5  C   UNL     1      -0.054  10.383  20.376  0.00  0.00    +0.000 C 
ATOM      6  O   UNL     1      -0.244  10.334  21.593  0.00  0.00    +0.000 OA
ATOM      7  C   UNL     1       1.331   9.752  18.362  0.00  0.00    +0.000 C 
ATOM      8  C   UNL     1       1.815   8.486  17.621  0.00  0.00    +0.000 C 
ENDROOT
BRANCH   1  14
ATOM      9  C   UNL     1       3.513   5.477  17.943  0.00  0.00    +0.000 A 
ATOM     10  C   UNL     1       4.483   4.695  17.270  0.00  0.00    +0.000 A 
ATOM     11  C   UNL     1       5.590   5.254  16.623  0.00  0.00    +0.000 A 
ATOM     12  C   UNL     1       5.727   6.641  16.637  0.00  0.00    +0.000 A 
ATOM     13  C   UNL     1       4.774   7.435  17.289  0.00  0.00    +0.000 A 
ATOM     14  C   UNL     1       3.652   6.889  17.949  0.00  0.00    +0.000 A 
BRANCH  11  15
ATOM     15  C   UNL     1       6.603   4.368  15.947  0.00  0.00    +0.000 C 
ATOM     16  F   UNL     1       7.654   4.035  16.752  0.00  0.00    +0.000 F 
ATOM     17  F   UNL     1       6.071   3.187  15.527  0.00  0.00    +0.000 F 
ATOM     18  F   UNL     1       7.154   4.947  14.844  0.00  0.00    +0.000 F 
ENDBRANCH  11  15
BRANCH   9  20
ATOM     19  C   UNL     1       1.369   4.104  17.636  0.00  0.00    +0.000 C 
ATOM     20  C   UNL     1       2.369   4.722  18.621  0.00  0.00    +0.000 C 
BRANCH  20  21
ATOM     21  N   UNL     1       2.907   3.670  19.503  0.00  0.00    +0.000 NA
ATOM     22  H   UNL     1       2.351   2.821  19.396  0.00  0.00    +0.000 HD
ATOM     23  H   UNL     1       2.787   3.951  20.473  0.00  0.00    +0.000 HD
ENDBRANCH  20  21
ENDBRANCH   9  20
ENDBRANCH   1  14
BRANCH   5  24
ATOM     24  C   UNL     1      -0.747  11.411  19.505  0.00  0.00    +0.000 C 
BRANCH  24  25
ATOM     25  C   UNL     1      -1.276  10.849  18.191  0.00  0.00    +0.000 C 
BRANCH  25  26
ATOM     26  C   UNL     1      -2.712  11.296  18.004  0.00  0.00    +0.000 A 
ATOM     27  C   UNL     1      -3.398  11.821  19.113  0.00  0.00    +0.000 A 
ATOM     28  C   UNL     1      -4.756  12.132  19.028  0.00  0.00    +0.000 A 
ATOM     29  C   UNL     1      -5.440  11.924  17.834  0.00  0.00    +0.000 A 
ATOM     30 CL   UNL     1      -7.122  12.274  17.742  0.00  0.00    +0.000 Cl
ATOM     31  C   UNL     1      -4.778  11.419  16.719  0.00  0.00    +0.000 A 
ATOM     32  C   UNL     1      -3.419  11.105  16.804  0.00  0.00    +0.000 A 
ATOM     33 CL   UNL     1      -2.668  10.440  15.396  0.00  0.00    +0.000 Cl
ENDBRANCH  25  26
ENDBRANCH  24  25
ENDBRANCH   5  24
TORSDOF 7
ENDMDL
MODEL 5
REMARK VINA RESULT:      -8.1      5.894      9.342
REMARK  Name = 
REMARK  8 active torsions:
REMARK  status: ('A' for Active; 'I' for Inactive)
REMARK    1  A    between atoms: C_1  and  C_2
REMARK    2  A    between atoms: C_2  and  N_3
REMARK    3  A    between atoms: C_2  and  C_4
REMARK    4  A    between atoms: C_6  and  C_7
REMARK    5  A    between atoms: C_13  and  N_14
REMARK    6  A    between atoms: C_18  and  C_20
REMARK    7  A    between atoms: C_20  and  C_21
REMARK    8  A    between atoms: C_21  and  C_22
REMARK                            x       y       z     vdW  Elec       q    Type
REMARK                         _______ _______ _______ _____ _____    ______ ____
ROOT
ATOM      1  N   UNL     1       1.420   7.352  20.141  0.00  0.00    +0.000 N 
ATOM      2  C   UNL     1       1.449   6.210  21.080  0.00  0.00    +0.000 C 
ATOM      3  C   UNL     1       1.274   4.914  20.269  0.00  0.00    +0.000 C 
ATOM      4  N   UNL     1       2.259   4.787  19.183  0.00  0.00    +0.000 N 
ATOM      5  C   UNL     1       2.495   3.509  18.685  0.00  0.00    +0.000 C 
ATOM      6  O   UNL     1       2.009   2.494  19.189  0.00  0.00    +0.000 OA
ATOM      7  C   UNL     1       2.466   6.014  18.374  0.00  0.00    +0.000 C 
ATOM      8  C   UNL     1       2.572   7.302  19.219  0.00  0.00    +0.000 C 
ENDROOT
BRANCH   1  14
ATOM      9  C   UNL     1       0.590   9.619  19.673  0.00  0.00    +0.000 A 
ATOM     10  C   UNL     1       0.100  10.844  20.187  0.00  0.00    +0.000 A 
ATOM     11  C   UNL     1       0.019  11.112  21.557  0.00  0.00    +0.000 A 
ATOM     12  C   UNL     1       0.429  10.120  22.446  0.00  0.00    +0.000 A 
ATOM     13  C   UNL     1       0.908   8.895  21.959  0.00  0.00    +0.000 A 
ATOM     14  C   UNL     1       0.999   8.608  20.581  0.00  0.00    +0.000 A 
BRANCH  11  15
ATOM     15  C   UNL     1      -0.485  12.446  22.044  0.00  0.00    +0.000 C 
ATOM     16  F   UNL     1       0.461  13.428  22.010  0.00  0.00    +0.000 F 
ATOM     17  F   UNL     1      -1.528  12.914  21.304  0.00  0.00    +0.000 F 
ATOM     18  F   UNL     1      -0.925  12.403  23.331  0.00  0.00    +0.000 F 
ENDBRANCH  11  15
BRANCH   9  20
ATOM     19  C   UNL     1      -0.691   9.814  17.460  0.00  0.00    +0.000 C 
ATOM     20  C   UNL     1       0.637   9.480  18.151  0.00  0.00    +0.000 C 
BRANCH  20  21
ATOM     21  N   UNL     1       1.709  10.328  17.596  0.00  0.00    +0.000 NA
ATOM     22  H   UNL     1       2.218  10.774  18.360  0.00  0.00    +0.000 HD
ATOM     23  H   UNL     1       1.292  11.091  17.068  0.00  0.00    +0.000 HD
ENDBRANCH  20  21
ENDBRANCH   9  20
ENDBRANCH   1  14
BRANCH   5  24
ATOM     24  C   UNL     1       3.449   3.432  17.510  0.00  0.00    +0.000 C 
BRANCH  24  25
ATOM     25  C   UNL     1       4.890   3.779  17.863  0.00  0.00    +0.000 C 
BRANCH  25  26
ATOM     26  C   UNL     1       5.608   4.243  16.612  0.00  0.00    +0.000 A 
ATOM     27  C   UNL     1       4.949   4.116  15.377  0.00  0.00    +0.000 A 
ATOM     28  C   UNL     1       5.609   4.412  14.184  0.00  0.00    +0.000 A 
ATOM     29  C   UNL     1       6.933   4.839  14.213  0.00  0.00    +0.000 A 
ATOM     30 CL   UNL     1       7.757   5.168  12.739  0.00  0.00    +0.000 Cl
ATOM     31  C   UNL     1       7.601   4.986  15.425  0.00  0.00    +0.000 A 
ATOM     32  C   UNL     1       6.942   4.688  16.620  0.00  0.00    +0.000 A 
ATOM     33 CL   UNL     1       7.843   4.849  18.086  0.00  0.00    +0.000 Cl
ENDBRANCH  25  26
ENDBRANCH  24  25
ENDBRANCH   5  24
TORSDOF 7
ENDMDL
MODEL 6
REMARK VINA RESULT:      -8.1      6.965     10.609
REMARK  Name = 
REMARK  8 active torsions:
REMARK  status: ('A' for Active; 'I' for Inactive)
REMARK    1  A    between atoms: C_1  and  C_2
REMARK    2  A    between atoms: C_2  and  N_3
REMARK    3  A    between atoms: C_2  and  C_4
REMARK    4  A    between atoms: C_6  and  C_7
REMARK    5  A    between atoms: C_13  and  N_14
REMARK    6  A    between atoms: C_18  and  C_20
REMARK    7  A    between atoms: C_20  and  C_21
REMARK    8  A    between atoms: C_21  and  C_22
REMARK                            x       y       z     vdW  Elec       q    Type
REMARK                         _______ _______ _______ _____ _____    ______ ____
ROOT
ATOM      1  N   UNL     1      -0.361  11.427  21.139  0.00  0.00    +0.000 N 
ATOM      2  C   UNL     1      -0.761  11.442  19.715  0.00  0.00    +0.000 C 
ATOM      3  C   UNL     1       0.439  10.975  18.872  0.00  0.00    +0.000 C 
ATOM      4  N   UNL     1       0.961   9.670  19.305  0.00  0.00    +0.000 N 
ATOM      5  C   UNL     1       1.717   8.950  18.383  0.00  0.00    +0.000 C 
ATOM      6  O   UNL     1       1.857   9.305  17.211  0.00  0.00    +0.000 OA
ATOM      7  C   UNL     1       1.122   9.510  20.771  0.00  0.00    +0.000 C 
ATOM      8  C   UNL     1      -0.074  10.050  21.587  0.00  0.00    +0.000 C 
ENDROOT
BRANCH   1  14
ATOM      9  C   UNL     1      -0.585  13.642  22.182  0.00  0.00    +0.000 A 
ATOM     10  C   UNL     1      -1.305  14.481  23.067  0.00  0.00    +0.000 A 
ATOM     11  C   UNL     1      -2.383  14.027  23.833  0.00  0.00    +0.000 A 
ATOM     12  C   UNL     1      -2.763  12.692  23.704  0.00  0.00    +0.000 A 
ATOM     13  C   UNL     1      -2.071  11.846  22.827  0.00  0.00    +0.000 A 
ATOM     14  C   UNL     1      -0.980  12.286  22.048  0.00  0.00    +0.000 A 
BRANCH  11  15
ATOM     15  C   UNL     1      -3.093  14.961  24.778  0.00  0.00    +0.000 C 
ATOM     16  F   UNL     1      -2.667  16.254  24.683  0.00  0.00    +0.000 F 
ATOM     17  F   UNL     1      -4.438  14.999  24.565  0.00  0.00    +0.000 F 
ATOM     18  F   UNL     1      -2.928  14.613  26.083  0.00  0.00    +0.000 F 
ENDBRANCH  11  15
BRANCH   9  20
ATOM     19  C   UNL     1       0.175  15.474  20.556  0.00  0.00    +0.000 C 
ATOM     20  C   UNL     1       0.582  14.278  21.426  0.00  0.00    +0.000 C 
BRANCH  20  21
ATOM     21  N   UNL     1       1.635  14.692  22.372  0.00  0.00    +0.000 NA
ATOM     22  H   UNL     1       1.705  14.006  23.124  0.00  0.00    +0.000 HD
ATOM     23  H   UNL     1       1.358  15.560  22.823  0.00  0.00    +0.000 HD
ENDBRANCH  20  21
ENDBRANCH   9  20
ENDBRANCH   1  14
BRANCH   5  24
ATOM     24  C   UNL     1       2.310   7.653  18.896  0.00  0.00    +0.000 C 
BRANCH  24  25
ATOM     25  C   UNL     1       3.519   7.172  18.103  0.00  0.00    +0.000 C 
BRANCH  25  26
ATOM     26  C   UNL     1       3.560   5.657  18.134  0.00  0.00    +0.000 A 
ATOM     27  C   UNL     1       2.398   4.950  17.780  0.00  0.00    +0.000 A 
ATOM     28  C   UNL     1       2.342   3.562  17.909  0.00  0.00    +0.000 A 
ATOM     29  C   UNL     1       3.447   2.867  18.391  0.00  0.00    +0.000 A 
ATOM     30 CL   UNL     1       3.364   1.160  18.585  0.00  0.00    +0.000 Cl
ATOM     31  C   UNL     1       4.613   3.545  18.734  0.00  0.00    +0.000 A 
ATOM     32  C   UNL     1       4.669   4.935  18.607  0.00  0.00    +0.000 A 
ATOM     33 CL   UNL     1       6.132   5.719  19.091  0.00  0.00    +0.000 Cl
ENDBRANCH  25  26
ENDBRANCH  24  25
ENDBRANCH   5  24
TORSDOF 7
ENDMDL
MODEL 7
REMARK VINA RESULT:      -8.1      3.335      4.831
REMARK  Name = 
REMARK  8 active torsions:
REMARK  status: ('A' for Active; 'I' for Inactive)
REMARK    1  A    between atoms: C_1  and  C_2
REMARK    2  A    between atoms: C_2  and  N_3
REMARK    3  A    between atoms: C_2  and  C_4
REMARK    4  A    between atoms: C_6  and  C_7
REMARK    5  A    between atoms: C_13  and  N_14
REMARK    6  A    between atoms: C_18  and  C_20
REMARK    7  A    between atoms: C_20  and  C_21
REMARK    8  A    between atoms: C_21  and  C_22
REMARK                            x       y       z     vdW  Elec       q    Type
REMARK                         _______ _______ _______ _____ _____    ______ ____
ROOT
ATOM      1  N   UNL     1       1.772   8.201  19.302  0.00  0.00    +0.000 N 
ATOM      2  C   UNL     1       1.456   9.427  18.537  0.00  0.00    +0.000 C 
ATOM      3  C   UNL     1       0.117   9.986  19.052  0.00  0.00    +0.000 C 
ATOM      4  N   UNL     1       0.117  10.205  20.507  0.00  0.00    +0.000 N 
ATOM      5  C   UNL     1      -0.824  11.096  21.016  0.00  0.00    +0.000 C 
ATOM      6  O   UNL     1      -1.556  11.778  20.296  0.00  0.00    +0.000 OA
ATOM      7  C   UNL     1       0.689   9.096  21.311  0.00  0.00    +0.000 C 
ATOM      8  C   UNL     1       1.996   8.517  20.727  0.00  0.00    +0.000 C 
ENDROOT
BRANCH   1  14
ATOM      9  C   UNL     1       2.494   5.856  19.165  0.00  0.00    +0.000 A 
ATOM     10  C   UNL     1       3.266   4.878  18.491  0.00  0.00    +0.000 A 
ATOM     11  C   UNL     1       4.111   5.186  17.421  0.00  0.00    +0.000 A 
ATOM     12  C   UNL     1       4.181   6.513  17.001  0.00  0.00    +0.000 A 
ATOM     13  C   UNL     1       3.419   7.496  17.648  0.00  0.00    +0.000 A 
ATOM     14  C   UNL     1       2.562   7.204  18.730  0.00  0.00    +0.000 A 
BRANCH  11  15
ATOM     15  C   UNL     1       4.928   4.107  16.760  0.00  0.00    +0.000 C 
ATOM     16  F   UNL     1       4.488   2.846  17.041  0.00  0.00    +0.000 F 
ATOM     17  F   UNL     1       4.925   4.203  15.402  0.00  0.00    +0.000 F 
ATOM     18  F   UNL     1       6.236   4.133  17.137  0.00  0.00    +0.000 F 
ENDBRANCH  11  15
BRANCH   9  20
ATOM     19  C   UNL     1       0.810   4.114  20.007  0.00  0.00    +0.000 C 
ATOM     20  C   UNL     1       1.631   5.369  20.330  0.00  0.00    +0.000 C 
BRANCH  20  21
ATOM     21  N   UNL     1       2.472   5.116  21.515  0.00  0.00    +0.000 NA
ATOM     22  H   UNL     1       2.375   4.141  21.797  0.00  0.00    +0.000 HD
ATOM     23  H   UNL     1       2.119   5.661  22.298  0.00  0.00    +0.000 HD
ENDBRANCH  20  21
ENDBRANCH   9  20
ENDBRANCH   1  14
BRANCH   5  24
ATOM     24  C   UNL     1      -0.849  11.226  22.525  0.00  0.00    +0.000 C 
BRANCH  24  25
ATOM     25  C   UNL     1      -2.236  11.494  23.097  0.00  0.00    +0.000 C 
BRANCH  25  26
ATOM     26  C   UNL     1      -2.300  12.925  23.592  0.00  0.00    +0.000 A 
ATOM     27  C   UNL     1      -1.186  13.756  23.378  0.00  0.00    +0.000 A 
ATOM     28  C   UNL     1      -1.143  15.041  23.920  0.00  0.00    +0.000 A 
ATOM     29  C   UNL     1      -2.212  15.509  24.678  0.00  0.00    +0.000 A 
ATOM     30 CL   UNL     1      -2.140  17.080  25.376  0.00  0.00    +0.000 Cl
ATOM     31  C   UNL     1      -3.331  14.709  24.890  0.00  0.00    +0.000 A 
ATOM     32  C   UNL     1      -3.374  13.422  24.351  0.00  0.00    +0.000 A 
ATOM     33 CL   UNL     1      -4.774  12.465  24.688  0.00  0.00    +0.000 Cl
ENDBRANCH  25  26
ENDBRANCH  24  25
ENDBRANCH   5  24
TORSDOF 7
ENDMDL
MODEL 8
REMARK VINA RESULT:      -8.1      6.267      9.921
REMARK  Name = 
REMARK  8 active torsions:
REMARK  status: ('A' for Active; 'I' for Inactive)
REMARK    1  A    between atoms: C_1  and  C_2
REMARK    2  A    between atoms: C_2  and  N_3
REMARK    3  A    between atoms: C_2  and  C_4
REMARK    4  A    between atoms: C_6  and  C_7
REMARK    5  A    between atoms: C_13  and  N_14
REMARK    6  A    between atoms: C_18  and  C_20
REMARK    7  A    between atoms: C_20  and  C_21
REMARK    8  A    between atoms: C_21  and  C_22
REMARK                            x       y       z     vdW  Elec       q    Type
REMARK                         _______ _______ _______ _____ _____    ______ ____
ROOT
ATOM      1  N   UNL     1       0.239   9.899  20.357  0.00  0.00    +0.000 N 
ATOM      2  C   UNL     1       0.739   9.080  21.482  0.00  0.00    +0.000 C 
ATOM      3  C   UNL     1       1.065   7.673  20.948  0.00  0.00    +0.000 C 
ATOM      4  N   UNL     1       1.991   7.702  19.806  0.00  0.00    +0.000 N 
ATOM      5  C   UNL     1       2.697   6.533  19.530  0.00  0.00    +0.000 C 
ATOM      6  O   UNL     1       2.662   5.542  20.263  0.00  0.00    +0.000 OA
ATOM      7  C   UNL     1       1.679   8.714  18.766  0.00  0.00    +0.000 C 
ATOM      8  C   UNL     1       1.294  10.094  19.342  0.00  0.00    +0.000 C 
ENDROOT
BRANCH   1  14
ATOM      9  C   UNL     1      -1.471  11.487  19.585  0.00  0.00    +0.000 A 
ATOM     10  C   UNL     1      -2.385  12.517  19.916  0.00  0.00    +0.000 A 
ATOM     11  C   UNL     1      -2.481  13.060  21.201  0.00  0.00    +0.000 A 
ATOM     12  C   UNL     1      -1.646  12.549  22.193  0.00  0.00    +0.000 A 
ATOM     13  C   UNL     1      -0.741  11.522  21.890  0.00  0.00    +0.000 A 
ATOM     14  C   UNL     1      -0.628  10.964  20.599  0.00  0.00    +0.000 A 
BRANCH  11  15
ATOM     15  C   UNL     1      -3.454  14.174  21.486  0.00  0.00    +0.000 C 
ATOM     16  F   UNL     1      -4.317  14.416  20.457  0.00  0.00    +0.000 F 
ATOM     17  F   UNL     1      -4.238  13.921  22.571  0.00  0.00    +0.000 F 
ATOM     18  F   UNL     1      -2.836  15.360  21.735  0.00  0.00    +0.000 F 
ENDBRANCH  11  15
BRANCH   9  20
ATOM     19  C   UNL     1      -2.572   9.992  17.814  0.00  0.00    +0.000 C 
ATOM     20  C   UNL     1      -1.468  11.009  18.132  0.00  0.00    +0.000 C 
BRANCH  20  21
ATOM     21  N   UNL     1      -1.581  12.161  17.218  0.00  0.00    +0.000 NA
ATOM     22  H   UNL     1      -2.338  12.769  17.531  0.00  0.00    +0.000 HD
ATOM     23  H   UNL     1      -1.863  11.832  16.297  0.00  0.00    +0.000 HD
ENDBRANCH  20  21
ENDBRANCH   9  20
ENDBRANCH   1  14
BRANCH   5  24
ATOM     24  C   UNL     1       3.573   6.576  18.294  0.00  0.00    +0.000 C 
BRANCH  24  25
ATOM     25  C   UNL     1       4.842   5.740  18.409  0.00  0.00    +0.000 C 
BRANCH  25  26
ATOM     26  C   UNL     1       5.320   5.373  17.019  0.00  0.00    +0.000 A 
ATOM     27  C   UNL     1       4.584   4.423  16.288  0.00  0.00    +0.000 A 
ATOM     28  C   UNL     1       5.047   3.959  15.057  0.00  0.00    +0.000 A 
ATOM     29  C   UNL     1       6.248   4.438  14.543  0.00  0.00    +0.000 A 
ATOM     30 CL   UNL     1       6.835   3.836  13.042  0.00  0.00    +0.000 Cl
ATOM     31  C   UNL     1       6.986   5.389  15.242  0.00  0.00    +0.000 A 
ATOM     32  C   UNL     1       6.525   5.853  16.476  0.00  0.00    +0.000 A 
ATOM     33 CL   UNL     1       7.510   7.001  17.312  0.00  0.00    +0.000 Cl
ENDBRANCH  25  26
ENDBRANCH  24  25
ENDBRANCH   5  24
TORSDOF 7
ENDMDL
MODEL 9
REMARK VINA RESULT:      -8.1      2.764      4.161
REMARK  Name = 
REMARK  8 active torsions:
REMARK  status: ('A' for Active; 'I' for Inactive)
REMARK    1  A    between atoms: C_1  and  C_2
REMARK    2  A    between atoms: C_2  and  N_3
REMARK    3  A    between atoms: C_2  and  C_4
REMARK    4  A    between atoms: C_6  and  C_7
REMARK    5  A    between atoms: C_13  and  N_14
REMARK    6  A    between atoms: C_18  and  C_20
REMARK    7  A    between atoms: C_20  and  C_21
REMARK    8  A    between atoms: C_21  and  C_22
REMARK                            x       y       z     vdW  Elec       q    Type
REMARK                         _______ _______ _______ _____ _____    ______ ____
ROOT
ATOM      1  N   UNL     1       1.803   8.164  19.085  0.00  0.00    +0.000 N 
ATOM      2  C   UNL     1       1.594   9.431  18.351  0.00  0.00    +0.000 C 
ATOM      3  C   UNL     1       0.217   9.996  18.745  0.00  0.00    +0.000 C 
ATOM      4  N   UNL     1       0.062  10.146  20.201  0.00  0.00    +0.000 N 
ATOM      5  C   UNL     1      -0.913  11.033  20.648  0.00  0.00    +0.000 C 
ATOM      6  O   UNL     1      -1.551  11.765  19.888  0.00  0.00    +0.000 OA
ATOM      7  C   UNL     1       0.523   8.988  21.006  0.00  0.00    +0.000 C 
ATOM      8  C   UNL     1       1.876   8.408  20.539  0.00  0.00    +0.000 C 
ENDROOT
BRANCH   1  14
ATOM      9  C   UNL     1       2.575   5.832  18.998  0.00  0.00    +0.000 A 
ATOM     10  C   UNL     1       3.390   4.863  18.363  0.00  0.00    +0.000 A 
ATOM     11  C   UNL     1       4.271   5.178  17.324  0.00  0.00    +0.000 A 
ATOM     12  C   UNL     1       4.332   6.503  16.895  0.00  0.00    +0.000 A 
ATOM     13  C   UNL     1       3.527   7.476  17.502  0.00  0.00    +0.000 A 
ATOM     14  C   UNL     1       2.634   7.178  18.553  0.00  0.00    +0.000 A 
BRANCH  11  15
ATOM     15  C   UNL     1       5.133   4.109  16.706  0.00  0.00    +0.000 C 
ATOM     16  F   UNL     1       5.177   4.170  15.343  0.00  0.00    +0.000 F 
ATOM     17  F   UNL     1       6.429   4.176  17.120  0.00  0.00    +0.000 F 
ATOM     18  F   UNL     1       4.706   2.852  17.005  0.00  0.00    +0.000 F 
ENDBRANCH  11  15
BRANCH   9  20
ATOM     19  C   UNL     1       0.953   4.023  19.821  0.00  0.00    +0.000 C 
ATOM     20  C   UNL     1       1.676   5.339  20.133  0.00  0.00    +0.000 C 
BRANCH  20  21
ATOM     21  N   UNL     1       2.460   5.188  21.373  0.00  0.00    +0.000 NA
ATOM     22  H   UNL     1       2.568   6.099  21.820  0.00  0.00    +0.000 HD
ATOM     23  H   UNL     1       3.403   4.888  21.139  0.00  0.00    +0.000 HD
ENDBRANCH  20  21
ENDBRANCH   9  20
ENDBRANCH   1  14
BRANCH   5  24
ATOM     24  C   UNL     1      -1.101  11.093  22.150  0.00  0.00    +0.000 C 
BRANCH  24  25
ATOM     25  C   UNL     1      -1.029  12.503  22.725  0.00  0.00    +0.000 C 
BRANCH  25  26
ATOM     26  C   UNL     1      -2.433  12.987  23.025  0.00  0.00    +0.000 A 
ATOM     27  C   UNL     1      -3.200  12.274  23.962  0.00  0.00    +0.000 A 
ATOM     28  C   UNL     1      -4.537  12.602  24.185  0.00  0.00    +0.000 A 
ATOM     29  C   UNL     1      -5.121  13.647  23.474  0.00  0.00    +0.000 A 
ATOM     30 CL   UNL     1      -6.781  14.025  23.723  0.00  0.00    +0.000 Cl
ATOM     31  C   UNL     1      -4.377  14.376  22.552  0.00  0.00    +0.000 A 
ATOM     32  C   UNL     1      -3.038  14.047  22.327  0.00  0.00    +0.000 A 
ATOM     33 CL   UNL     1      -2.184  14.965  21.137  0.00  0.00    +0.000 Cl
ENDBRANCH  25  26
ENDBRANCH  24  25
ENDBRANCH   5  24
TORSDOF 7
ENDMDL
