MODEL 1
REMARK VINA RESULT:      -7.3      0.000      0.000
REMARK  Name = 
REMARK  6 active torsions:
REMARK  status: ('A' for Active; 'I' for Inactive)
REMARK    1  A    between atoms: C_2  and  C_4
REMARK    2  A    between atoms: C_7  and  N_8
REMARK    3  A    between atoms: N_11  and  C_12
REMARK    4  A    between atoms: C_15  and  C_16
REMARK    5  A    between atoms: C_16  and  C_17
REMARK    6  A    between atoms: C_17  and  O_19
REMARK                            x       y       z     vdW  Elec       q    Type
REMARK                         _______ _______ _______ _____ _____    ______ ____
ROOT
ATOM      1  N   UNL     1       1.806   7.747  19.495  0.00  0.00    +0.000 N 
ATOM      2  C   UNL     1       1.227   7.569  20.841  0.00  0.00    +0.000 C 
ATOM      3  C   UNL     1       1.324   8.884  21.644  0.00  0.00    +0.000 C 
ATOM      4  N   UNL     1       0.732  10.009  20.896  0.00  0.00    +0.000 N 
ATOM      5  C   UNL     1       1.283  10.196  19.538  0.00  0.00    +0.000 C 
ATOM      6  C   UNL     1       1.231   8.872  18.733  0.00  0.00    +0.000 C 
ENDROOT
BRANCH   1  10
ATOM      7  C   UNL     1       4.942   5.323  18.047  0.00  0.00    +0.000 A 
ATOM      8  C   UNL     1       4.549   6.460  17.347  0.00  0.00    +0.000 A 
ATOM      9  C   UNL     1       3.517   7.262  17.845  0.00  0.00    +0.000 A 
ATOM     10  C   UNL     1       2.848   6.965  19.045  0.00  0.00    +0.000 A 
ATOM     11  C   UNL     1       3.294   5.834  19.746  0.00  0.00    +0.000 A 
ATOM     12  C   UNL     1       4.321   5.016  19.257  0.00  0.00    +0.000 A 
BRANCH   7  14
ATOM     13  N   UNL     1       5.764   3.716  16.459  0.00  0.00    +0.000 NA
ATOM     14  C   UNL     1       6.012   4.446  17.495  0.00  0.00    +0.000 C 
ATOM     15  N   UNL     1       7.236   4.398  18.098  0.00  0.00    +0.000 N 
ATOM     16  H   UNL     1       6.604   3.205  16.186  0.00  0.00    +0.000 HD
ATOM     17  H   UNL     1       7.783   3.569  17.898  0.00  0.00    +0.000 HD
ATOM     18  H   UNL     1       7.236   4.610  19.090  0.00  0.00    +0.000 HD
ENDBRANCH   7  14
ENDBRANCH   1  10
BRANCH   4  19
ATOM     19  C   UNL     1      -0.316  10.761  21.380  0.00  0.00    +0.000 A 
ATOM     20  C   UNL     1      -0.692  10.710  22.729  0.00  0.00    +0.000 A 
ATOM     21  C   UNL     1      -1.750  11.476  23.236  0.00  0.00    +0.000 A 
ATOM     22  C   UNL     1      -2.464  12.338  22.400  0.00  0.00    +0.000 A 
ATOM     23  C   UNL     1      -2.119  12.390  21.048  0.00  0.00    +0.000 A 
ATOM     24  C   UNL     1      -1.064  11.612  20.554  0.00  0.00    +0.000 A 
BRANCH  22  25
ATOM     25  C   UNL     1      -3.585  13.191  22.943  0.00  0.00    +0.000 C 
BRANCH  25  26
ATOM     26  C   UNL     1      -4.085  12.809  24.321  0.00  0.00    +0.000 C 
ATOM     27  O   UNL     1      -4.793  11.830  24.522  0.00  0.00    +0.000 OA
BRANCH  26  28
ATOM     28  O   UNL     1      -3.768  13.668  25.317  0.00  0.00    +0.000 OA
ATOM     29  H   UNL     1      -3.875  13.296  26.215  0.00  0.00    +0.000 HD
ENDBRANCH  26  28
ENDBRANCH  25  26
ENDBRANCH  22  25
ENDBRANCH   4  19
TORSDOF 6
ENDMDL
MODEL 2
REMARK VINA RESULT:      -7.3      5.157     10.160
REMARK  Name = 
REMARK  6 active torsions:
REMARK  status: ('A' for Active; 'I' for Inactive)
REMARK    1  A    between atoms: C_2  and  C_4
REMARK    2  A    between atoms: C_7  and  N_8
REMARK    3  A    between atoms: N_11  and  C_12
REMARK    4  A    between atoms: C_15  and  C_16
REMARK    5  A    between atoms: C_16  and  C_17
REMARK    6  A    between atoms: C_17  and  O_19
REMARK                            x       y       z     vdW  Elec       q    Type
REMARK                         _______ _______ _______ _____ _____    ______ ____
ROOT
ATOM      1  N   UNL     1       1.122   9.453  20.391  0.00  0.00    +0.000 N 
ATOM      2  C   UNL     1       1.779   8.265  20.970  0.00  0.00    +0.000 C 
ATOM      3  C   UNL     1       1.532   7.029  20.079  0.00  0.00    +0.000 C 
ATOM      4  N   UNL     1       1.926   7.293  18.683  0.00  0.00    +0.000 N 
ATOM      5  C   UNL     1       1.295   8.488  18.086  0.00  0.00    +0.000 C 
ATOM      6  C   UNL     1       1.497   9.730  18.991  0.00  0.00    +0.000 C 
ENDROOT
BRANCH   1  10
ATOM      7  C   UNL     1      -1.696  11.740  22.544  0.00  0.00    +0.000 A 
ATOM      8  C   UNL     1      -1.410  12.042  21.215  0.00  0.00    +0.000 A 
ATOM      9  C   UNL     1      -0.483  11.268  20.509  0.00  0.00    +0.000 A 
ATOM     10  C   UNL     1       0.182  10.177  21.093  0.00  0.00    +0.000 A 
ATOM     11  C   UNL     1      -0.157   9.875  22.421  0.00  0.00    +0.000 A 
ATOM     12  C   UNL     1      -1.078  10.645  23.145  0.00  0.00    +0.000 A 
BRANCH   7  14
ATOM     13  N   UNL     1      -3.670  12.045  23.882  0.00  0.00    +0.000 NA
ATOM     14  C   UNL     1      -2.651  12.591  23.307  0.00  0.00    +0.000 C 
ATOM     15  N   UNL     1      -2.461  13.942  23.374  0.00  0.00    +0.000 N 
ATOM     16  H   UNL     1      -4.202  12.753  24.389  0.00  0.00    +0.000 HD
ATOM     17  H   UNL     1      -3.287  14.483  23.601  0.00  0.00    +0.000 HD
ATOM     18  H   UNL     1      -1.959  14.345  22.589  0.00  0.00    +0.000 HD
ENDBRANCH   7  14
ENDBRANCH   1  10
BRANCH   4  19
ATOM     19  C   UNL     1       2.877   6.549  18.019  0.00  0.00    +0.000 A 
ATOM     20  C   UNL     1       2.794   5.152  17.946  0.00  0.00    +0.000 A 
ATOM     21  C   UNL     1       3.750   4.385  17.267  0.00  0.00    +0.000 A 
ATOM     22  C   UNL     1       4.824   5.001  16.622  0.00  0.00    +0.000 A 
ATOM     23  C   UNL     1       4.937   6.391  16.699  0.00  0.00    +0.000 A 
ATOM     24  C   UNL     1       3.978   7.144  17.388  0.00  0.00    +0.000 A 
BRANCH  22  25
ATOM     25  C   UNL     1       5.842   4.185  15.861  0.00  0.00    +0.000 C 
BRANCH  25  26
ATOM     26  C   UNL     1       7.272   4.675  15.956  0.00  0.00    +0.000 C 
ATOM     27  O   UNL     1       7.982   4.462  16.931  0.00  0.00    +0.000 OA
BRANCH  26  28
ATOM     28  O   UNL     1       7.698   5.440  14.925  0.00  0.00    +0.000 OA
ATOM     29  H   UNL     1       7.868   4.942  14.101  0.00  0.00    +0.000 HD
ENDBRANCH  26  28
ENDBRANCH  25  26
ENDBRANCH  22  25
ENDBRANCH   4  19
TORSDOF 6
ENDMDL
MODEL 3
REMARK VINA RESULT:      -7.3      5.162     10.197
REMARK  Name = 
REMARK  6 active torsions:
REMARK  status: ('A' for Active; 'I' for Inactive)
REMARK    1  A    between atoms: C_2  and  C_4
REMARK    2  A    between atoms: C_7  and  N_8
REMARK    3  A    between atoms: N_11  and  C_12
REMARK    4  A    between atoms: C_15  and  C_16
REMARK    5  A    between atoms: C_16  and  C_17
REMARK    6  A    between atoms: C_17  and  O_19
REMARK                            x       y       z     vdW  Elec       q    Type
REMARK                         _______ _______ _______ _____ _____    ______ ____
ROOT
ATOM      1  N   UNL     1       1.124   9.676  20.427  0.00  0.00    +0.000 N 
ATOM      2  C   UNL     1       1.702   8.455  21.020  0.00  0.00    +0.000 C 
ATOM      3  C   UNL     1       1.433   7.238  20.109  0.00  0.00    +0.000 C 
ATOM      4  N   UNL     1       1.893   7.494  18.731  0.00  0.00    +0.000 N 
ATOM      5  C   UNL     1       1.343   8.723  18.122  0.00  0.00    +0.000 C 
ATOM      6  C   UNL     1       1.566   9.946  19.046  0.00  0.00    +0.000 C 
ENDROOT
BRANCH   1  10
ATOM      7  C   UNL     1      -1.790  11.938  22.478  0.00  0.00    +0.000 A 
ATOM      8  C   UNL     1      -1.183  10.846  23.093  0.00  0.00    +0.000 A 
ATOM      9  C   UNL     1      -0.210  10.112  22.407  0.00  0.00    +0.000 A 
ATOM     10  C   UNL     1       0.192  10.437  21.099  0.00  0.00    +0.000 A 
ATOM     11  C   UNL     1      -0.410  11.567  20.523  0.00  0.00    +0.000 A 
ATOM     12  C   UNL     1      -1.393  12.307  21.194  0.00  0.00    +0.000 A 
BRANCH   7  14
ATOM     13  N   UNL     1      -2.935  13.972  23.050  0.00  0.00    +0.000 NA
ATOM     14  C   UNL     1      -2.857  12.692  23.193  0.00  0.00    +0.000 C 
ATOM     15  N   UNL     1      -3.726  12.033  24.015  0.00  0.00    +0.000 N 
ATOM     16  H   UNL     1      -3.734  14.331  23.573  0.00  0.00    +0.000 HD
ATOM     17  H   UNL     1      -4.186  12.611  24.709  0.00  0.00    +0.000 HD
ATOM     18  H   UNL     1      -3.366  11.178  24.426  0.00  0.00    +0.000 HD
ENDBRANCH   7  14
ENDBRANCH   1  10
BRANCH   4  19
ATOM     19  C   UNL     1       2.834   6.712  18.098  0.00  0.00    +0.000 A 
ATOM     20  C   UNL     1       2.741   5.314  18.094  0.00  0.00    +0.000 A 
ATOM     21  C   UNL     1       3.687   4.508  17.447  0.00  0.00    +0.000 A 
ATOM     22  C   UNL     1       4.760   5.084  16.764  0.00  0.00    +0.000 A 
ATOM     23  C   UNL     1       4.883   6.475  16.772  0.00  0.00    +0.000 A 
ATOM     24  C   UNL     1       3.935   7.267  17.430  0.00  0.00    +0.000 A 
BRANCH  22  25
ATOM     25  C   UNL     1       5.767   4.224  16.037  0.00  0.00    +0.000 C 
BRANCH  25  26
ATOM     26  C   UNL     1       7.198   4.718  16.081  0.00  0.00    +0.000 C 
ATOM     27  O   UNL     1       7.670   5.460  15.228  0.00  0.00    +0.000 OA
BRANCH  26  28
ATOM     28  O   UNL     1       7.957   4.223  17.085  0.00  0.00    +0.000 OA
ATOM     29  H   UNL     1       7.786   3.282  17.289  0.00  0.00    +0.000 HD
ENDBRANCH  26  28
ENDBRANCH  25  26
ENDBRANCH  22  25
ENDBRANCH   4  19
TORSDOF 6
ENDMDL
MODEL 4
REMARK VINA RESULT:      -7.3      5.162     10.181
REMARK  Name = 
REMARK  6 active torsions:
REMARK  status: ('A' for Active; 'I' for Inactive)
REMARK    1  A    between atoms: C_2  and  C_4
REMARK    2  A    between atoms: C_7  and  N_8
REMARK    3  A    between atoms: N_11  and  C_12
REMARK    4  A    between atoms: C_15  and  C_16
REMARK    5  A    between atoms: C_16  and  C_17
REMARK    6  A    between atoms: C_17  and  O_19
REMARK                            x       y       z     vdW  Elec       q    Type
REMARK                         _______ _______ _______ _____ _____    ______ ____
ROOT
ATOM      1  N   UNL     1       1.126   9.398  20.433  0.00  0.00    +0.000 N 
ATOM      2  C   UNL     1       1.771   8.201  21.007  0.00  0.00    +0.000 C 
ATOM      3  C   UNL     1       1.503   6.969  20.115  0.00  0.00    +0.000 C 
ATOM      4  N   UNL     1       1.892   7.230  18.717  0.00  0.00    +0.000 N 
ATOM      5  C   UNL     1       1.274   8.435  18.126  0.00  0.00    +0.000 C 
ATOM      6  C   UNL     1       1.498   9.672  19.032  0.00  0.00    +0.000 C 
ENDROOT
BRANCH   1  10
ATOM      7  C   UNL     1      -1.647  11.718  22.608  0.00  0.00    +0.000 A 
ATOM      8  C   UNL     1      -1.326  12.051  21.296  0.00  0.00    +0.000 A 
ATOM      9  C   UNL     1      -0.414  11.266  20.581  0.00  0.00    +0.000 A 
ATOM     10  C   UNL     1       0.201  10.133  21.141  0.00  0.00    +0.000 A 
ATOM     11  C   UNL     1      -0.175   9.801  22.453  0.00  0.00    +0.000 A 
ATOM     12  C   UNL     1      -1.080  10.582  23.184  0.00  0.00    +0.000 A 
BRANCH   7  14
ATOM     13  N   UNL     1      -2.316  13.832  23.536  0.00  0.00    +0.000 NA
ATOM     14  C   UNL     1      -2.585  12.578  23.382  0.00  0.00    +0.000 C 
ATOM     15  N   UNL     1      -3.705  12.037  23.944  0.00  0.00    +0.000 N 
ATOM     16  H   UNL     1      -3.069  14.285  24.055  0.00  0.00    +0.000 HD
ATOM     17  H   UNL     1      -4.104  12.567  24.710  0.00  0.00    +0.000 HD
ATOM     18  H   UNL     1      -3.638  11.050  24.173  0.00  0.00    +0.000 HD
ENDBRANCH   7  14
ENDBRANCH   1  10
BRANCH   4  19
ATOM     19  C   UNL     1       2.830   6.474  18.047  0.00  0.00    +0.000 A 
ATOM     20  C   UNL     1       3.937   7.065  17.424  0.00  0.00    +0.000 A 
ATOM     21  C   UNL     1       4.902   6.308  16.748  0.00  0.00    +0.000 A 
ATOM     22  C   UNL     1       4.794   4.916  16.685  0.00  0.00    +0.000 A 
ATOM     23  C   UNL     1       3.688   4.308  17.283  0.00  0.00    +0.000 A 
ATOM     24  C   UNL     1       2.727   5.079  17.948  0.00  0.00    +0.000 A 
BRANCH  22  25
ATOM     25  C   UNL     1       5.845   4.089  15.986  0.00  0.00    +0.000 C 
BRANCH  25  26
ATOM     26  C   UNL     1       7.233   4.695  15.949  0.00  0.00    +0.000 C 
ATOM     27  O   UNL     1       7.652   5.335  14.992  0.00  0.00    +0.000 OA
BRANCH  26  28
ATOM     28  O   UNL     1       8.022   4.415  17.011  0.00  0.00    +0.000 OA
ATOM     29  H   UNL     1       8.152   3.460  17.173  0.00  0.00    +0.000 HD
ENDBRANCH  26  28
ENDBRANCH  25  26
ENDBRANCH  22  25
ENDBRANCH   4  19
TORSDOF 6
ENDMDL
MODEL 5
REMARK VINA RESULT:      -7.2      0.747      1.589
REMARK  Name = 
REMARK  6 active torsions:
REMARK  status: ('A' for Active; 'I' for Inactive)
REMARK    1  A    between atoms: C_2  and  C_4
REMARK    2  A    between atoms: C_7  and  N_8
REMARK    3  A    between atoms: N_11  and  C_12
REMARK    4  A    between atoms: C_15  and  C_16
REMARK    5  A    between atoms: C_16  and  C_17
REMARK    6  A    between atoms: C_17  and  O_19
REMARK                            x       y       z     vdW  Elec       q    Type
REMARK                         _______ _______ _______ _____ _____    ______ ____
ROOT
ATOM      1  N   UNL     1       1.608   8.151  19.599  0.00  0.00    +0.000 N 
ATOM      2  C   UNL     1       1.166   7.958  20.994  0.00  0.00    +0.000 C 
ATOM      3  C   UNL     1       1.363   9.259  21.803  0.00  0.00    +0.000 C 
ATOM      4  N   UNL     1       0.713  10.403  21.136  0.00  0.00    +0.000 N 
ATOM      5  C   UNL     1       1.124  10.605  19.732  0.00  0.00    +0.000 C 
ATOM      6  C   UNL     1       0.974   9.296  18.917  0.00  0.00    +0.000 C 
ENDROOT
BRANCH   1  10
ATOM      7  C   UNL     1       4.666   5.766  17.935  0.00  0.00    +0.000 A 
ATOM      8  C   UNL     1       4.028   5.377  19.109  0.00  0.00    +0.000 A 
ATOM      9  C   UNL     1       3.007   6.170  19.644  0.00  0.00    +0.000 A 
ATOM     10  C   UNL     1       2.588   7.365  19.034  0.00  0.00    +0.000 A 
ATOM     11  C   UNL     1       3.224   7.709  17.831  0.00  0.00    +0.000 A 
ATOM     12  C   UNL     1       4.254   6.930  17.287  0.00  0.00    +0.000 A 
BRANCH   7  14
ATOM     13  N   UNL     1       6.414   4.133  18.173  0.00  0.00    +0.000 NA
ATOM     14  C   UNL     1       5.781   4.943  17.391  0.00  0.00    +0.000 C 
ATOM     15  N   UNL     1       6.147   5.067  16.081  0.00  0.00    +0.000 N 
ATOM     16  H   UNL     1       7.120   3.621  17.642  0.00  0.00    +0.000 HD
ATOM     17  H   UNL     1       7.086   4.756  15.863  0.00  0.00    +0.000 HD
ATOM     18  H   UNL     1       5.951   5.971  15.663  0.00  0.00    +0.000 HD
ENDBRANCH   7  14
ENDBRANCH   1  10
BRANCH   4  19
ATOM     19  C   UNL     1      -0.270  11.159  21.736  0.00  0.00    +0.000 A 
ATOM     20  C   UNL     1      -0.618  12.427  21.250  0.00  0.00    +0.000 A 
ATOM     21  C   UNL     1      -1.621  13.202  21.846  0.00  0.00    +0.000 A 
ATOM     22  C   UNL     1      -2.326  12.720  22.951  0.00  0.00    +0.000 A 
ATOM     23  C   UNL     1      -1.983  11.468  23.463  0.00  0.00    +0.000 A 
ATOM     24  C   UNL     1      -0.972  10.707  22.863  0.00  0.00    +0.000 A 
BRANCH  22  25
ATOM     25  C   UNL     1      -3.431  13.535  23.580  0.00  0.00    +0.000 C 
BRANCH  25  26
ATOM     26  C   UNL     1      -4.547  12.736  24.219  0.00  0.00    +0.000 C 
ATOM     27  O   UNL     1      -5.503  12.307  23.584  0.00  0.00    +0.000 OA
BRANCH  26  28
ATOM     28  O   UNL     1      -4.469  12.590  25.561  0.00  0.00    +0.000 OA
ATOM     29  H   UNL     1      -5.161  12.015  25.942  0.00  0.00    +0.000 HD
ENDBRANCH  26  28
ENDBRANCH  25  26
ENDBRANCH  22  25
ENDBRANCH   4  19
TORSDOF 6
ENDMDL
MODEL 6
REMARK VINA RESULT:      -7.2      0.183      1.171
REMARK  Name = 
REMARK  6 active torsions:
REMARK  status: ('A' for Active; 'I' for Inactive)
REMARK    1  A    between atoms: C_2  and  C_4
REMARK    2  A    between atoms: C_7  and  N_8
REMARK    3  A    between atoms: N_11  and  C_12
REMARK    4  A    between atoms: C_15  and  C_16
REMARK    5  A    between atoms: C_16  and  C_17
REMARK    6  A    between atoms: C_17  and  O_19
REMARK                            x       y       z     vdW  Elec       q    Type
REMARK                         _______ _______ _______ _____ _____    ______ ____
ROOT
ATOM      1  N   UNL     1       1.779   7.818  19.477  0.00  0.00    +0.000 N 
ATOM      2  C   UNL     1       1.246   7.667  20.845  0.00  0.00    +0.000 C 
ATOM      3  C   UNL     1       1.339   9.007  21.607  0.00  0.00    +0.000 C 
ATOM      4  N   UNL     1       0.699  10.096  20.847  0.00  0.00    +0.000 N 
ATOM      5  C   UNL     1       1.202  10.256  19.467  0.00  0.00    +0.000 C 
ATOM      6  C   UNL     1       1.156   8.908  18.702  0.00  0.00    +0.000 C 
ENDROOT
BRANCH   1  10
ATOM      7  C   UNL     1       5.028   5.484  18.136  0.00  0.00    +0.000 A 
ATOM      8  C   UNL     1       4.331   5.127  19.287  0.00  0.00    +0.000 A 
ATOM      9  C   UNL     1       3.248   5.902  19.714  0.00  0.00    +0.000 A 
ATOM     10  C   UNL     1       2.823   7.046  19.016  0.00  0.00    +0.000 A 
ATOM     11  C   UNL     1       3.522   7.357  17.839  0.00  0.00    +0.000 A 
ATOM     12  C   UNL     1       4.615   6.595  17.403  0.00  0.00    +0.000 A 
BRANCH   7  14
ATOM     13  N   UNL     1       7.339   4.845  18.308  0.00  0.00    +0.000 NA
ATOM     14  C   UNL     1       6.208   4.682  17.707  0.00  0.00    +0.000 C 
ATOM     15  N   UNL     1       6.097   3.803  16.669  0.00  0.00    +0.000 N 
ATOM     16  H   UNL     1       8.031   4.201  17.922  0.00  0.00    +0.000 HD
ATOM     17  H   UNL     1       6.969   3.554  16.218  0.00  0.00    +0.000 HD
ATOM     18  H   UNL     1       5.381   4.031  15.986  0.00  0.00    +0.000 HD
ENDBRANCH   7  14
ENDBRANCH   1  10
BRANCH   4  19
ATOM     19  C   UNL     1      -0.350  10.839  21.342  0.00  0.00    +0.000 A 
ATOM     20  C   UNL     1      -0.698  10.801  22.699  0.00  0.00    +0.000 A 
ATOM     21  C   UNL     1      -1.756  11.559  23.217  0.00  0.00    +0.000 A 
ATOM     22  C   UNL     1      -2.500  12.399  22.385  0.00  0.00    +0.000 A 
ATOM     23  C   UNL     1      -2.183  12.438  21.026  0.00  0.00    +0.000 A 
ATOM     24  C   UNL     1      -1.127  11.669  20.521  0.00  0.00    +0.000 A 
BRANCH  22  25
ATOM     25  C   UNL     1      -3.622  13.242  22.940  0.00  0.00    +0.000 C 
BRANCH  25  26
ATOM     26  C   UNL     1      -4.050  12.909  24.354  0.00  0.00    +0.000 C 
ATOM     27  O   UNL     1      -4.739  11.932  24.625  0.00  0.00    +0.000 OA
BRANCH  26  28
ATOM     28  O   UNL     1      -3.693  13.806  25.301  0.00  0.00    +0.000 OA
ATOM     29  H   UNL     1      -3.492  13.410  26.171  0.00  0.00    +0.000 HD
ENDBRANCH  26  28
ENDBRANCH  25  26
ENDBRANCH  22  25
ENDBRANCH   4  19
TORSDOF 6
ENDMDL
MODEL 7
REMARK VINA RESULT:      -7.1      4.806     10.112
REMARK  Name = 
REMARK  6 active torsions:
REMARK  status: ('A' for Active; 'I' for Inactive)
REMARK    1  A    between atoms: C_2  and  C_4
REMARK    2  A    between atoms: C_7  and  N_8
REMARK    3  A    between atoms: N_11  and  C_12
REMARK    4  A    between atoms: C_15  and  C_16
REMARK    5  A    between atoms: C_16  and  C_17
REMARK    6  A    between atoms: C_17  and  O_19
REMARK                            x       y       z     vdW  Elec       q    Type
REMARK                         _______ _______ _______ _____ _____    ______ ____
ROOT
ATOM      1  N   UNL     1       0.241  11.097  21.698  0.00  0.00    +0.000 N 
ATOM      2  C   UNL     1       0.582   9.796  22.305  0.00  0.00    +0.000 C 
ATOM      3  C   UNL     1       0.280   8.649  21.317  0.00  0.00    +0.000 C 
ATOM      4  N   UNL     1       0.939   8.879  20.018  0.00  0.00    +0.000 N 
ATOM      5  C   UNL     1       0.628  10.183  19.398  0.00  0.00    +0.000 C 
ATOM      6  C   UNL     1       0.885  11.343  20.394  0.00  0.00    +0.000 C 
ENDROOT
BRANCH   1  10
ATOM      7  C   UNL     1      -2.475  13.739  23.556  0.00  0.00    +0.000 A 
ATOM      8  C   UNL     1      -1.323  14.226  22.945  0.00  0.00    +0.000 A 
ATOM      9  C   UNL     1      -0.437  13.341  22.322  0.00  0.00    +0.000 A 
ATOM     10  C   UNL     1      -0.666  11.955  22.282  0.00  0.00    +0.000 A 
ATOM     11  C   UNL     1      -1.855  11.500  22.873  0.00  0.00    +0.000 A 
ATOM     12  C   UNL     1      -2.748  12.373  23.509  0.00  0.00    +0.000 A 
BRANCH   7  14
ATOM     13  N   UNL     1      -3.361  14.757  25.545  0.00  0.00    +0.000 NA
ATOM     14  C   UNL     1      -3.395  14.677  24.257  0.00  0.00    +0.000 C 
ATOM     15  N   UNL     1      -4.285  15.426  23.541  0.00  0.00    +0.000 N 
ATOM     16  H   UNL     1      -4.023  15.465  25.865  0.00  0.00    +0.000 HD
ATOM     17  H   UNL     1      -5.081  15.770  24.065  0.00  0.00    +0.000 HD
ATOM     18  H   UNL     1      -4.573  15.022  22.655  0.00  0.00    +0.000 HD
ENDBRANCH   7  14
ENDBRANCH   1  10
BRANCH   4  19
ATOM     19  C   UNL     1       1.847   7.998  19.473  0.00  0.00    +0.000 A 
ATOM     20  C   UNL     1       2.485   8.265  18.254  0.00  0.00    +0.000 A 
ATOM     21  C   UNL     1       3.417   7.382  17.693  0.00  0.00    +0.000 A 
ATOM     22  C   UNL     1       3.753   6.196  18.350  0.00  0.00    +0.000 A 
ATOM     23  C   UNL     1       3.115   5.900  19.556  0.00  0.00    +0.000 A 
ATOM     24  C   UNL     1       2.180   6.789  20.101  0.00  0.00    +0.000 A 
BRANCH  22  25
ATOM     25  C   UNL     1       4.779   5.253  17.769  0.00  0.00    +0.000 C 
BRANCH  25  26
ATOM     26  C   UNL     1       5.672   4.559  18.777  0.00  0.00    +0.000 C 
ATOM     27  O   UNL     1       6.595   5.128  19.347  0.00  0.00    +0.000 OA
BRANCH  26  28
ATOM     28  O   UNL     1       5.439   3.239  18.953  0.00  0.00    +0.000 OA
ATOM     29  H   UNL     1       4.521   3.025  19.212  0.00  0.00    +0.000 HD
ENDBRANCH  26  28
ENDBRANCH  25  26
ENDBRANCH  22  25
ENDBRANCH   4  19
TORSDOF 6
ENDMDL
MODEL 8
REMARK VINA RESULT:      -7.1      0.577      1.142
REMARK  Name = 
REMARK  6 active torsions:
REMARK  status: ('A' for Active; 'I' for Inactive)
REMARK    1  A    between atoms: C_2  and  C_4
REMARK    2  A    between atoms: C_7  and  N_8
REMARK    3  A    between atoms: N_11  and  C_12
REMARK    4  A    between atoms: C_15  and  C_16
REMARK    5  A    between atoms: C_16  and  C_17
REMARK    6  A    between atoms: C_17  and  O_19
REMARK                            x       y       z     vdW  Elec       q    Type
REMARK                         _______ _______ _______ _____ _____    ______ ____
ROOT
ATOM      1  N   UNL     1       1.683   7.881  19.592  0.00  0.00    +0.000 N 
ATOM      2  C   UNL     1       1.127   7.740  20.951  0.00  0.00    +0.000 C 
ATOM      3  C   UNL     1       1.296   9.058  21.738  0.00  0.00    +0.000 C 
ATOM      4  N   UNL     1       0.733  10.199  20.991  0.00  0.00    +0.000 N 
ATOM      5  C   UNL     1       1.261  10.350  19.619  0.00  0.00    +0.000 C 
ATOM      6  C   UNL     1       1.139   9.022  18.830  0.00  0.00    +0.000 C 
ENDROOT
BRANCH   1  10
ATOM      7  C   UNL     1       4.684   5.314  18.104  0.00  0.00    +0.000 A 
ATOM      8  C   UNL     1       4.297   6.440  17.382  0.00  0.00    +0.000 A 
ATOM      9  C   UNL     1       3.310   7.289  17.892  0.00  0.00    +0.000 A 
ATOM     10  C   UNL     1       2.682   7.053  19.127  0.00  0.00    +0.000 A 
ATOM     11  C   UNL     1       3.123   5.933  19.849  0.00  0.00    +0.000 A 
ATOM     12  C   UNL     1       4.105   5.067  19.347  0.00  0.00    +0.000 A 
BRANCH   7  14
ATOM     13  N   UNL     1       5.414   3.679  16.500  0.00  0.00    +0.000 NA
ATOM     14  C   UNL     1       5.705   4.387  17.540  0.00  0.00    +0.000 C 
ATOM     15  N   UNL     1       6.927   4.270  18.137  0.00  0.00    +0.000 N 
ATOM     16  H   UNL     1       6.225   3.127  16.220  0.00  0.00    +0.000 HD
ATOM     17  H   UNL     1       7.429   3.415  17.929  0.00  0.00    +0.000 HD
ATOM     18  H   UNL     1       6.942   4.474  19.131  0.00  0.00    +0.000 HD
ENDBRANCH   7  14
ENDBRANCH   1  10
BRANCH   4  19
ATOM     19  C   UNL     1      -0.272  10.998  21.490  0.00  0.00    +0.000 A 
ATOM     20  C   UNL     1      -0.769  12.088  20.763  0.00  0.00    +0.000 A 
ATOM     21  C   UNL     1      -1.797  12.903  21.255  0.00  0.00    +0.000 A 
ATOM     22  C   UNL     1      -2.376  12.640  22.499  0.00  0.00    +0.000 A 
ATOM     23  C   UNL     1      -1.882  11.570  23.249  0.00  0.00    +0.000 A 
ATOM     24  C   UNL     1      -0.848  10.770  22.748  0.00  0.00    +0.000 A 
BRANCH  22  25
ATOM     25  C   UNL     1      -3.505  13.493  23.024  0.00  0.00    +0.000 C 
BRANCH  25  26
ATOM     26  C   UNL     1      -4.751  12.740  23.443  0.00  0.00    +0.000 C 
ATOM     27  O   UNL     1      -5.611  12.385  22.646  0.00  0.00    +0.000 OA
BRANCH  26  28
ATOM     28  O   UNL     1      -4.900  12.550  24.774  0.00  0.00    +0.000 OA
ATOM     29  H   UNL     1      -5.816  12.348  25.048  0.00  0.00    +0.000 HD
ENDBRANCH  26  28
ENDBRANCH  25  26
ENDBRANCH  22  25
ENDBRANCH   4  19
TORSDOF 6
ENDMDL
MODEL 9
REMARK VINA RESULT:      -7.0      4.868     10.224
REMARK  Name = 
REMARK  6 active torsions:
REMARK  status: ('A' for Active; 'I' for Inactive)
REMARK    1  A    between atoms: C_2  and  C_4
REMARK    2  A    between atoms: C_7  and  N_8
REMARK    3  A    between atoms: N_11  and  C_12
REMARK    4  A    between atoms: C_15  and  C_16
REMARK    5  A    between atoms: C_16  and  C_17
REMARK    6  A    between atoms: C_17  and  O_19
REMARK                            x       y       z     vdW  Elec       q    Type
REMARK                         _______ _______ _______ _____ _____    ______ ____
ROOT
ATOM      1  N   UNL     1      -0.087  11.384  21.940  0.00  0.00    +0.000 N 
ATOM      2  C   UNL     1       0.143   9.988  22.360  0.00  0.00    +0.000 C 
ATOM      3  C   UNL     1      -0.142   9.023  21.189  0.00  0.00    +0.000 C 
ATOM      4  N   UNL     1       0.622   9.406  19.986  0.00  0.00    +0.000 N 
ATOM      5  C   UNL     1       0.423  10.805  19.557  0.00  0.00    +0.000 C 
ATOM      6  C   UNL     1       0.663  11.784  20.734  0.00  0.00    +0.000 C 
ENDROOT
BRANCH   1  10
ATOM      7  C   UNL     1      -2.910  13.866  23.858  0.00  0.00    +0.000 A 
ATOM      8  C   UNL     1      -3.148  12.501  23.723  0.00  0.00    +0.000 A 
ATOM      9  C   UNL     1      -2.198  11.687  23.096  0.00  0.00    +0.000 A 
ATOM     10  C   UNL     1      -0.990  12.197  22.590  0.00  0.00    +0.000 A 
ATOM     11  C   UNL     1      -0.763  13.569  22.777  0.00  0.00    +0.000 A 
ATOM     12  C   UNL     1      -1.708  14.399  23.396  0.00  0.00    +0.000 A 
BRANCH   7  14
ATOM     13  N   UNL     1      -5.184  14.576  24.179  0.00  0.00    +0.000 NA
ATOM     14  C   UNL     1      -3.940  14.738  24.487  0.00  0.00    +0.000 C 
ATOM     15  N   UNL     1      -3.566  15.717  25.362  0.00  0.00    +0.000 N 
ATOM     16  H   UNL     1      -5.761  15.223  24.718  0.00  0.00    +0.000 HD
ATOM     17  H   UNL     1      -4.238  16.466  25.485  0.00  0.00    +0.000 HD
ATOM     18  H   UNL     1      -2.629  16.082  25.225  0.00  0.00    +0.000 HD
ENDBRANCH   7  14
ENDBRANCH   1  10
BRANCH   4  19
ATOM     19  C   UNL     1       1.522   8.564  19.372  0.00  0.00    +0.000 A 
ATOM     20  C   UNL     1       2.001   8.820  18.080  0.00  0.00    +0.000 A 
ATOM     21  C   UNL     1       2.923   7.977  17.447  0.00  0.00    +0.000 A 
ATOM     22  C   UNL     1       3.412   6.844  18.102  0.00  0.00    +0.000 A 
ATOM     23  C   UNL     1       2.933   6.558  19.382  0.00  0.00    +0.000 A 
ATOM     24  C   UNL     1       2.005   7.406  19.999  0.00  0.00    +0.000 A 
BRANCH  22  25
ATOM     25  C   UNL     1       4.429   5.946  17.440  0.00  0.00    +0.000 C 
BRANCH  25  26
ATOM     26  C   UNL     1       5.385   6.635  16.489  0.00  0.00    +0.000 C 
ATOM     27  O   UNL     1       5.306   6.522  15.272  0.00  0.00    +0.000 OA
BRANCH  26  28
ATOM     28  O   UNL     1       6.394   7.325  17.070  0.00  0.00    +0.000 OA
ATOM     29  H   UNL     1       6.970   6.783  17.644  0.00  0.00    +0.000 HD
ENDBRANCH  26  28
ENDBRANCH  25  26
ENDBRANCH  22  25
ENDBRANCH   4  19
TORSDOF 6
ENDMDL
