MODEL 1
REMARK VINA RESULT:      -7.1      0.000      0.000
REMARK  Name = 
REMARK  6 active torsions:
REMARK  status: ('A' for Active; 'I' for Inactive)
REMARK    1  A    between atoms: C_1  and  C_2
REMARK    2  A    between atoms: C_4  and  C_5
REMARK    3  A    between atoms: C_6  and  N_7
REMARK    4  A    between atoms: C_8  and  C_10
REMARK    5  A    between atoms: C_10  and  N_11
REMARK    6  A    between atoms: C_25  and  C_26
REMARK                            x       y       z     vdW  Elec       q    Type
REMARK                         _______ _______ _______ _____ _____    ______ ____
ROOT
ATOM      1  C   UNL     1      -1.884  12.191  19.117  0.00  0.00    +0.000 C 
ENDROOT
BRANCH   1   2
ATOM      2  N   UNL     1      -3.068  12.375  19.973  0.00  0.00    +0.000 N 
ATOM      3  C   UNL     1      -2.834  12.742  21.304  0.00  0.00    +0.000 A 
ATOM      4  O   UNL     1      -1.703  12.955  21.739  0.00  0.00    +0.000 OA
ATOM      5  C   UNL     1      -4.003  12.854  22.141  0.00  0.00    +0.000 A 
ATOM      6  C   UNL     1      -4.099  13.124  23.495  0.00  0.00    +0.000 A 
ATOM      7  C   UNL     1      -5.467  13.092  23.844  0.00  0.00    +0.000 A 
ATOM      8  C   UNL     1      -6.173  12.828  22.688  0.00  0.00    +0.000 A 
ATOM      9  N   UNL     1      -5.276  12.686  21.653  0.00  0.00    +0.000 N 
ATOM     10  C   UNL     1      -5.518  12.416  20.293  0.00  0.00    +0.000 A 
ATOM     11  C   UNL     1      -6.834  12.327  19.804  0.00  0.00    +0.000 A 
ATOM     12  C   UNL     1      -7.049  12.076  18.452  0.00  0.00    +0.000 A 
ATOM     13  C   UNL     1      -5.962  11.901  17.604  0.00  0.00    +0.000 A 
ATOM     14  C   UNL     1      -4.654  11.980  18.098  0.00  0.00    +0.000 A 
ATOM     15  C   UNL     1      -4.400  12.248  19.449  0.00  0.00    +0.000 A 
ENDBRANCH   1   2
BRANCH   1  17
ATOM     16  N   UNL     1      -0.151  10.613  19.911  0.00  0.00    +0.000 N 
ATOM     17  C   UNL     1      -1.294  10.765  19.126  0.00  0.00    +0.000 C 
ATOM     18  O   UNL     1      -1.829   9.854  18.496  0.00  0.00    +0.000 OA
ATOM     19  H   UNL     1       0.394  11.459  20.035  0.00  0.00    +0.000 HD
BRANCH  16  25
ATOM     20  C   UNL     1       3.078   5.851  19.873  0.00  0.00    +0.000 C 
ATOM     21  C   UNL     1       2.223   7.083  19.845  0.00  0.00    +0.000 A 
ATOM     22  C   UNL     1       2.320   8.021  18.812  0.00  0.00    +0.000 A 
ATOM     23  C   UNL     1       1.533   9.191  18.805  0.00  0.00    +0.000 A 
ATOM     24  C   UNL     1       1.687  10.149  17.656  0.00  0.00    +0.000 C 
ATOM     25  C   UNL     1       0.615   9.417  19.855  0.00  0.00    +0.000 A 
ATOM     26  C   UNL     1       0.548   8.504  20.925  0.00  0.00    +0.000 A 
ATOM     27  C   UNL     1      -0.329   8.730  22.127  0.00  0.00    +0.000 C 
ATOM     28  C   UNL     1       1.330   7.333  20.891  0.00  0.00    +0.000 A 
ENDBRANCH  16  25
ENDBRANCH   1  17
TORSDOF 3
ENDMDL
MODEL 2
REMARK VINA RESULT:      -7.1      0.187      1.683
REMARK  Name = 
REMARK  6 active torsions:
REMARK  status: ('A' for Active; 'I' for Inactive)
REMARK    1  A    between atoms: C_1  and  C_2
REMARK    2  A    between atoms: C_4  and  C_5
REMARK    3  A    between atoms: C_6  and  N_7
REMARK    4  A    between atoms: C_8  and  C_10
REMARK    5  A    between atoms: C_10  and  N_11
REMARK    6  A    between atoms: C_25  and  C_26
REMARK                            x       y       z     vdW  Elec       q    Type
REMARK                         _______ _______ _______ _____ _____    ______ ____
ROOT
ATOM      1  C   UNL     1      -1.743  12.113  19.075  0.00  0.00    +0.000 C 
ENDROOT
BRANCH   1   2
ATOM      2  N   UNL     1      -2.952  12.336  19.883  0.00  0.00    +0.000 N 
ATOM      3  C   UNL     1      -2.760  12.759  21.205  0.00  0.00    +0.000 A 
ATOM      4  O   UNL     1      -1.642  12.987  21.667  0.00  0.00    +0.000 OA
ATOM      5  C   UNL     1      -3.954  12.909  21.998  0.00  0.00    +0.000 A 
ATOM      6  C   UNL     1      -4.093  13.237  23.336  0.00  0.00    +0.000 A 
ATOM      7  C   UNL     1      -5.472  13.223  23.642  0.00  0.00    +0.000 A 
ATOM      8  C   UNL     1      -6.141  12.913  22.475  0.00  0.00    +0.000 A 
ATOM      9  N   UNL     1      -5.212  12.725  21.477  0.00  0.00    +0.000 N 
ATOM     10  C   UNL     1      -5.411  12.398  20.122  0.00  0.00    +0.000 A 
ATOM     11  C   UNL     1      -6.711  12.292  19.596  0.00  0.00    +0.000 A 
ATOM     12  C   UNL     1      -6.884  11.985  18.249  0.00  0.00    +0.000 A 
ATOM     13  C   UNL     1      -5.771  11.771  17.444  0.00  0.00    +0.000 A 
ATOM     14  C   UNL     1      -4.479  11.867  17.977  0.00  0.00    +0.000 A 
ATOM     15  C   UNL     1      -4.267  12.191  19.323  0.00  0.00    +0.000 A 
ENDBRANCH   1   2
BRANCH   1  17
ATOM     16  N   UNL     1      -0.007  10.591  19.966  0.00  0.00    +0.000 N 
ATOM     17  C   UNL     1      -1.151  10.691  19.174  0.00  0.00    +0.000 C 
ATOM     18  O   UNL     1      -1.685   9.741  18.604  0.00  0.00    +0.000 OA
ATOM     19  H   UNL     1       0.537  11.444  20.035  0.00  0.00    +0.000 HD
BRANCH  16  25
ATOM     20  C   UNL     1       2.974   5.671  19.859  0.00  0.00    +0.000 C 
ATOM     21  C   UNL     1       2.211   6.961  19.924  0.00  0.00    +0.000 A 
ATOM     22  C   UNL     1       1.333   7.242  20.976  0.00  0.00    +0.000 A 
ATOM     23  C   UNL     1       0.598   8.445  21.018  0.00  0.00    +0.000 A 
ATOM     24  C   UNL     1      -0.321   8.679  22.186  0.00  0.00    +0.000 C 
ATOM     25  C   UNL     1       0.761   9.395  19.986  0.00  0.00    +0.000 A 
ATOM     26  C   UNL     1       1.604   9.098  18.898  0.00  0.00    +0.000 A 
ATOM     27  C   UNL     1       1.748  10.014  17.713  0.00  0.00    +0.000 C 
ATOM     28  C   UNL     1       2.343   7.899  18.896  0.00  0.00    +0.000 A 
ENDBRANCH  16  25
ENDBRANCH   1  17
TORSDOF 3
ENDMDL
MODEL 3
REMARK VINA RESULT:      -6.9      2.112      7.259
REMARK  Name = 
REMARK  6 active torsions:
REMARK  status: ('A' for Active; 'I' for Inactive)
REMARK    1  A    between atoms: C_1  and  C_2
REMARK    2  A    between atoms: C_4  and  C_5
REMARK    3  A    between atoms: C_6  and  N_7
REMARK    4  A    between atoms: C_8  and  C_10
REMARK    5  A    between atoms: C_10  and  N_11
REMARK    6  A    between atoms: C_25  and  C_26
REMARK                            x       y       z     vdW  Elec       q    Type
REMARK                         _______ _______ _______ _____ _____    ______ ____
ROOT
ATOM      1  C   UNL     1       0.943  11.964  18.686  0.00  0.00    +0.000 C 
ENDROOT
BRANCH   1   2
ATOM      2  N   UNL     1       1.110  10.627  19.278  0.00  0.00    +0.000 N 
ATOM      3  C   UNL     1       1.818   9.685  18.520  0.00  0.00    +0.000 A 
ATOM      4  O   UNL     1       2.325   9.962  17.433  0.00  0.00    +0.000 OA
ATOM      5  C   UNL     1       1.915   8.364  19.089  0.00  0.00    +0.000 A 
ATOM      6  C   UNL     1       2.477   7.213  18.563  0.00  0.00    +0.000 A 
ATOM      7  C   UNL     1       2.286   6.174  19.500  0.00  0.00    +0.000 A 
ATOM      8  C   UNL     1       1.635   6.725  20.586  0.00  0.00    +0.000 A 
ATOM      9  N   UNL     1       1.414   8.059  20.331  0.00  0.00    +0.000 N 
ATOM     10  C   UNL     1       0.791   9.031  21.137  0.00  0.00    +0.000 A 
ATOM     11  C   UNL     1       0.357   8.711  22.436  0.00  0.00    +0.000 A 
ATOM     12  C   UNL     1      -0.241   9.693  23.221  0.00  0.00    +0.000 A 
ATOM     13  C   UNL     1      -0.416  10.972  22.708  0.00  0.00    +0.000 A 
ATOM     14  C   UNL     1       0.009  11.281  21.409  0.00  0.00    +0.000 A 
ATOM     15  C   UNL     1       0.629  10.324  20.597  0.00  0.00    +0.000 A 
ENDBRANCH   1   2
BRANCH   1  17
ATOM     16  N   UNL     1      -1.470  11.414  18.660  0.00  0.00    +0.000 N 
ATOM     17  C   UNL     1      -0.522  12.430  18.544  0.00  0.00    +0.000 C 
ATOM     18  O   UNL     1      -0.795  13.616  18.364  0.00  0.00    +0.000 OA
ATOM     19  H   UNL     1      -1.135  10.491  18.407  0.00  0.00    +0.000 HD
BRANCH  16  25
ATOM     20  C   UNL     1      -7.061  12.223  17.570  0.00  0.00    +0.000 C 
ATOM     21  C   UNL     1      -5.594  12.032  17.820  0.00  0.00    +0.000 A 
ATOM     22  C   UNL     1      -4.757  11.446  16.865  0.00  0.00    +0.000 A 
ATOM     23  C   UNL     1      -3.384  11.244  17.116  0.00  0.00    +0.000 A 
ATOM     24  C   UNL     1      -2.546  10.614  16.037  0.00  0.00    +0.000 C 
ATOM     25  C   UNL     1      -2.836  11.655  18.351  0.00  0.00    +0.000 A 
ATOM     26  C   UNL     1      -3.681  12.199  19.337  0.00  0.00    +0.000 A 
ATOM     27  C   UNL     1      -3.189  12.564  20.711  0.00  0.00    +0.000 C 
ATOM     28  C   UNL     1      -5.043  12.410  19.047  0.00  0.00    +0.000 A 
ENDBRANCH  16  25
ENDBRANCH   1  17
TORSDOF 3
ENDMDL
MODEL 4
REMARK VINA RESULT:      -6.9      1.063      3.363
REMARK  Name = 
REMARK  6 active torsions:
REMARK  status: ('A' for Active; 'I' for Inactive)
REMARK    1  A    between atoms: C_1  and  C_2
REMARK    2  A    between atoms: C_4  and  C_5
REMARK    3  A    between atoms: C_6  and  N_7
REMARK    4  A    between atoms: C_8  and  C_10
REMARK    5  A    between atoms: C_10  and  N_11
REMARK    6  A    between atoms: C_25  and  C_26
REMARK                            x       y       z     vdW  Elec       q    Type
REMARK                         _______ _______ _______ _____ _____    ______ ____
ROOT
ATOM      1  C   UNL     1      -1.726  12.176  19.118  0.00  0.00    +0.000 C 
ENDROOT
BRANCH   1   2
ATOM      2  N   UNL     1      -3.023  12.348  19.791  0.00  0.00    +0.000 N 
ATOM      3  C   UNL     1      -4.171  12.137  19.015  0.00  0.00    +0.000 A 
ATOM      4  O   UNL     1      -4.112  11.775  17.841  0.00  0.00    +0.000 OA
ATOM      5  C   UNL     1      -5.430  12.374  19.676  0.00  0.00    +0.000 A 
ATOM      6  C   UNL     1      -6.718  12.324  19.170  0.00  0.00    +0.000 A 
ATOM      7  C   UNL     1      -7.604  12.669  20.215  0.00  0.00    +0.000 A 
ATOM      8  C   UNL     1      -6.834  12.895  21.338  0.00  0.00    +0.000 A 
ATOM      9  N   UNL     1      -5.511  12.712  21.005  0.00  0.00    +0.000 N 
ATOM     10  C   UNL     1      -4.363  12.826  21.812  0.00  0.00    +0.000 A 
ATOM     11  C   UNL     1      -4.480  13.096  23.187  0.00  0.00    +0.000 A 
ATOM     12  C   UNL     1      -3.332  13.187  23.969  0.00  0.00    +0.000 A 
ATOM     13  C   UNL     1      -2.084  13.026  23.379  0.00  0.00    +0.000 A 
ATOM     14  C   UNL     1      -1.974  12.768  22.006  0.00  0.00    +0.000 A 
ATOM     15  C   UNL     1      -3.108  12.653  21.193  0.00  0.00    +0.000 A 
ENDBRANCH   1   2
BRANCH   1  17
ATOM     16  N   UNL     1       0.035  10.648  19.949  0.00  0.00    +0.000 N 
ATOM     17  C   UNL     1      -1.138  10.751  19.201  0.00  0.00    +0.000 C 
ATOM     18  O   UNL     1      -1.699   9.801  18.656  0.00  0.00    +0.000 OA
ATOM     19  H   UNL     1       0.585  11.498  19.994  0.00  0.00    +0.000 HD
BRANCH  16  25
ATOM     20  C   UNL     1       2.987   5.714  19.748  0.00  0.00    +0.000 C 
ATOM     21  C   UNL     1       2.232   7.007  19.838  0.00  0.00    +0.000 A 
ATOM     22  C   UNL     1       1.369   7.281  20.904  0.00  0.00    +0.000 A 
ATOM     23  C   UNL     1       0.642   8.487  20.969  0.00  0.00    +0.000 A 
ATOM     24  C   UNL     1      -0.260   8.713  22.151  0.00  0.00    +0.000 C 
ATOM     25  C   UNL     1       0.796   9.447  19.945  0.00  0.00    +0.000 A 
ATOM     26  C   UNL     1       1.623   9.159  18.843  0.00  0.00    +0.000 A 
ATOM     27  C   UNL     1       1.756  10.087  17.667  0.00  0.00    +0.000 C 
ATOM     28  C   UNL     1       2.355   7.956  18.818  0.00  0.00    +0.000 A 
ENDBRANCH  16  25
ENDBRANCH   1  17
TORSDOF 3
ENDMDL
MODEL 5
REMARK VINA RESULT:      -6.9      2.115      7.451
REMARK  Name = 
REMARK  6 active torsions:
REMARK  status: ('A' for Active; 'I' for Inactive)
REMARK    1  A    between atoms: C_1  and  C_2
REMARK    2  A    between atoms: C_4  and  C_5
REMARK    3  A    between atoms: C_6  and  N_7
REMARK    4  A    between atoms: C_8  and  C_10
REMARK    5  A    between atoms: C_10  and  N_11
REMARK    6  A    between atoms: C_25  and  C_26
REMARK                            x       y       z     vdW  Elec       q    Type
REMARK                         _______ _______ _______ _____ _____    ______ ____
ROOT
ATOM      1  C   UNL     1       0.879  11.832  18.550  0.00  0.00    +0.000 C 
ENDROOT
BRANCH   1   2
ATOM      2  N   UNL     1       1.084  10.522  19.187  0.00  0.00    +0.000 N 
ATOM      3  C   UNL     1       1.799   9.567  18.452  0.00  0.00    +0.000 A 
ATOM      4  O   UNL     1       2.281   9.814  17.348  0.00  0.00    +0.000 OA
ATOM      5  C   UNL     1       1.933   8.270  19.067  0.00  0.00    +0.000 A 
ATOM      6  C   UNL     1       2.510   7.112  18.574  0.00  0.00    +0.000 A 
ATOM      7  C   UNL     1       2.357   6.105  19.552  0.00  0.00    +0.000 A 
ATOM      8  C   UNL     1       1.713   6.681  20.628  0.00  0.00    +0.000 A 
ATOM      9  N   UNL     1       1.460   8.001  20.328  0.00  0.00    +0.000 N 
ATOM     10  C   UNL     1       0.830   8.989  21.109  0.00  0.00    +0.000 A 
ATOM     11  C   UNL     1       0.425   8.708  22.426  0.00  0.00    +0.000 A 
ATOM     12  C   UNL     1      -0.181   9.706  23.185  0.00  0.00    +0.000 A 
ATOM     13  C   UNL     1      -0.391  10.962  22.629  0.00  0.00    +0.000 A 
ATOM     14  C   UNL     1       0.006  11.231  21.312  0.00  0.00    +0.000 A 
ATOM     15  C   UNL     1       0.632  10.257  20.525  0.00  0.00    +0.000 A 
ENDBRANCH   1   2
BRANCH   1  17
ATOM     16  N   UNL     1      -1.533  11.277  18.566  0.00  0.00    +0.000 N 
ATOM     17  C   UNL     1      -0.590  12.303  18.497  0.00  0.00    +0.000 C 
ATOM     18  O   UNL     1      -0.870  13.498  18.421  0.00  0.00    +0.000 OA
ATOM     19  H   UNL     1      -1.207  10.378  18.230  0.00  0.00    +0.000 HD
BRANCH  16  25
ATOM     20  C   UNL     1      -7.040  12.500  17.436  0.00  0.00    +0.000 C 
ATOM     21  C   UNL     1      -5.616  12.160  17.764  0.00  0.00    +0.000 A 
ATOM     22  C   UNL     1      -5.059  12.458  19.012  0.00  0.00    +0.000 A 
ATOM     23  C   UNL     1      -3.712  12.161  19.306  0.00  0.00    +0.000 A 
ATOM     24  C   UNL     1      -3.188  12.504  20.673  0.00  0.00    +0.000 C 
ATOM     25  C   UNL     1      -2.909  11.537  18.325  0.00  0.00    +0.000 A 
ATOM     26  C   UNL     1      -3.446  11.280  17.049  0.00  0.00    +0.000 A 
ATOM     27  C   UNL     1      -2.624  10.714  15.925  0.00  0.00    +0.000 C 
ATOM     28  C   UNL     1      -4.802  11.567  16.795  0.00  0.00    +0.000 A 
ENDBRANCH  16  25
ENDBRANCH   1  17
TORSDOF 3
ENDMDL
MODEL 6
REMARK VINA RESULT:      -6.9      1.092      2.919
REMARK  Name = 
REMARK  6 active torsions:
REMARK  status: ('A' for Active; 'I' for Inactive)
REMARK    1  A    between atoms: C_1  and  C_2
REMARK    2  A    between atoms: C_4  and  C_5
REMARK    3  A    between atoms: C_6  and  N_7
REMARK    4  A    between atoms: C_8  and  C_10
REMARK    5  A    between atoms: C_10  and  N_11
REMARK    6  A    between atoms: C_25  and  C_26
REMARK                            x       y       z     vdW  Elec       q    Type
REMARK                         _______ _______ _______ _____ _____    ______ ____
ROOT
ATOM      1  C   UNL     1      -1.675  12.108  19.102  0.00  0.00    +0.000 C 
ENDROOT
BRANCH   1   2
ATOM      2  N   UNL     1      -2.987  12.295  19.742  0.00  0.00    +0.000 N 
ATOM      3  C   UNL     1      -4.117  12.116  18.932  0.00  0.00    +0.000 A 
ATOM      4  O   UNL     1      -4.033  11.770  17.755  0.00  0.00    +0.000 OA
ATOM      5  C   UNL     1      -5.389  12.366  19.562  0.00  0.00    +0.000 A 
ATOM      6  C   UNL     1      -6.663  12.347  19.021  0.00  0.00    +0.000 A 
ATOM      7  C   UNL     1      -7.571  12.693  20.046  0.00  0.00    +0.000 A 
ATOM      8  C   UNL     1      -6.829  12.889  21.193  0.00  0.00    +0.000 A 
ATOM      9  N   UNL     1      -5.501  12.686  20.893  0.00  0.00    +0.000 N 
ATOM     10  C   UNL     1      -4.374  12.768  21.732  0.00  0.00    +0.000 A 
ATOM     11  C   UNL     1      -4.523  13.020  23.108  0.00  0.00    +0.000 A 
ATOM     12  C   UNL     1      -3.396  13.079  23.922  0.00  0.00    +0.000 A 
ATOM     13  C   UNL     1      -2.135  12.904  23.364  0.00  0.00    +0.000 A 
ATOM     14  C   UNL     1      -1.992  12.663  21.991  0.00  0.00    +0.000 A 
ATOM     15  C   UNL     1      -3.105  12.581  21.145  0.00  0.00    +0.000 A 
ENDBRANCH   1   2
BRANCH   1  17
ATOM     16  N   UNL     1       0.040  10.502  19.878  0.00  0.00    +0.000 N 
ATOM     17  C   UNL     1      -1.135  10.663  19.143  0.00  0.00    +0.000 C 
ATOM     18  O   UNL     1      -1.731   9.747  18.579  0.00  0.00    +0.000 OA
ATOM     19  H   UNL     1       0.619  11.332  19.939  0.00  0.00    +0.000 HD
BRANCH  16  25
ATOM     20  C   UNL     1       3.089   5.623  19.897  0.00  0.00    +0.000 C 
ATOM     21  C   UNL     1       2.281   6.886  19.855  0.00  0.00    +0.000 A 
ATOM     22  C   UNL     1       2.414   7.808  18.811  0.00  0.00    +0.000 A 
ATOM     23  C   UNL     1       1.671   9.007  18.790  0.00  0.00    +0.000 A 
ATOM     24  C   UNL     1       1.862   9.945  17.630  0.00  0.00    +0.000 C 
ATOM     25  C   UNL     1       0.761   9.278  19.836  0.00  0.00    +0.000 A 
ATOM     26  C   UNL     1       0.659   8.380  20.916  0.00  0.00    +0.000 A 
ATOM     27  C   UNL     1      -0.209   8.652  22.114  0.00  0.00    +0.000 C 
ATOM     28  C   UNL     1       1.397   7.181  20.896  0.00  0.00    +0.000 A 
ENDBRANCH  16  25
ENDBRANCH   1  17
TORSDOF 3
ENDMDL
MODEL 7
REMARK VINA RESULT:      -6.8      2.073      3.191
REMARK  Name = 
REMARK  6 active torsions:
REMARK  status: ('A' for Active; 'I' for Inactive)
REMARK    1  A    between atoms: C_1  and  C_2
REMARK    2  A    between atoms: C_4  and  C_5
REMARK    3  A    between atoms: C_6  and  N_7
REMARK    4  A    between atoms: C_8  and  C_10
REMARK    5  A    between atoms: C_10  and  N_11
REMARK    6  A    between atoms: C_25  and  C_26
REMARK                            x       y       z     vdW  Elec       q    Type
REMARK                         _______ _______ _______ _____ _____    ______ ____
ROOT
ATOM      1  C   UNL     1       0.007  13.459  20.345  0.00  0.00    +0.000 C 
ENDROOT
BRANCH   1   2
ATOM      2  N   UNL     1      -0.961  13.716  21.424  0.00  0.00    +0.000 N 
ATOM      3  C   UNL     1      -0.487  14.406  22.547  0.00  0.00    +0.000 A 
ATOM      4  O   UNL     1       0.666  14.828  22.621  0.00  0.00    +0.000 OA
ATOM      5  C   UNL     1      -1.434  14.591  23.618  0.00  0.00    +0.000 A 
ATOM      6  C   UNL     1      -1.257  15.159  24.868  0.00  0.00    +0.000 A 
ATOM      7  C   UNL     1      -2.485  15.070  25.560  0.00  0.00    +0.000 A 
ATOM      8  C   UNL     1      -3.388  14.473  24.703  0.00  0.00    +0.000 A 
ATOM      9  N   UNL     1      -2.743  14.185  23.522  0.00  0.00    +0.000 N 
ATOM     10  C   UNL     1      -3.247  13.581  22.354  0.00  0.00    +0.000 A 
ATOM     11  C   UNL     1      -4.610  13.247  22.252  0.00  0.00    +0.000 A 
ATOM     12  C   UNL     1      -5.088  12.667  21.081  0.00  0.00    +0.000 A 
ATOM     13  C   UNL     1      -4.213  12.410  20.033  0.00  0.00    +0.000 A 
ATOM     14  C   UNL     1      -2.855  12.735  20.144  0.00  0.00    +0.000 A 
ATOM     15  C   UNL     1      -2.341  13.335  21.301  0.00  0.00    +0.000 A 
ENDBRANCH   1   2
BRANCH   1  17
ATOM     16  N   UNL     1       0.241  11.041  19.874  0.00  0.00    +0.000 N 
ATOM     17  C   UNL     1       0.812  12.151  20.496  0.00  0.00    +0.000 C 
ATOM     18  O   UNL     1       1.880  12.131  21.106  0.00  0.00    +0.000 OA
ATOM     19  H   UNL     1      -0.766  11.084  19.771  0.00  0.00    +0.000 HD
BRANCH  16  25
ATOM     20  C   UNL     1       2.197   5.679  20.600  0.00  0.00    +0.000 C 
ATOM     21  C   UNL     1       1.703   7.087  20.447  0.00  0.00    +0.000 A 
ATOM     22  C   UNL     1       0.887   7.687  21.412  0.00  0.00    +0.000 A 
ATOM     23  C   UNL     1       0.403   9.002  21.251  0.00  0.00    +0.000 A 
ATOM     24  C   UNL     1      -0.462   9.582  22.336  0.00  0.00    +0.000 C 
ATOM     25  C   UNL     1       0.759   9.736  20.097  0.00  0.00    +0.000 A 
ATOM     26  C   UNL     1       1.536   9.122  19.097  0.00  0.00    +0.000 A 
ATOM     27  C   UNL     1       1.867   9.804  17.798  0.00  0.00    +0.000 C 
ATOM     28  C   UNL     1       2.024   7.816  19.299  0.00  0.00    +0.000 A 
ENDBRANCH  16  25
ENDBRANCH   1  17
TORSDOF 3
ENDMDL
MODEL 8
REMARK VINA RESULT:      -6.7      1.046      2.197
REMARK  Name = 
REMARK  6 active torsions:
REMARK  status: ('A' for Active; 'I' for Inactive)
REMARK    1  A    between atoms: C_1  and  C_2
REMARK    2  A    between atoms: C_4  and  C_5
REMARK    3  A    between atoms: C_6  and  N_7
REMARK    4  A    between atoms: C_8  and  C_10
REMARK    5  A    between atoms: C_10  and  N_11
REMARK    6  A    between atoms: C_25  and  C_26
REMARK                            x       y       z     vdW  Elec       q    Type
REMARK                         _______ _______ _______ _____ _____    ______ ____
ROOT
ATOM      1  C   UNL     1      -1.539  12.379  19.256  0.00  0.00    +0.000 C 
ENDROOT
BRANCH   1   2
ATOM      2  N   UNL     1      -2.318  12.812  20.426  0.00  0.00    +0.000 N 
ATOM      3  C   UNL     1      -1.605  13.405  21.477  0.00  0.00    +0.000 A 
ATOM      4  O   UNL     1      -0.393  13.606  21.417  0.00  0.00    +0.000 OA
ATOM      5  C   UNL     1      -2.378  13.763  22.640  0.00  0.00    +0.000 A 
ATOM      6  C   UNL     1      -1.962  14.290  23.851  0.00  0.00    +0.000 A 
ATOM      7  C   UNL     1      -3.102  14.432  24.672  0.00  0.00    +0.000 A 
ATOM      8  C   UNL     1      -4.188  14.011  23.932  0.00  0.00    +0.000 A 
ATOM      9  N   UNL     1      -3.741  13.607  22.694  0.00  0.00    +0.000 N 
ATOM     10  C   UNL     1      -4.473  13.106  21.601  0.00  0.00    +0.000 A 
ATOM     11  C   UNL     1      -5.877  13.030  21.654  0.00  0.00    +0.000 A 
ATOM     12  C   UNL     1      -6.580  12.547  20.554  0.00  0.00    +0.000 A 
ATOM     13  C   UNL     1      -5.888  12.130  19.424  0.00  0.00    +0.000 A 
ATOM     14  C   UNL     1      -4.489  12.198  19.381  0.00  0.00    +0.000 A 
ATOM     15  C   UNL     1      -3.750  12.694  20.462  0.00  0.00    +0.000 A 
ENDBRANCH   1   2
BRANCH   1  17
ATOM     16  N   UNL     1       0.153  10.754  20.043  0.00  0.00    +0.000 N 
ATOM     17  C   UNL     1      -1.028  10.924  19.321  0.00  0.00    +0.000 C 
ATOM     18  O   UNL     1      -1.651  10.009  18.784  0.00  0.00    +0.000 OA
ATOM     19  H   UNL     1       0.750  11.572  20.079  0.00  0.00    +0.000 HD
BRANCH  16  25
ATOM     20  C   UNL     1       2.829   5.668  19.757  0.00  0.00    +0.000 C 
ATOM     21  C   UNL     1       2.147   7.000  19.869  0.00  0.00    +0.000 A 
ATOM     22  C   UNL     1       1.312   7.309  20.948  0.00  0.00    +0.000 A 
ATOM     23  C   UNL     1       0.652   8.552  21.034  0.00  0.00    +0.000 A 
ATOM     24  C   UNL     1      -0.223   8.814  22.229  0.00  0.00    +0.000 C 
ATOM     25  C   UNL     1       0.848   9.514  20.018  0.00  0.00    +0.000 A 
ATOM     26  C   UNL     1       1.646   9.192  18.903  0.00  0.00    +0.000 A 
ATOM     27  C   UNL     1       1.816  10.124  17.735  0.00  0.00    +0.000 C 
ATOM     28  C   UNL     1       2.310   7.951  18.858  0.00  0.00    +0.000 A 
ENDBRANCH  16  25
ENDBRANCH   1  17
TORSDOF 3
ENDMDL
MODEL 9
REMARK VINA RESULT:      -6.7      2.773      4.404
REMARK  Name = 
REMARK  6 active torsions:
REMARK  status: ('A' for Active; 'I' for Inactive)
REMARK    1  A    between atoms: C_1  and  C_2
REMARK    2  A    between atoms: C_4  and  C_5
REMARK    3  A    between atoms: C_6  and  N_7
REMARK    4  A    between atoms: C_8  and  C_10
REMARK    5  A    between atoms: C_10  and  N_11
REMARK    6  A    between atoms: C_25  and  C_26
REMARK                            x       y       z     vdW  Elec       q    Type
REMARK                         _______ _______ _______ _____ _____    ______ ____
ROOT
ATOM      1  C   UNL     1       1.430   9.350  21.960  0.00  0.00    +0.000 C 
ENDROOT
BRANCH   1   2
ATOM      2  N   UNL     1       0.408  10.395  21.791  0.00  0.00    +0.000 N 
ATOM      3  C   UNL     1      -0.527  10.538  22.824  0.00  0.00    +0.000 A 
ATOM      4  O   UNL     1      -0.479   9.863  23.852  0.00  0.00    +0.000 OA
ATOM      5  C   UNL     1      -1.557  11.523  22.610  0.00  0.00    +0.000 A 
ATOM      6  C   UNL     1      -2.651  11.846  23.395  0.00  0.00    +0.000 A 
ATOM      7  C   UNL     1      -3.376  12.858  22.728  0.00  0.00    +0.000 A 
ATOM      8  C   UNL     1      -2.691  13.145  21.565  0.00  0.00    +0.000 A 
ATOM      9  N   UNL     1      -1.583  12.330  21.499  0.00  0.00    +0.000 N 
ATOM     10  C   UNL     1      -0.586  12.258  20.507  0.00  0.00    +0.000 A 
ATOM     11  C   UNL     1      -0.594  13.150  19.419  0.00  0.00    +0.000 A 
ATOM     12  C   UNL     1       0.412  13.071  18.460  0.00  0.00    +0.000 A 
ATOM     13  C   UNL     1       1.402  12.103  18.580  0.00  0.00    +0.000 A 
ATOM     14  C   UNL     1       1.398  11.211  19.660  0.00  0.00    +0.000 A 
ATOM     15  C   UNL     1       0.411  11.272  20.652  0.00  0.00    +0.000 A 
ENDBRANCH   1   2
BRANCH   1  17
ATOM     16  N   UNL     1       2.374   7.425  20.724  0.00  0.00    +0.000 N 
ATOM     17  C   UNL     1       1.205   8.081  21.110  0.00  0.00    +0.000 C 
ATOM     18  O   UNL     1       0.070   7.697  20.833  0.00  0.00    +0.000 OA
ATOM     19  H   UNL     1       3.193   8.019  20.660  0.00  0.00    +0.000 HD
BRANCH  16  25
ATOM     20  C   UNL     1       2.426   3.068  16.967  0.00  0.00    +0.000 C 
ATOM     21  C   UNL     1       2.382   4.221  17.925  0.00  0.00    +0.000 A 
ATOM     22  C   UNL     1       2.499   5.545  17.487  0.00  0.00    +0.000 A 
ATOM     23  C   UNL     1       2.485   6.623  18.395  0.00  0.00    +0.000 A 
ATOM     24  C   UNL     1       2.608   8.019  17.848  0.00  0.00    +0.000 C 
ATOM     25  C   UNL     1       2.334   6.366  19.776  0.00  0.00    +0.000 A 
ATOM     26  C   UNL     1       2.266   5.035  20.231  0.00  0.00    +0.000 A 
ATOM     27  C   UNL     1       2.209   4.682  21.691  0.00  0.00    +0.000 C 
ATOM     28  C   UNL     1       2.260   3.981  19.297  0.00  0.00    +0.000 A 
ENDBRANCH  16  25
ENDBRANCH   1  17
TORSDOF 3
ENDMDL
