MODEL 1
REMARK VINA RESULT:      -7.5      0.000      0.000
REMARK  Name = 
REMARK  8 active torsions:
REMARK  status: ('A' for Active; 'I' for Inactive)
REMARK    1  A    between atoms: C_1  and  S_2
REMARK    2  A    between atoms: S_2  and  C_3
REMARK    3  A    between atoms: N_5  and  C_6
REMARK    4  A    between atoms: C_6  and  C_7
REMARK    5  A    between atoms: N_9  and  C_10
REMARK    6  A    between atoms: C_17  and  N_18
REMARK    7  A    between atoms: C_19  and  S_20
REMARK    8  A    between atoms: S_20  and  C_23
REMARK                            x       y       z     vdW  Elec       q    Type
REMARK                         _______ _______ _______ _____ _____    ______ ____
ROOT
ATOM      1  C   UNL     1       0.669   9.153  20.162  0.00  0.00    +0.000 A 
ATOM      2  N   UNL     1       1.531   8.235  19.705  0.00  0.00    +0.000 NA
ATOM      3  N   UNL     1       2.118   8.829  18.643  0.00  0.00    +0.000 N 
ATOM      4  C   UNL     1       1.699  10.129  18.450  0.00  0.00    +0.000 A 
ATOM      5  C   UNL     1       0.694  10.331  19.384  0.00  0.00    +0.000 A 
ENDROOT
BRANCH   4   6
ATOM      6  N   UNL     1       2.226  10.948  17.516  0.00  0.00    +0.000 N 
ATOM      7  H   UNL     1       1.683  11.689  17.063  0.00  0.00    +0.000 HD
ATOM      8  H   UNL     1       3.205  11.236  17.625  0.00  0.00    +0.000 HD
ENDBRANCH   4   6
BRANCH   5   9
ATOM      9  S   UNL     1      -0.312  11.714  19.509  0.00  0.00    +0.000 S 
ATOM     10  O   UNL     1      -0.437  11.953  20.937  0.00  0.00    +0.000 OA
ATOM     11  O   UNL     1       0.277  12.714  18.641  0.00  0.00    +0.000 OA
BRANCH   9  12
ATOM     12  C   UNL     1      -1.939  11.346  18.921  0.00  0.00    +0.000 A 
ATOM     13  C   UNL     1      -3.040  12.126  19.283  0.00  0.00    +0.000 A 
ATOM     14  C   UNL     1      -4.293  11.834  18.738  0.00  0.00    +0.000 A 
ATOM     15  C   UNL     1      -4.443  10.779  17.835  0.00  0.00    +0.000 A 
ATOM     16  C   UNL     1      -3.339  10.010  17.467  0.00  0.00    +0.000 A 
ATOM     17  C   UNL     1      -2.085  10.291  18.010  0.00  0.00    +0.000 A 
ENDBRANCH   9  12
ENDBRANCH   5   9
BRANCH   1  19
ATOM     18  C   UNL     1       0.826   9.388  22.924  0.00  0.00    +0.000 C 
ATOM     19  S   UNL     1      -0.274   8.836  21.602  0.00  0.00    +0.000 S 
ENDBRANCH   1  19
BRANCH   3  20
ATOM     20  C   UNL     1       3.144   8.100  17.921  0.00  0.00    +0.000 C 
BRANCH  20  21
ATOM     21  C   UNL     1       3.229   6.642  18.310  0.00  0.00    +0.000 C 
ATOM     22  O   UNL     1       4.265   6.183  18.795  0.00  0.00    +0.000 OA
ATOM     23  N   UNL     1       2.083   5.900  18.061  0.00  0.00    +0.000 N 
ATOM     24  H   UNL     1       1.526   6.181  17.258  0.00  0.00    +0.000 HD
BRANCH  23  25
ATOM     25  C   UNL     1       1.964   4.538  18.431  0.00  0.00    +0.000 A 
ATOM     26  C   UNL     1       2.320   3.493  17.574  0.00  0.00    +0.000 A 
ATOM     27  C   UNL     1       2.172   2.163  17.986  0.00  0.00    +0.000 A 
ATOM     28  C   UNL     1       1.640   1.872  19.243  0.00  0.00    +0.000 A 
ATOM     29  C   UNL     1       1.293   2.910  20.107  0.00  0.00    +0.000 A 
ATOM     30  C   UNL     1       1.486   4.229  19.708  0.00  0.00    +0.000 A 
ATOM     31  F   UNL     1       1.146   5.222  20.544  0.00  0.00    +0.000 F 
ENDBRANCH  23  25
ENDBRANCH  20  21
ENDBRANCH   3  20
TORSDOF 7
ENDMDL
MODEL 2
REMARK VINA RESULT:      -7.4      3.158      8.057
REMARK  Name = 
REMARK  8 active torsions:
REMARK  status: ('A' for Active; 'I' for Inactive)
REMARK    1  A    between atoms: C_1  and  S_2
REMARK    2  A    between atoms: S_2  and  C_3
REMARK    3  A    between atoms: N_5  and  C_6
REMARK    4  A    between atoms: C_6  and  C_7
REMARK    5  A    between atoms: N_9  and  C_10
REMARK    6  A    between atoms: C_17  and  N_18
REMARK    7  A    between atoms: C_19  and  S_20
REMARK    8  A    between atoms: S_20  and  C_23
REMARK                            x       y       z     vdW  Elec       q    Type
REMARK                         _______ _______ _______ _____ _____    ______ ____
ROOT
ATOM      1  C   UNL     1       2.697   5.985  19.716  0.00  0.00    +0.000 A 
ATOM      2  N   UNL     1       2.029   7.127  19.507  0.00  0.00    +0.000 NA
ATOM      3  N   UNL     1       2.657   7.691  18.452  0.00  0.00    +0.000 N 
ATOM      4  C   UNL     1       3.669   6.906  17.941  0.00  0.00    +0.000 A 
ATOM      5  C   UNL     1       3.762   5.825  18.804  0.00  0.00    +0.000 A 
ENDROOT
BRANCH   4   6
ATOM      6  N   UNL     1       4.361   7.220  16.827  0.00  0.00    +0.000 N 
ATOM      7  H   UNL     1       4.643   8.179  16.604  0.00  0.00    +0.000 HD
ATOM      8  H   UNL     1       5.067   6.553  16.494  0.00  0.00    +0.000 HD
ENDBRANCH   4   6
BRANCH   5   9
ATOM      9  S   UNL     1       4.957   4.595  18.765  0.00  0.00    +0.000 S 
ATOM     10  O   UNL     1       6.012   5.077  19.640  0.00  0.00    +0.000 OA
ATOM     11  O   UNL     1       4.263   3.357  19.056  0.00  0.00    +0.000 OA
BRANCH   9  12
ATOM     12  C   UNL     1       5.666   4.477  17.148  0.00  0.00    +0.000 A 
ATOM     13  C   UNL     1       4.932   3.989  16.064  0.00  0.00    +0.000 A 
ATOM     14  C   UNL     1       5.515   3.978  14.794  0.00  0.00    +0.000 A 
ATOM     15  C   UNL     1       6.814   4.457  14.609  0.00  0.00    +0.000 A 
ATOM     16  C   UNL     1       7.539   4.954  15.691  0.00  0.00    +0.000 A 
ATOM     17  C   UNL     1       6.966   4.964  16.964  0.00  0.00    +0.000 A 
ENDBRANCH   9  12
ENDBRANCH   5   9
BRANCH   1  19
ATOM     18  C   UNL     1       0.924   3.887  20.114  0.00  0.00    +0.000 C 
ATOM     19  S   UNL     1       2.173   4.875  20.964  0.00  0.00    +0.000 S 
ENDBRANCH   1  19
BRANCH   3  20
ATOM     20  C   UNL     1       2.155   8.954  17.941  0.00  0.00    +0.000 C 
BRANCH  20  21
ATOM     21  C   UNL     1       1.073   9.562  18.804  0.00  0.00    +0.000 C 
ATOM     22  O   UNL     1      -0.065   9.724  18.360  0.00  0.00    +0.000 OA
ATOM     23  N   UNL     1       1.474   9.920  20.083  0.00  0.00    +0.000 N 
ATOM     24  H   UNL     1       2.440  10.223  20.187  0.00  0.00    +0.000 HD
BRANCH  23  25
ATOM     25  C   UNL     1       0.573  10.435  21.046  0.00  0.00    +0.000 A 
ATOM     26  C   UNL     1       0.174  11.775  21.061  0.00  0.00    +0.000 A 
ATOM     27  C   UNL     1      -0.712  12.234  22.044  0.00  0.00    +0.000 A 
ATOM     28  C   UNL     1      -1.178  11.365  23.032  0.00  0.00    +0.000 A 
ATOM     29  C   UNL     1      -0.792  10.026  23.016  0.00  0.00    +0.000 A 
ATOM     30  C   UNL     1       0.052   9.566  22.009  0.00  0.00    +0.000 A 
ATOM     31  F   UNL     1       0.421   8.276  22.004  0.00  0.00    +0.000 F 
ENDBRANCH  23  25
ENDBRANCH  20  21
ENDBRANCH   3  20
TORSDOF 7
ENDMDL
MODEL 3
REMARK VINA RESULT:      -7.3      3.418      8.167
REMARK  Name = 
REMARK  8 active torsions:
REMARK  status: ('A' for Active; 'I' for Inactive)
REMARK    1  A    between atoms: C_1  and  S_2
REMARK    2  A    between atoms: S_2  and  C_3
REMARK    3  A    between atoms: N_5  and  C_6
REMARK    4  A    between atoms: C_6  and  C_7
REMARK    5  A    between atoms: N_9  and  C_10
REMARK    6  A    between atoms: C_17  and  N_18
REMARK    7  A    between atoms: C_19  and  S_20
REMARK    8  A    between atoms: S_20  and  C_23
REMARK                            x       y       z     vdW  Elec       q    Type
REMARK                         _______ _______ _______ _____ _____    ______ ____
ROOT
ATOM      1  C   UNL     1       2.724   5.844  19.650  0.00  0.00    +0.000 A 
ATOM      2  N   UNL     1       2.082   7.010  19.504  0.00  0.00    +0.000 NA
ATOM      3  N   UNL     1       2.697   7.601  18.456  0.00  0.00    +0.000 N 
ATOM      4  C   UNL     1       3.674   6.811  17.887  0.00  0.00    +0.000 A 
ATOM      5  C   UNL     1       3.761   5.694  18.703  0.00  0.00    +0.000 A 
ENDROOT
BRANCH   4   6
ATOM      6  N   UNL     1       4.345   7.152  16.767  0.00  0.00    +0.000 N 
ATOM      7  H   UNL     1       4.079   6.810  15.839  0.00  0.00    +0.000 HD
ATOM      8  H   UNL     1       4.723   8.105  16.704  0.00  0.00    +0.000 HD
ENDBRANCH   4   6
BRANCH   5   9
ATOM      9  S   UNL     1       4.921   4.437  18.583  0.00  0.00    +0.000 S 
ATOM     10  O   UNL     1       5.978   4.819  19.504  0.00  0.00    +0.000 OA
ATOM     11  O   UNL     1       4.189   3.200  18.771  0.00  0.00    +0.000 OA
BRANCH   9  12
ATOM     12  C   UNL     1       5.647   4.422  16.969  0.00  0.00    +0.000 A 
ATOM     13  C   UNL     1       4.928   3.995  15.850  0.00  0.00    +0.000 A 
ATOM     14  C   UNL     1       5.524   4.066  14.588  0.00  0.00    +0.000 A 
ATOM     15  C   UNL     1       6.821   4.565  14.446  0.00  0.00    +0.000 A 
ATOM     16  C   UNL     1       7.530   5.000  15.564  0.00  0.00    +0.000 A 
ATOM     17  C   UNL     1       6.945   4.929  16.828  0.00  0.00    +0.000 A 
ENDBRANCH   9  12
ENDBRANCH   5   9
BRANCH   1  19
ATOM     18  C   UNL     1       0.933   3.753  19.999  0.00  0.00    +0.000 C 
ATOM     19  S   UNL     1       2.204   4.698  20.866  0.00  0.00    +0.000 S 
ENDBRANCH   1  19
BRANCH   3  20
ATOM     20  C   UNL     1       2.215   8.895  18.010  0.00  0.00    +0.000 C 
BRANCH  20  21
ATOM     21  C   UNL     1       1.135   9.471  18.897  0.00  0.00    +0.000 C 
ATOM     22  O   UNL     1      -0.002   9.654  18.459  0.00  0.00    +0.000 OA
ATOM     23  N   UNL     1       1.537   9.777  20.189  0.00  0.00    +0.000 N 
ATOM     24  H   UNL     1       2.503  10.073  20.305  0.00  0.00    +0.000 HD
BRANCH  23  25
ATOM     25  C   UNL     1       0.637  10.255  21.172  0.00  0.00    +0.000 A 
ATOM     26  C   UNL     1       0.087   9.425  22.154  0.00  0.00    +0.000 A 
ATOM     27  C   UNL     1      -0.807   9.948  23.096  0.00  0.00    +0.000 A 
ATOM     28  C   UNL     1      -1.179  11.292  23.043  0.00  0.00    +0.000 A 
ATOM     29  C   UNL     1      -0.627  12.127  22.073  0.00  0.00    +0.000 A 
ATOM     30  C   UNL     1       0.297  11.611  21.168  0.00  0.00    +0.000 A 
ATOM     31  F   UNL     1       0.821  12.421  20.235  0.00  0.00    +0.000 F 
ENDBRANCH  23  25
ENDBRANCH  20  21
ENDBRANCH   3  20
TORSDOF 7
ENDMDL
MODEL 4
REMARK VINA RESULT:      -6.9      5.118      8.633
REMARK  Name = 
REMARK  8 active torsions:
REMARK  status: ('A' for Active; 'I' for Inactive)
REMARK    1  A    between atoms: C_1  and  S_2
REMARK    2  A    between atoms: S_2  and  C_3
REMARK    3  A    between atoms: N_5  and  C_6
REMARK    4  A    between atoms: C_6  and  C_7
REMARK    5  A    between atoms: N_9  and  C_10
REMARK    6  A    between atoms: C_17  and  N_18
REMARK    7  A    between atoms: C_19  and  S_20
REMARK    8  A    between atoms: S_20  and  C_23
REMARK                            x       y       z     vdW  Elec       q    Type
REMARK                         _______ _______ _______ _____ _____    ______ ____
ROOT
ATOM      1  C   UNL     1       4.021   6.073  17.828  0.00  0.00    +0.000 A 
ATOM      2  N   UNL     1       5.078   6.873  17.638  0.00  0.00    +0.000 NA
ATOM      3  N   UNL     1       5.991   6.082  17.034  0.00  0.00    +0.000 N 
ATOM      4  C   UNL     1       5.520   4.813  16.773  0.00  0.00    +0.000 A 
ATOM      5  C   UNL     1       4.263   4.764  17.357  0.00  0.00    +0.000 A 
ENDROOT
BRANCH   4   6
ATOM      6  N   UNL     1       6.219   3.888  16.085  0.00  0.00    +0.000 N 
ATOM      7  H   UNL     1       6.878   3.246  16.536  0.00  0.00    +0.000 HD
ATOM      8  H   UNL     1       5.760   3.428  15.290  0.00  0.00    +0.000 HD
ENDBRANCH   4   6
BRANCH   5   9
ATOM      9  S   UNL     1       3.262   3.378  17.496  0.00  0.00    +0.000 S 
ATOM     10  O   UNL     1       2.129   3.651  16.628  0.00  0.00    +0.000 OA
ATOM     11  O   UNL     1       4.124   2.239  17.250  0.00  0.00    +0.000 OA
BRANCH   9  12
ATOM     12  C   UNL     1       2.614   3.250  19.137  0.00  0.00    +0.000 A 
ATOM     13  C   UNL     1       1.262   3.478  19.409  0.00  0.00    +0.000 A 
ATOM     14  C   UNL     1       0.787   3.299  20.710  0.00  0.00    +0.000 A 
ATOM     15  C   UNL     1       1.651   2.889  21.728  0.00  0.00    +0.000 A 
ATOM     16  C   UNL     1       2.997   2.652  21.451  0.00  0.00    +0.000 A 
ATOM     17  C   UNL     1       3.481   2.832  20.156  0.00  0.00    +0.000 A 
ENDBRANCH   9  12
ENDBRANCH   5   9
BRANCH   1  19
ATOM     18  C   UNL     1       2.447   8.359  17.804  0.00  0.00    +0.000 C 
ATOM     19  S   UNL     1       2.549   6.708  18.529  0.00  0.00    +0.000 S 
ENDBRANCH   1  19
BRANCH   3  20
ATOM     20  C   UNL     1       7.268   6.661  16.658  0.00  0.00    +0.000 C 
BRANCH  20  21
ATOM     21  C   UNL     1       7.841   7.583  17.709  0.00  0.00    +0.000 C 
ATOM     22  O   UNL     1       8.225   7.136  18.792  0.00  0.00    +0.000 OA
ATOM     23  N   UNL     1       7.874   8.925  17.358  0.00  0.00    +0.000 N 
ATOM     24  H   UNL     1       7.132   9.251  16.744  0.00  0.00    +0.000 HD
BRANCH  23  25
ATOM     25  C   UNL     1       8.445   9.915  18.194  0.00  0.00    +0.000 A 
ATOM     26  C   UNL     1       9.192   9.598  19.333  0.00  0.00    +0.000 A 
ATOM     27  C   UNL     1       9.725  10.618  20.130  0.00  0.00    +0.000 A 
ATOM     28  C   UNL     1       9.491  11.956  19.812  0.00  0.00    +0.000 A 
ATOM     29  C   UNL     1       8.756  12.279  18.672  0.00  0.00    +0.000 A 
ATOM     30  C   UNL     1       8.268  11.260  17.858  0.00  0.00    +0.000 A 
ATOM     31  F   UNL     1       7.558  11.580  16.765  0.00  0.00    +0.000 F 
ENDBRANCH  23  25
ENDBRANCH  20  21
ENDBRANCH   3  20
TORSDOF 7
ENDMDL
MODEL 5
REMARK VINA RESULT:      -6.9      1.044      1.659
REMARK  Name = 
REMARK  8 active torsions:
REMARK  status: ('A' for Active; 'I' for Inactive)
REMARK    1  A    between atoms: C_1  and  S_2
REMARK    2  A    between atoms: S_2  and  C_3
REMARK    3  A    between atoms: N_5  and  C_6
REMARK    4  A    between atoms: C_6  and  C_7
REMARK    5  A    between atoms: N_9  and  C_10
REMARK    6  A    between atoms: C_17  and  N_18
REMARK    7  A    between atoms: C_19  and  S_20
REMARK    8  A    between atoms: S_20  and  C_23
REMARK                            x       y       z     vdW  Elec       q    Type
REMARK                         _______ _______ _______ _____ _____    ______ ____
ROOT
ATOM      1  C   UNL     1       0.555   9.528  20.154  0.00  0.00    +0.000 A 
ATOM      2  N   UNL     1       1.250   8.494  19.663  0.00  0.00    +0.000 NA
ATOM      3  N   UNL     1       1.928   9.015  18.617  0.00  0.00    +0.000 N 
ATOM      4  C   UNL     1       1.734  10.372  18.468  0.00  0.00    +0.000 A 
ATOM      5  C   UNL     1       0.777  10.709  19.414  0.00  0.00    +0.000 A 
ENDROOT
BRANCH   4   6
ATOM      6  N   UNL     1       2.390  11.120  17.558  0.00  0.00    +0.000 N 
ATOM      7  H   UNL     1       1.931  11.506  16.728  0.00  0.00    +0.000 HD
ATOM      8  H   UNL     1       3.118  11.761  17.895  0.00  0.00    +0.000 HD
ENDBRANCH   4   6
BRANCH   5   9
ATOM      9  S   UNL     1       0.017  12.236  19.588  0.00  0.00    +0.000 S 
ATOM     10  O   UNL     1       0.105  12.534  21.008  0.00  0.00    +0.000 OA
ATOM     11  O   UNL     1       0.642  13.106  18.611  0.00  0.00    +0.000 OA
BRANCH   9  12
ATOM     12  C   UNL     1      -1.707  12.112  19.211  0.00  0.00    +0.000 A 
ATOM     13  C   UNL     1      -2.158  11.442  18.071  0.00  0.00    +0.000 A 
ATOM     14  C   UNL     1      -3.533  11.314  17.853  0.00  0.00    +0.000 A 
ATOM     15  C   UNL     1      -4.446  11.844  18.767  0.00  0.00    +0.000 A 
ATOM     16  C   UNL     1      -3.991  12.502  19.909  0.00  0.00    +0.000 A 
ATOM     17  C   UNL     1      -2.621  12.639  20.133  0.00  0.00    +0.000 A 
ENDBRANCH   9  12
ENDBRANCH   5   9
BRANCH   1  19
ATOM     18  C   UNL     1       0.790   9.417  22.918  0.00  0.00    +0.000 C 
ATOM     19  S   UNL     1      -0.428   9.327  21.588  0.00  0.00    +0.000 S 
ENDBRANCH   1  19
BRANCH   3  20
ATOM     20  C   UNL     1       2.818   8.147  17.867  0.00  0.00    +0.000 C 
BRANCH  20  21
ATOM     21  C   UNL     1       2.929   6.756  18.447  0.00  0.00    +0.000 C 
ATOM     22  O   UNL     1       3.847   6.471  19.218  0.00  0.00    +0.000 OA
ATOM     23  N   UNL     1       1.949   5.867  18.032  0.00  0.00    +0.000 N 
ATOM     24  H   UNL     1       1.586   5.998  17.090  0.00  0.00    +0.000 HD
BRANCH  23  25
ATOM     25  C   UNL     1       1.860   4.545  18.533  0.00  0.00    +0.000 A 
ATOM     26  C   UNL     1       1.203   4.238  19.729  0.00  0.00    +0.000 A 
ATOM     27  C   UNL     1       1.154   2.915  20.185  0.00  0.00    +0.000 A 
ATOM     28  C   UNL     1       1.785   1.900  19.466  0.00  0.00    +0.000 A 
ATOM     29  C   UNL     1       2.433   2.197  18.268  0.00  0.00    +0.000 A 
ATOM     30  C   UNL     1       2.438   3.508  17.797  0.00  0.00    +0.000 A 
ATOM     31  F   UNL     1       3.068   3.786  16.645  0.00  0.00    +0.000 F 
ENDBRANCH  23  25
ENDBRANCH  20  21
ENDBRANCH   3  20
TORSDOF 7
ENDMDL
MODEL 6
REMARK VINA RESULT:      -6.9      3.324      8.103
REMARK  Name = 
REMARK  8 active torsions:
REMARK  status: ('A' for Active; 'I' for Inactive)
REMARK    1  A    between atoms: C_1  and  S_2
REMARK    2  A    between atoms: S_2  and  C_3
REMARK    3  A    between atoms: N_5  and  C_6
REMARK    4  A    between atoms: C_6  and  C_7
REMARK    5  A    between atoms: N_9  and  C_10
REMARK    6  A    between atoms: C_17  and  N_18
REMARK    7  A    between atoms: C_19  and  S_20
REMARK    8  A    between atoms: S_20  and  C_23
REMARK                            x       y       z     vdW  Elec       q    Type
REMARK                         _______ _______ _______ _____ _____    ______ ____
ROOT
ATOM      1  C   UNL     1       1.806   4.801  19.889  0.00  0.00    +0.000 A 
ATOM      2  N   UNL     1       1.565   5.997  20.441  0.00  0.00    +0.000 NA
ATOM      3  N   UNL     1       2.280   6.861  19.688  0.00  0.00    +0.000 N 
ATOM      4  C   UNL     1       2.920   6.254  18.627  0.00  0.00    +0.000 A 
ATOM      5  C   UNL     1       2.687   4.896  18.790  0.00  0.00    +0.000 A 
ENDROOT
BRANCH   4   6
ATOM      6  N   UNL     1       3.604   6.934  17.685  0.00  0.00    +0.000 N 
ATOM      7  H   UNL     1       3.727   6.582  16.731  0.00  0.00    +0.000 HD
ATOM      8  H   UNL     1       3.531   7.958  17.682  0.00  0.00    +0.000 HD
ENDBRANCH   4   6
BRANCH   5   9
ATOM      9  S   UNL     1       3.374   3.630  17.860  0.00  0.00    +0.000 S 
ATOM     10  O   UNL     1       3.731   2.609  18.830  0.00  0.00    +0.000 OA
ATOM     11  O   UNL     1       2.418   3.347  16.807  0.00  0.00    +0.000 OA
BRANCH   9  12
ATOM     12  C   UNL     1       4.887   4.164  17.117  0.00  0.00    +0.000 A 
ATOM     13  C   UNL     1       6.035   4.394  17.881  0.00  0.00    +0.000 A 
ATOM     14  C   UNL     1       7.223   4.750  17.238  0.00  0.00    +0.000 A 
ATOM     15  C   UNL     1       7.267   4.868  15.848  0.00  0.00    +0.000 A 
ATOM     16  C   UNL     1       6.123   4.628  15.088  0.00  0.00    +0.000 A 
ATOM     17  C   UNL     1       4.930   4.276  15.721  0.00  0.00    +0.000 A 
ENDBRANCH   9  12
ENDBRANCH   5   9
BRANCH   1  19
ATOM     18  C   UNL     1       2.099   2.867  21.860  0.00  0.00    +0.000 C 
ATOM     19  S   UNL     1       1.011   3.369  20.508  0.00  0.00    +0.000 S 
ENDBRANCH   1  19
BRANCH   3  20
ATOM     20  C   UNL     1       2.217   8.275  20.008  0.00  0.00    +0.000 C 
BRANCH  20  21
ATOM     21  C   UNL     1       1.321   9.061  19.078  0.00  0.00    +0.000 C 
ATOM     22  O   UNL     1       1.686   9.322  17.930  0.00  0.00    +0.000 OA
ATOM     23  N   UNL     1       0.109   9.456  19.626  0.00  0.00    +0.000 N 
ATOM     24  H   UNL     1       0.105   9.653  20.624  0.00  0.00    +0.000 HD
BRANCH  23  25
ATOM     25  C   UNL     1      -0.880  10.135  18.873  0.00  0.00    +0.000 A 
ATOM     26  C   UNL     1      -1.287   9.704  17.607  0.00  0.00    +0.000 A 
ATOM     27  C   UNL     1      -2.262  10.420  16.900  0.00  0.00    +0.000 A 
ATOM     28  C   UNL     1      -2.810  11.583  17.441  0.00  0.00    +0.000 A 
ATOM     29  C   UNL     1      -2.416  12.012  18.708  0.00  0.00    +0.000 A 
ATOM     30  C   UNL     1      -1.480  11.270  19.424  0.00  0.00    +0.000 A 
ATOM     31  F   UNL     1      -1.103  11.693  20.640  0.00  0.00    +0.000 F 
ENDBRANCH  23  25
ENDBRANCH  20  21
ENDBRANCH   3  20
TORSDOF 7
ENDMDL
MODEL 7
REMARK VINA RESULT:      -6.8      3.102      8.027
REMARK  Name = 
REMARK  8 active torsions:
REMARK  status: ('A' for Active; 'I' for Inactive)
REMARK    1  A    between atoms: C_1  and  S_2
REMARK    2  A    between atoms: S_2  and  C_3
REMARK    3  A    between atoms: N_5  and  C_6
REMARK    4  A    between atoms: C_6  and  C_7
REMARK    5  A    between atoms: N_9  and  C_10
REMARK    6  A    between atoms: C_17  and  N_18
REMARK    7  A    between atoms: C_19  and  S_20
REMARK    8  A    between atoms: S_20  and  C_23
REMARK                            x       y       z     vdW  Elec       q    Type
REMARK                         _______ _______ _______ _____ _____    ______ ____
ROOT
ATOM      1  C   UNL     1       2.590   6.035  19.745  0.00  0.00    +0.000 A 
ATOM      2  N   UNL     1       1.810   7.100  19.521  0.00  0.00    +0.000 NA
ATOM      3  N   UNL     1       2.377   7.711  18.458  0.00  0.00    +0.000 N 
ATOM      4  C   UNL     1       3.463   7.025  17.956  0.00  0.00    +0.000 A 
ATOM      5  C   UNL     1       3.666   5.970  18.834  0.00  0.00    +0.000 A 
ENDROOT
BRANCH   4   6
ATOM      6  N   UNL     1       4.121   7.392  16.837  0.00  0.00    +0.000 N 
ATOM      7  H   UNL     1       3.825   8.182  16.258  0.00  0.00    +0.000 HD
ATOM      8  H   UNL     1       5.144   7.305  16.828  0.00  0.00    +0.000 HD
ENDBRANCH   4   6
BRANCH   5   9
ATOM      9  S   UNL     1       4.979   4.868  18.810  0.00  0.00    +0.000 S 
ATOM     10  O   UNL     1       6.000   5.489  19.637  0.00  0.00    +0.000 OA
ATOM     11  O   UNL     1       4.422   3.578  19.168  0.00  0.00    +0.000 OA
BRANCH   9  12
ATOM     12  C   UNL     1       5.658   4.755  17.180  0.00  0.00    +0.000 A 
ATOM     13  C   UNL     1       6.955   5.190  16.897  0.00  0.00    +0.000 A 
ATOM     14  C   UNL     1       7.468   5.018  15.609  0.00  0.00    +0.000 A 
ATOM     15  C   UNL     1       6.696   4.410  14.616  0.00  0.00    +0.000 A 
ATOM     16  C   UNL     1       5.406   3.967  14.905  0.00  0.00    +0.000 A 
ATOM     17  C   UNL     1       4.884   4.139  16.187  0.00  0.00    +0.000 A 
ENDBRANCH   9  12
ENDBRANCH   5   9
BRANCH   1  19
ATOM     18  C   UNL     1       0.951   3.842  20.208  0.00  0.00    +0.000 C 
ATOM     19  S   UNL     1       2.181   4.894  21.008  0.00  0.00    +0.000 S 
ENDBRANCH   1  19
BRANCH   3  20
ATOM     20  C   UNL     1       1.750   8.909  17.931  0.00  0.00    +0.000 C 
BRANCH  20  21
ATOM     21  C   UNL     1       1.294   9.869  19.005  0.00  0.00    +0.000 C 
ATOM     22  O   UNL     1       1.907  10.919  19.208  0.00  0.00    +0.000 OA
ATOM     23  N   UNL     1       0.178   9.461  19.722  0.00  0.00    +0.000 N 
ATOM     24  H   UNL     1       0.064   8.459  19.853  0.00  0.00    +0.000 HD
BRANCH  23  25
ATOM     25  C   UNL     1      -0.426  10.272  20.713  0.00  0.00    +0.000 A 
ATOM     26  C   UNL     1      -1.148  11.428  20.402  0.00  0.00    +0.000 A 
ATOM     27  C   UNL     1      -1.716  12.199  21.423  0.00  0.00    +0.000 A 
ATOM     28  C   UNL     1      -1.540  11.837  22.759  0.00  0.00    +0.000 A 
ATOM     29  C   UNL     1      -0.831  10.679  23.076  0.00  0.00    +0.000 A 
ATOM     30  C   UNL     1      -0.308   9.892  22.053  0.00  0.00    +0.000 A 
ATOM     31  F   UNL     1       0.377   8.782  22.368  0.00  0.00    +0.000 F 
ENDBRANCH  23  25
ENDBRANCH  20  21
ENDBRANCH   3  20
TORSDOF 7
ENDMDL
MODEL 8
REMARK VINA RESULT:      -6.7      1.497      1.723
REMARK  Name = 
REMARK  8 active torsions:
REMARK  status: ('A' for Active; 'I' for Inactive)
REMARK    1  A    between atoms: C_1  and  S_2
REMARK    2  A    between atoms: S_2  and  C_3
REMARK    3  A    between atoms: N_5  and  C_6
REMARK    4  A    between atoms: C_6  and  C_7
REMARK    5  A    between atoms: N_9  and  C_10
REMARK    6  A    between atoms: C_17  and  N_18
REMARK    7  A    between atoms: C_19  and  S_20
REMARK    8  A    between atoms: S_20  and  C_23
REMARK                            x       y       z     vdW  Elec       q    Type
REMARK                         _______ _______ _______ _____ _____    ______ ____
ROOT
ATOM      1  C   UNL     1       0.491   9.330  20.470  0.00  0.00    +0.000 A 
ATOM      2  N   UNL     1       1.292   8.324  20.095  0.00  0.00    +0.000 NA
ATOM      3  N   UNL     1       1.855   8.758  18.946  0.00  0.00    +0.000 N 
ATOM      4  C   UNL     1       1.482  10.043  18.612  0.00  0.00    +0.000 A 
ATOM      5  C   UNL     1       0.529  10.402  19.553  0.00  0.00    +0.000 A 
ENDROOT
BRANCH   4   6
ATOM      6  N   UNL     1       1.999  10.717  17.564  0.00  0.00    +0.000 N 
ATOM      7  H   UNL     1       3.000  10.914  17.475  0.00  0.00    +0.000 HD
ATOM      8  H   UNL     1       1.580  10.565  16.639  0.00  0.00    +0.000 HD
ENDBRANCH   4   6
BRANCH   5   9
ATOM      9  S   UNL     1      -0.413  11.835  19.547  0.00  0.00    +0.000 S 
ATOM     10  O   UNL     1      -0.509  12.221  20.945  0.00  0.00    +0.000 OA
ATOM     11  O   UNL     1       0.210  12.716  18.579  0.00  0.00    +0.000 OA
BRANCH   9  12
ATOM     12  C   UNL     1      -2.062  11.485  19.011  0.00  0.00    +0.000 A 
ATOM     13  C   UNL     1      -3.145  12.267  19.422  0.00  0.00    +0.000 A 
ATOM     14  C   UNL     1      -4.418  11.990  18.918  0.00  0.00    +0.000 A 
ATOM     15  C   UNL     1      -4.606  10.948  18.007  0.00  0.00    +0.000 A 
ATOM     16  C   UNL     1      -3.521  10.177  17.591  0.00  0.00    +0.000 A 
ATOM     17  C   UNL     1      -2.247  10.443  18.093  0.00  0.00    +0.000 A 
ENDBRANCH   9  12
ENDBRANCH   5   9
BRANCH   1  19
ATOM     18  C   UNL     1       0.907   9.362  23.215  0.00  0.00    +0.000 C 
ATOM     19  S   UNL     1      -0.399   9.233  21.974  0.00  0.00    +0.000 S 
ENDBRANCH   1  19
BRANCH   3  20
ATOM     20  C   UNL     1       2.817   7.899  18.279  0.00  0.00    +0.000 C 
BRANCH  20  21
ATOM     21  C   UNL     1       2.630   6.433  18.592  0.00  0.00    +0.000 C 
ATOM     22  O   UNL     1       2.042   5.694  17.801  0.00  0.00    +0.000 OA
ATOM     23  N   UNL     1       3.147   6.023  19.813  0.00  0.00    +0.000 N 
ATOM     24  H   UNL     1       3.137   6.709  20.563  0.00  0.00    +0.000 HD
BRANCH  23  25
ATOM     25  C   UNL     1       3.125   4.670  20.232  0.00  0.00    +0.000 A 
ATOM     26  C   UNL     1       2.186   4.183  21.146  0.00  0.00    +0.000 A 
ATOM     27  C   UNL     1       2.216   2.838  21.535  0.00  0.00    +0.000 A 
ATOM     28  C   UNL     1       3.200   1.983  21.036  0.00  0.00    +0.000 A 
ATOM     29  C   UNL     1       4.132   2.460  20.116  0.00  0.00    +0.000 A 
ATOM     30  C   UNL     1       4.068   3.787  19.699  0.00  0.00    +0.000 A 
ATOM     31  F   UNL     1       4.972   4.239  18.816  0.00  0.00    +0.000 F 
ENDBRANCH  23  25
ENDBRANCH  20  21
ENDBRANCH   3  20
TORSDOF 7
ENDMDL
MODEL 9
REMARK VINA RESULT:      -6.7      4.749      8.491
REMARK  Name = 
REMARK  8 active torsions:
REMARK  status: ('A' for Active; 'I' for Inactive)
REMARK    1  A    between atoms: C_1  and  S_2
REMARK    2  A    between atoms: S_2  and  C_3
REMARK    3  A    between atoms: N_5  and  C_6
REMARK    4  A    between atoms: C_6  and  C_7
REMARK    5  A    between atoms: N_9  and  C_10
REMARK    6  A    between atoms: C_17  and  N_18
REMARK    7  A    between atoms: C_19  and  S_20
REMARK    8  A    between atoms: S_20  and  C_23
REMARK                            x       y       z     vdW  Elec       q    Type
REMARK                         _______ _______ _______ _____ _____    ______ ____
ROOT
ATOM      1  C   UNL     1       3.770   6.433  18.007  0.00  0.00    +0.000 A 
ATOM      2  N   UNL     1       4.920   7.089  17.806  0.00  0.00    +0.000 NA
ATOM      3  N   UNL     1       5.670   6.232  17.078  0.00  0.00    +0.000 N 
ATOM      4  C   UNL     1       5.001   5.070  16.754  0.00  0.00    +0.000 A 
ATOM      5  C   UNL     1       3.788   5.149  17.420  0.00  0.00    +0.000 A 
ENDROOT
BRANCH   4   6
ATOM      6  N   UNL     1       5.515   4.118  15.947  0.00  0.00    +0.000 N 
ATOM      7  H   UNL     1       5.524   3.126  16.201  0.00  0.00    +0.000 HD
ATOM      8  H   UNL     1       5.393   4.228  14.934  0.00  0.00    +0.000 HD
ENDBRANCH   4   6
BRANCH   5   9
ATOM      9  S   UNL     1       2.603   3.913  17.522  0.00  0.00    +0.000 S 
ATOM     10  O   UNL     1       1.351   4.573  17.193  0.00  0.00    +0.000 OA
ATOM     11  O   UNL     1       3.099   2.820  16.709  0.00  0.00    +0.000 OA
BRANCH   9  12
ATOM     12  C   UNL     1       2.446   3.348  19.190  0.00  0.00    +0.000 A 
ATOM     13  C   UNL     1       3.521   2.769  19.870  0.00  0.00    +0.000 A 
ATOM     14  C   UNL     1       3.365   2.400  21.208  0.00  0.00    +0.000 A 
ATOM     15  C   UNL     1       2.150   2.613  21.863  0.00  0.00    +0.000 A 
ATOM     16  C   UNL     1       1.083   3.201  21.185  0.00  0.00    +0.000 A 
ATOM     17  C   UNL     1       1.228   3.569  19.847  0.00  0.00    +0.000 A 
ENDBRANCH   9  12
ENDBRANCH   5   9
BRANCH   1  19
ATOM     18  C   UNL     1       2.093   8.636  17.813  0.00  0.00    +0.000 C 
ATOM     19  S   UNL     1       2.452   7.208  18.858  0.00  0.00    +0.000 S 
ENDBRANCH   1  19
BRANCH   3  20
ATOM     20  C   UNL     1       6.994   6.653  16.659  0.00  0.00    +0.000 C 
BRANCH  20  21
ATOM     21  C   UNL     1       7.686   7.544  17.665  0.00  0.00    +0.000 C 
ATOM     22  O   UNL     1       8.171   7.068  18.693  0.00  0.00    +0.000 OA
ATOM     23  N   UNL     1       7.705   8.892  17.340  0.00  0.00    +0.000 N 
ATOM     24  H   UNL     1       6.910   9.243  16.812  0.00  0.00    +0.000 HD
BRANCH  23  25
ATOM     25  C   UNL     1       8.375   9.856  18.133  0.00  0.00    +0.000 A 
ATOM     26  C   UNL     1       9.171   9.505  19.228  0.00  0.00    +0.000 A 
ATOM     27  C   UNL     1       9.803  10.500  19.985  0.00  0.00    +0.000 A 
ATOM     28  C   UNL     1       9.617  11.847  19.672  0.00  0.00    +0.000 A 
ATOM     29  C   UNL     1       8.833  12.202  18.575  0.00  0.00    +0.000 A 
ATOM     30  C   UNL     1       8.245  11.207  17.799  0.00  0.00    +0.000 A 
ATOM     31  F   UNL     1       7.489  11.558  16.748  0.00  0.00    +0.000 F 
ENDBRANCH  23  25
ENDBRANCH  20  21
ENDBRANCH   3  20
TORSDOF 7
ENDMDL
