MODEL 1
REMARK VINA RESULT:      -8.5      0.000      0.000
REMARK  Name = 
REMARK  7 active torsions:
REMARK  status: ('A' for Active; 'I' for Inactive)
REMARK    1  A    between atoms: C_2  and  C_4
REMARK    2  A    between atoms: C_13  and  C_15
REMARK    3  A    between atoms: C_15  and  C_16
REMARK    4  A    between atoms: C_16  and  C_17
REMARK    5  A    between atoms: C_24  and  O_26
REMARK    6  A    between atoms: O_26  and  C_27
REMARK    7  A    between atoms: C_27  and  C_28
REMARK                            x       y       z     vdW  Elec       q    Type
REMARK                         _______ _______ _______ _____ _____    ______ ____
ROOT
ATOM      1  C   UNL     1       2.458   4.731  18.810  0.00  0.00    +0.000 C 
ATOM      2  C   UNL     1       1.500   3.989  19.787  0.00  0.00    +0.000 C 
ATOM      3  O   UNL     1       0.672   4.580  20.480  0.00  0.00    +0.000 OA
ATOM      4  O   UNL     1       1.604   2.639  19.892  0.00  0.00    +0.000 OA
ATOM      5  C   UNL     1       2.405   1.930  18.943  0.00  0.00    +0.000 C 
ATOM      6  C   UNL     1       3.762   2.590  18.808  0.00  0.00    +0.000 C 
ATOM      7  N   UNL     1       3.561   3.924  18.254  0.00  0.00    +0.000 N 
ATOM      8  C   UNL     1       4.264   4.324  17.127  0.00  0.00    +0.000 C 
ATOM      9  O   UNL     1       3.865   5.177  16.355  0.00  0.00    +0.000 OA
ENDROOT
BRANCH   1  10
ATOM     10  C   UNL     1       2.969   5.951  19.611  0.00  0.00    +0.000 C 
BRANCH  10  11
ATOM     11  C   UNL     1       2.300   7.288  19.343  0.00  0.00    +0.000 C 
BRANCH  11  21
ATOM     12  C   UNL     1       0.718   9.671  18.838  0.00  0.00    +0.000 C 
ATOM     13  C   UNL     1      -0.003  11.013  19.025  0.00  0.00    +0.000 C 
ATOM     14  C   UNL     1      -0.450  10.948  20.450  0.00  0.00    +0.000 A 
ATOM     15  C   UNL     1      -1.313  11.828  21.107  0.00  0.00    +0.000 A 
ATOM     16  C   UNL     1      -1.577  11.612  22.460  0.00  0.00    +0.000 A 
ATOM     17  C   UNL     1      -0.979  10.536  23.137  0.00  0.00    +0.000 A 
ATOM     18  C   UNL     1      -0.112   9.667  22.466  0.00  0.00    +0.000 A 
ATOM     19  C   UNL     1       0.154   9.883  21.125  0.00  0.00    +0.000 A 
ATOM     20  N   UNL     1       0.951   9.140  20.235  0.00  0.00    +0.000 N 
ATOM     21  C   UNL     1       1.637   7.961  20.536  0.00  0.00    +0.000 C 
ATOM     22  O   UNL     1       1.780   7.490  21.664  0.00  0.00    +0.000 OA
BRANCH  12  24
ATOM     23  O   UNL     1       2.241   8.878  17.111  0.00  0.00    +0.000 OA
ATOM     24  C   UNL     1       1.958   9.838  17.943  0.00  0.00    +0.000 C 
ATOM     25  O   UNL     1       2.557  10.952  17.967  0.00  0.00    +0.000 OA
ENDBRANCH  12  24
ENDBRANCH  11  21
ENDBRANCH  10  11
ENDBRANCH   1  10
BRANCH   8  26
ATOM     26  O   UNL     1       5.466   3.687  17.025  0.00  0.00    +0.000 OA
BRANCH  26  27
ATOM     27  C   UNL     1       6.503   4.380  16.303  0.00  0.00    +0.000 C 
BRANCH  27  28
ATOM     28  C   UNL     1       7.115   5.485  17.141  0.00  0.00    +0.000 A 
ATOM     29  C   UNL     1       7.174   6.812  16.691  0.00  0.00    +0.000 A 
ATOM     30  C   UNL     1       7.734   7.808  17.484  0.00  0.00    +0.000 A 
ATOM     31  C   UNL     1       8.250   7.503  18.745  0.00  0.00    +0.000 A 
ATOM     32  C   UNL     1       8.183   6.194  19.215  0.00  0.00    +0.000 A 
ATOM     33  C   UNL     1       7.611   5.194  18.422  0.00  0.00    +0.000 A 
ENDBRANCH  27  28
ENDBRANCH  26  27
ENDBRANCH   8  26
TORSDOF 7
ENDMDL
MODEL 2
REMARK VINA RESULT:      -8.4      1.398      2.397
REMARK  Name = 
REMARK  7 active torsions:
REMARK  status: ('A' for Active; 'I' for Inactive)
REMARK    1  A    between atoms: C_2  and  C_4
REMARK    2  A    between atoms: C_13  and  C_15
REMARK    3  A    between atoms: C_15  and  C_16
REMARK    4  A    between atoms: C_16  and  C_17
REMARK    5  A    between atoms: C_24  and  O_26
REMARK    6  A    between atoms: O_26  and  C_27
REMARK    7  A    between atoms: C_27  and  C_28
REMARK                            x       y       z     vdW  Elec       q    Type
REMARK                         _______ _______ _______ _____ _____    ______ ____
ROOT
ATOM      1  C   UNL     1       2.633   4.987  18.824  0.00  0.00    +0.000 C 
ATOM      2  C   UNL     1       1.761   4.007  19.664  0.00  0.00    +0.000 C 
ATOM      3  O   UNL     1       0.829   4.389  20.369  0.00  0.00    +0.000 OA
ATOM      4  O   UNL     1       2.064   2.684  19.629  0.00  0.00    +0.000 OA
ATOM      5  C   UNL     1       2.998   2.212  18.654  0.00  0.00    +0.000 C 
ATOM      6  C   UNL     1       4.244   3.073  18.664  0.00  0.00    +0.000 C 
ATOM      7  N   UNL     1       3.865   4.418  18.245  0.00  0.00    +0.000 N 
ATOM      8  C   UNL     1       4.541   5.042  17.208  0.00  0.00    +0.000 C 
ATOM      9  O   UNL     1       4.048   5.909  16.511  0.00  0.00    +0.000 OA
ENDROOT
BRANCH   1  10
ATOM     10  C   UNL     1       2.923   6.170  19.778  0.00  0.00    +0.000 C 
BRANCH  10  11
ATOM     11  C   UNL     1       2.245   7.493  19.470  0.00  0.00    +0.000 C 
BRANCH  11  21
ATOM     12  C   UNL     1       0.622   9.829  18.882  0.00  0.00    +0.000 C 
ATOM     13  C   UNL     1      -0.130  11.160  19.024  0.00  0.00    +0.000 C 
ATOM     14  C   UNL     1      -0.596  11.121  20.445  0.00  0.00    +0.000 A 
ATOM     15  C   UNL     1      -1.487  11.999  21.067  0.00  0.00    +0.000 A 
ATOM     16  C   UNL     1      -1.766  11.812  22.420  0.00  0.00    +0.000 A 
ATOM     17  C   UNL     1      -1.156  10.766  23.134  0.00  0.00    +0.000 A 
ATOM     18  C   UNL     1      -0.261   9.899  22.497  0.00  0.00    +0.000 A 
ATOM     19  C   UNL     1       0.020  10.087  21.155  0.00  0.00    +0.000 A 
ATOM     20  N   UNL     1       0.845   9.339  20.295  0.00  0.00    +0.000 N 
ATOM     21  C   UNL     1       1.551   8.182  20.636  0.00  0.00    +0.000 C 
ATOM     22  O   UNL     1       1.687   7.743  21.778  0.00  0.00    +0.000 OA
BRANCH  12  24
ATOM     23  O   UNL     1       2.160   9.044  17.165  0.00  0.00    +0.000 OA
ATOM     24  C   UNL     1       1.871   9.999  18.000  0.00  0.00    +0.000 C 
ATOM     25  O   UNL     1       2.472  11.112  18.038  0.00  0.00    +0.000 OA
ENDBRANCH  12  24
ENDBRANCH  11  21
ENDBRANCH  10  11
ENDBRANCH   1  10
BRANCH   8  26
ATOM     26  O   UNL     1       5.829   4.603  17.104  0.00  0.00    +0.000 OA
BRANCH  26  27
ATOM     27  C   UNL     1       6.720   5.404  16.303  0.00  0.00    +0.000 C 
BRANCH  27  28
ATOM     28  C   UNL     1       6.776   4.905  14.873  0.00  0.00    +0.000 A 
ATOM     29  C   UNL     1       5.923   3.895  14.404  0.00  0.00    +0.000 A 
ATOM     30  C   UNL     1       5.990   3.461  13.085  0.00  0.00    +0.000 A 
ATOM     31  C   UNL     1       6.914   4.025  12.201  0.00  0.00    +0.000 A 
ATOM     32  C   UNL     1       7.756   5.040  12.644  0.00  0.00    +0.000 A 
ATOM     33  C   UNL     1       7.681   5.484  13.968  0.00  0.00    +0.000 A 
ENDBRANCH  27  28
ENDBRANCH  26  27
ENDBRANCH   8  26
TORSDOF 7
ENDMDL
MODEL 3
REMARK VINA RESULT:      -8.3      2.157      7.933
REMARK  Name = 
REMARK  7 active torsions:
REMARK  status: ('A' for Active; 'I' for Inactive)
REMARK    1  A    between atoms: C_2  and  C_4
REMARK    2  A    between atoms: C_13  and  C_15
REMARK    3  A    between atoms: C_15  and  C_16
REMARK    4  A    between atoms: C_16  and  C_17
REMARK    5  A    between atoms: C_24  and  O_26
REMARK    6  A    between atoms: O_26  and  C_27
REMARK    7  A    between atoms: C_27  and  C_28
REMARK                            x       y       z     vdW  Elec       q    Type
REMARK                         _______ _______ _______ _____ _____    ______ ____
ROOT
ATOM      1  C   UNL     1       3.328   2.973  19.665  0.00  0.00    +0.000 C 
ATOM      2  C   UNL     1       3.075   1.751  18.733  0.00  0.00    +0.000 C 
ATOM      3  O   UNL     1       3.955   0.939  18.453  0.00  0.00    +0.000 OA
ATOM      4  O   UNL     1       1.839   1.597  18.193  0.00  0.00    +0.000 OA
ATOM      5  C   UNL     1       0.764   2.406  18.681  0.00  0.00    +0.000 C 
ATOM      6  C   UNL     1       1.182   3.861  18.721  0.00  0.00    +0.000 C 
ATOM      7  N   UNL     1       2.262   3.993  19.693  0.00  0.00    +0.000 N 
ATOM      8  C   UNL     1       2.174   4.931  20.710  0.00  0.00    +0.000 C 
ATOM      9  O   UNL     1       2.752   4.821  21.776  0.00  0.00    +0.000 OA
ENDROOT
BRANCH   1  10
ATOM     10  C   UNL     1       4.682   3.552  19.193  0.00  0.00    +0.000 C 
BRANCH  10  11
ATOM     11  C   UNL     1       4.639   4.721  18.225  0.00  0.00    +0.000 C 
BRANCH  11  21
ATOM     12  C   UNL     1       6.941   5.157  16.509  0.00  0.00    +0.000 C 
ATOM     13  C   UNL     1       7.815   5.419  15.274  0.00  0.00    +0.000 C 
ATOM     14  C   UNL     1       7.067   4.712  14.189  0.00  0.00    +0.000 A 
ATOM     15  C   UNL     1       7.500   4.467  12.883  0.00  0.00    +0.000 A 
ATOM     16  C   UNL     1       6.631   3.819  12.007  0.00  0.00    +0.000 A 
ATOM     17  C   UNL     1       5.350   3.430  12.435  0.00  0.00    +0.000 A 
ATOM     18  C   UNL     1       4.929   3.687  13.744  0.00  0.00    +0.000 A 
ATOM     19  C   UNL     1       5.790   4.335  14.613  0.00  0.00    +0.000 A 
ATOM     20  N   UNL     1       5.616   4.670  15.968  0.00  0.00    +0.000 N 
ATOM     21  C   UNL     1       4.497   4.370  16.751  0.00  0.00    +0.000 C 
ATOM     22  O   UNL     1       3.434   3.917  16.327  0.00  0.00    +0.000 OA
BRANCH  12  24
ATOM     23  O   UNL     1       7.570   6.340  18.542  0.00  0.00    +0.000 OA
ATOM     24  C   UNL     1       6.907   6.393  17.424  0.00  0.00    +0.000 C 
ATOM     25  O   UNL     1       6.349   7.439  16.981  0.00  0.00    +0.000 OA
ENDBRANCH  12  24
ENDBRANCH  11  21
ENDBRANCH  10  11
ENDBRANCH   1  10
BRANCH   8  26
ATOM     26  O   UNL     1       1.409   6.002  20.349  0.00  0.00    +0.000 OA
BRANCH  26  27
ATOM     27  C   UNL     1       2.110   7.233  20.085  0.00  0.00    +0.000 C 
BRANCH  27  28
ATOM     28  C   UNL     1       1.324   8.432  20.578  0.00  0.00    +0.000 A 
ATOM     29  C   UNL     1       1.006   8.606  21.933  0.00  0.00    +0.000 A 
ATOM     30  C   UNL     1       0.291   9.719  22.360  0.00  0.00    +0.000 A 
ATOM     31  C   UNL     1      -0.126  10.687  21.442  0.00  0.00    +0.000 A 
ATOM     32  C   UNL     1       0.197  10.540  20.097  0.00  0.00    +0.000 A 
ATOM     33  C   UNL     1       0.925   9.426  19.669  0.00  0.00    +0.000 A 
ENDBRANCH  27  28
ENDBRANCH  26  27
ENDBRANCH   8  26
TORSDOF 7
ENDMDL
MODEL 4
REMARK VINA RESULT:      -8.1      2.235      7.751
REMARK  Name = 
REMARK  7 active torsions:
REMARK  status: ('A' for Active; 'I' for Inactive)
REMARK    1  A    between atoms: C_2  and  C_4
REMARK    2  A    between atoms: C_13  and  C_15
REMARK    3  A    between atoms: C_15  and  C_16
REMARK    4  A    between atoms: C_16  and  C_17
REMARK    5  A    between atoms: C_24  and  O_26
REMARK    6  A    between atoms: O_26  and  C_27
REMARK    7  A    between atoms: C_27  and  C_28
REMARK                            x       y       z     vdW  Elec       q    Type
REMARK                         _______ _______ _______ _____ _____    ______ ____
ROOT
ATOM      1  C   UNL     1       3.339   2.965  19.677  0.00  0.00    +0.000 C 
ATOM      2  C   UNL     1       3.090   1.702  18.800  0.00  0.00    +0.000 C 
ATOM      3  O   UNL     1       3.969   0.873  18.569  0.00  0.00    +0.000 OA
ATOM      4  O   UNL     1       1.860   1.530  18.253  0.00  0.00    +0.000 OA
ATOM      5  C   UNL     1       0.784   2.367  18.688  0.00  0.00    +0.000 C 
ATOM      6  C   UNL     1       1.211   3.820  18.666  0.00  0.00    +0.000 C 
ATOM      7  N   UNL     1       2.279   3.991  19.644  0.00  0.00    +0.000 N 
ATOM      8  C   UNL     1       2.184   4.976  20.615  0.00  0.00    +0.000 C 
ATOM      9  O   UNL     1       2.749   4.913  21.692  0.00  0.00    +0.000 OA
ENDROOT
BRANCH   1  10
ATOM     10  C   UNL     1       4.703   3.514  19.196  0.00  0.00    +0.000 C 
BRANCH  10  11
ATOM     11  C   UNL     1       4.679   4.689  18.234  0.00  0.00    +0.000 C 
BRANCH  11  21
ATOM     12  C   UNL     1       6.963   5.135  16.496  0.00  0.00    +0.000 C 
ATOM     13  C   UNL     1       7.824   5.404  15.254  0.00  0.00    +0.000 C 
ATOM     14  C   UNL     1       7.063   4.707  14.172  0.00  0.00    +0.000 A 
ATOM     15  C   UNL     1       7.481   4.471  12.860  0.00  0.00    +0.000 A 
ATOM     16  C   UNL     1       6.601   3.831  11.988  0.00  0.00    +0.000 A 
ATOM     17  C   UNL     1       5.325   3.440  12.427  0.00  0.00    +0.000 A 
ATOM     18  C   UNL     1       4.919   3.688  13.742  0.00  0.00    +0.000 A 
ATOM     19  C   UNL     1       5.790   4.328  14.608  0.00  0.00    +0.000 A 
ATOM     20  N   UNL     1       5.631   4.654  15.967  0.00  0.00    +0.000 N 
ATOM     21  C   UNL     1       4.521   4.349  16.759  0.00  0.00    +0.000 C 
ATOM     22  O   UNL     1       3.453   3.901  16.344  0.00  0.00    +0.000 OA
BRANCH  12  24
ATOM     23  O   UNL     1       7.605   6.296  18.538  0.00  0.00    +0.000 OA
ATOM     24  C   UNL     1       6.940   6.364  17.421  0.00  0.00    +0.000 C 
ATOM     25  O   UNL     1       6.390   7.418  16.987  0.00  0.00    +0.000 OA
ENDBRANCH  12  24
ENDBRANCH  11  21
ENDBRANCH  10  11
ENDBRANCH   1  10
BRANCH   8  26
ATOM     26  O   UNL     1       1.431   6.034  20.195  0.00  0.00    +0.000 OA
BRANCH  26  27
ATOM     27  C   UNL     1       1.507   7.234  20.989  0.00  0.00    +0.000 C 
BRANCH  27  28
ATOM     28  C   UNL     1       1.417   8.475  20.122  0.00  0.00    +0.000 A 
ATOM     29  C   UNL     1       1.790   8.466  18.771  0.00  0.00    +0.000 A 
ATOM     30  C   UNL     1       1.690   9.616  17.996  0.00  0.00    +0.000 A 
ATOM     31  C   UNL     1       1.215  10.806  18.554  0.00  0.00    +0.000 A 
ATOM     32  C   UNL     1       0.823  10.828  19.889  0.00  0.00    +0.000 A 
ATOM     33  C   UNL     1       0.914   9.668  20.665  0.00  0.00    +0.000 A 
ENDBRANCH  27  28
ENDBRANCH  26  27
ENDBRANCH   8  26
TORSDOF 7
ENDMDL
MODEL 5
REMARK VINA RESULT:      -8.0      2.170      7.933
REMARK  Name = 
REMARK  7 active torsions:
REMARK  status: ('A' for Active; 'I' for Inactive)
REMARK    1  A    between atoms: C_2  and  C_4
REMARK    2  A    between atoms: C_13  and  C_15
REMARK    3  A    between atoms: C_15  and  C_16
REMARK    4  A    between atoms: C_16  and  C_17
REMARK    5  A    between atoms: C_24  and  O_26
REMARK    6  A    between atoms: O_26  and  C_27
REMARK    7  A    between atoms: C_27  and  C_28
REMARK                            x       y       z     vdW  Elec       q    Type
REMARK                         _______ _______ _______ _____ _____    ______ ____
ROOT
ATOM      1  C   UNL     1       3.314   3.062  19.628  0.00  0.00    +0.000 C 
ATOM      2  C   UNL     1       3.063   1.774  18.789  0.00  0.00    +0.000 C 
ATOM      3  O   UNL     1       3.936   0.929  18.597  0.00  0.00    +0.000 OA
ATOM      4  O   UNL     1       1.837   1.596  18.232  0.00  0.00    +0.000 OA
ATOM      5  C   UNL     1       0.765   2.457  18.626  0.00  0.00    +0.000 C 
ATOM      6  C   UNL     1       1.207   3.905  18.563  0.00  0.00    +0.000 C 
ATOM      7  N   UNL     1       2.265   4.096  19.548  0.00  0.00    +0.000 N 
ATOM      8  C   UNL     1       2.168   5.113  20.486  0.00  0.00    +0.000 C 
ATOM      9  O   UNL     1       2.718   5.080  21.571  0.00  0.00    +0.000 OA
ENDROOT
BRANCH   1  10
ATOM     10  C   UNL     1       4.689   3.581  19.147  0.00  0.00    +0.000 C 
BRANCH  10  11
ATOM     11  C   UNL     1       4.690   4.737  18.162  0.00  0.00    +0.000 C 
BRANCH  11  21
ATOM     12  C   UNL     1       6.970   5.207  16.426  0.00  0.00    +0.000 C 
ATOM     13  C   UNL     1       7.830   5.475  15.182  0.00  0.00    +0.000 C 
ATOM     14  C   UNL     1       7.089   4.743  14.109  0.00  0.00    +0.000 A 
ATOM     15  C   UNL     1       7.519   4.496  12.803  0.00  0.00    +0.000 A 
ATOM     16  C   UNL     1       6.657   3.821  11.938  0.00  0.00    +0.000 A 
ATOM     17  C   UNL     1       5.388   3.409  12.379  0.00  0.00    +0.000 A 
ATOM     18  C   UNL     1       4.971   3.669  13.688  0.00  0.00    +0.000 A 
ATOM     19  C   UNL     1       5.823   4.343  14.546  0.00  0.00    +0.000 A 
ATOM     20  N   UNL     1       5.652   4.687  15.899  0.00  0.00    +0.000 N 
ATOM     21  C   UNL     1       4.545   4.370  16.693  0.00  0.00    +0.000 C 
ATOM     22  O   UNL     1       3.489   3.890  16.280  0.00  0.00    +0.000 OA
BRANCH  12  24
ATOM     23  O   UNL     1       6.252   7.484  16.903  0.00  0.00    +0.000 OA
ATOM     24  C   UNL     1       6.916   6.450  17.330  0.00  0.00    +0.000 C 
ATOM     25  O   UNL     1       7.405   6.354  18.494  0.00  0.00    +0.000 OA
ENDBRANCH  12  24
ENDBRANCH  11  21
ENDBRANCH  10  11
ENDBRANCH   1  10
BRANCH   8  26
ATOM     26  O   UNL     1       1.431   6.164  20.022  0.00  0.00    +0.000 OA
BRANCH  26  27
ATOM     27  C   UNL     1       2.097   7.441  19.962  0.00  0.00    +0.000 C 
BRANCH  27  28
ATOM     28  C   UNL     1       1.256   8.532  20.596  0.00  0.00    +0.000 A 
ATOM     29  C   UNL     1       0.616   9.516  19.830  0.00  0.00    +0.000 A 
ATOM     30  C   UNL     1      -0.156  10.501  20.436  0.00  0.00    +0.000 A 
ATOM     31  C   UNL     1      -0.306  10.528  21.825  0.00  0.00    +0.000 A 
ATOM     32  C   UNL     1       0.308   9.547  22.600  0.00  0.00    +0.000 A 
ATOM     33  C   UNL     1       1.075   8.551  21.989  0.00  0.00    +0.000 A 
ENDBRANCH  27  28
ENDBRANCH  26  27
ENDBRANCH   8  26
TORSDOF 7
ENDMDL
MODEL 6
REMARK VINA RESULT:      -8.0      2.223      7.774
REMARK  Name = 
REMARK  7 active torsions:
REMARK  status: ('A' for Active; 'I' for Inactive)
REMARK    1  A    between atoms: C_2  and  C_4
REMARK    2  A    between atoms: C_13  and  C_15
REMARK    3  A    between atoms: C_15  and  C_16
REMARK    4  A    between atoms: C_16  and  C_17
REMARK    5  A    between atoms: C_24  and  O_26
REMARK    6  A    between atoms: O_26  and  C_27
REMARK    7  A    between atoms: C_27  and  C_28
REMARK                            x       y       z     vdW  Elec       q    Type
REMARK                         _______ _______ _______ _____ _____    ______ ____
ROOT
ATOM      1  C   UNL     1       3.355   2.965  19.631  0.00  0.00    +0.000 C 
ATOM      2  C   UNL     1       3.102   1.710  18.744  0.00  0.00    +0.000 C 
ATOM      3  O   UNL     1       3.978   0.879  18.508  0.00  0.00    +0.000 OA
ATOM      4  O   UNL     1       1.871   1.547  18.195  0.00  0.00    +0.000 OA
ATOM      5  C   UNL     1       0.799   2.384  18.636  0.00  0.00    +0.000 C 
ATOM      6  C   UNL     1       1.230   3.836  18.626  0.00  0.00    +0.000 C 
ATOM      7  N   UNL     1       2.299   3.995  19.606  0.00  0.00    +0.000 N 
ATOM      8  C   UNL     1       2.207   4.972  20.585  0.00  0.00    +0.000 C 
ATOM      9  O   UNL     1       2.770   4.899  21.662  0.00  0.00    +0.000 OA
ENDROOT
BRANCH   1  10
ATOM     10  C   UNL     1       4.721   3.513  19.156  0.00  0.00    +0.000 C 
BRANCH  10  11
ATOM     11  C   UNL     1       4.702   4.679  18.184  0.00  0.00    +0.000 C 
BRANCH  11  21
ATOM     12  C   UNL     1       6.975   5.155  16.440  0.00  0.00    +0.000 C 
ATOM     13  C   UNL     1       7.830   5.432  15.195  0.00  0.00    +0.000 C 
ATOM     14  C   UNL     1       7.081   4.713  14.118  0.00  0.00    +0.000 A 
ATOM     15  C   UNL     1       7.502   4.476  12.808  0.00  0.00    +0.000 A 
ATOM     16  C   UNL     1       6.634   3.814  11.941  0.00  0.00    +0.000 A 
ATOM     17  C   UNL     1       5.365   3.402  12.384  0.00  0.00    +0.000 A 
ATOM     18  C   UNL     1       4.956   3.652  13.698  0.00  0.00    +0.000 A 
ATOM     19  C   UNL     1       5.815   4.314  14.558  0.00  0.00    +0.000 A 
ATOM     20  N   UNL     1       5.652   4.646  15.915  0.00  0.00    +0.000 N 
ATOM     21  C   UNL     1       4.548   4.326  16.711  0.00  0.00    +0.000 C 
ATOM     22  O   UNL     1       3.488   3.855  16.300  0.00  0.00    +0.000 OA
BRANCH  12  24
ATOM     23  O   UNL     1       6.250   7.423  16.952  0.00  0.00    +0.000 OA
ATOM     24  C   UNL     1       6.931   6.390  17.356  0.00  0.00    +0.000 C 
ATOM     25  O   UNL     1       7.445   6.287  18.508  0.00  0.00    +0.000 OA
ENDBRANCH  12  24
ENDBRANCH  11  21
ENDBRANCH  10  11
ENDBRANCH   1  10
BRANCH   8  26
ATOM     26  O   UNL     1       1.458   6.036  20.173  0.00  0.00    +0.000 OA
BRANCH  26  27
ATOM     27  C   UNL     1       1.504   7.215  20.999  0.00  0.00    +0.000 C 
BRANCH  27  28
ATOM     28  C   UNL     1       1.400   8.478  20.166  0.00  0.00    +0.000 A 
ATOM     29  C   UNL     1       0.868   9.667  20.684  0.00  0.00    +0.000 A 
ATOM     30  C   UNL     1       0.791  10.814  19.901  0.00  0.00    +0.000 A 
ATOM     31  C   UNL     1       1.244  10.799  18.579  0.00  0.00    +0.000 A 
ATOM     32  C   UNL     1       1.792   9.632  18.055  0.00  0.00    +0.000 A 
ATOM     33  C   UNL     1       1.878   8.482  18.846  0.00  0.00    +0.000 A 
ENDBRANCH  27  28
ENDBRANCH  26  27
ENDBRANCH   8  26
TORSDOF 7
ENDMDL
MODEL 7
REMARK VINA RESULT:      -8.0      1.909      4.815
REMARK  Name = 
REMARK  7 active torsions:
REMARK  status: ('A' for Active; 'I' for Inactive)
REMARK    1  A    between atoms: C_2  and  C_4
REMARK    2  A    between atoms: C_13  and  C_15
REMARK    3  A    between atoms: C_15  and  C_16
REMARK    4  A    between atoms: C_16  and  C_17
REMARK    5  A    between atoms: C_24  and  O_26
REMARK    6  A    between atoms: O_26  and  C_27
REMARK    7  A    between atoms: C_27  and  C_28
REMARK                            x       y       z     vdW  Elec       q    Type
REMARK                         _______ _______ _______ _____ _____    ______ ____
ROOT
ATOM      1  C   UNL     1       5.033   6.099  17.045  0.00  0.00    +0.000 C 
ATOM      2  C   UNL     1       5.266   6.420  15.539  0.00  0.00    +0.000 C 
ATOM      3  O   UNL     1       4.803   7.422  14.997  0.00  0.00    +0.000 OA
ATOM      4  O   UNL     1       5.989   5.542  14.797  0.00  0.00    +0.000 OA
ATOM      5  C   UNL     1       6.705   4.497  15.462  0.00  0.00    +0.000 C 
ATOM      6  C   UNL     1       5.799   3.788  16.447  0.00  0.00    +0.000 C 
ATOM      7  N   UNL     1       5.422   4.744  17.482  0.00  0.00    +0.000 N 
ATOM      8  C   UNL     1       5.609   4.433  18.820  0.00  0.00    +0.000 C 
ATOM      9  O   UNL     1       5.759   5.272  19.690  0.00  0.00    +0.000 OA
ENDROOT
BRANCH   1  10
ATOM     10  C   UNL     1       3.532   6.384  17.280  0.00  0.00    +0.000 C 
BRANCH  10  11
ATOM     11  C   UNL     1       3.159   7.164  18.528  0.00  0.00    +0.000 C 
BRANCH  11  21
ATOM     12  C   UNL     1       1.570   8.055  20.790  0.00  0.00    +0.000 C 
ATOM     13  C   UNL     1       0.458   8.693  21.635  0.00  0.00    +0.000 C 
ATOM     14  C   UNL     1       0.077   9.890  20.822  0.00  0.00    +0.000 A 
ATOM     15  C   UNL     1      -0.765  10.937  21.202  0.00  0.00    +0.000 A 
ATOM     16  C   UNL     1      -1.024  11.949  20.277  0.00  0.00    +0.000 A 
ATOM     17  C   UNL     1      -0.450  11.903  18.995  0.00  0.00    +0.000 A 
ATOM     18  C   UNL     1       0.387  10.844  18.628  0.00  0.00    +0.000 A 
ATOM     19  C   UNL     1       0.641   9.837  19.544  0.00  0.00    +0.000 A 
ATOM     20  N   UNL     1       1.464   8.703  19.428  0.00  0.00    +0.000 N 
ATOM     21  C   UNL     1       2.254   8.370  18.324  0.00  0.00    +0.000 C 
ATOM     22  O   UNL     1       2.216   8.932  17.229  0.00  0.00    +0.000 OA
BRANCH  12  24
ATOM     23  O   UNL     1       2.510   5.863  21.285  0.00  0.00    +0.000 OA
ATOM     24  C   UNL     1       1.479   6.520  20.839  0.00  0.00    +0.000 C 
ATOM     25  O   UNL     1       0.363   5.987  20.570  0.00  0.00    +0.000 OA
ENDBRANCH  12  24
ENDBRANCH  11  21
ENDBRANCH  10  11
ENDBRANCH   1  10
BRANCH   8  26
ATOM     26  O   UNL     1       5.551   3.087  19.042  0.00  0.00    +0.000 OA
BRANCH  26  27
ATOM     27  C   UNL     1       4.768   2.654  20.171  0.00  0.00    +0.000 C 
BRANCH  27  28
ATOM     28  C   UNL     1       3.284   2.691  19.860  0.00  0.00    +0.000 A 
ATOM     29  C   UNL     1       2.801   2.678  18.543  0.00  0.00    +0.000 A 
ATOM     30  C   UNL     1       1.435   2.704  18.285  0.00  0.00    +0.000 A 
ATOM     31  C   UNL     1       0.517   2.745  19.338  0.00  0.00    +0.000 A 
ATOM     32  C   UNL     1       0.979   2.739  20.651  0.00  0.00    +0.000 A 
ATOM     33  C   UNL     1       2.352   2.702  20.910  0.00  0.00    +0.000 A 
ENDBRANCH  27  28
ENDBRANCH  26  27
ENDBRANCH   8  26
TORSDOF 7
ENDMDL
MODEL 8
REMARK VINA RESULT:      -7.9      1.403      2.137
REMARK  Name = 
REMARK  7 active torsions:
REMARK  status: ('A' for Active; 'I' for Inactive)
REMARK    1  A    between atoms: C_2  and  C_4
REMARK    2  A    between atoms: C_13  and  C_15
REMARK    3  A    between atoms: C_15  and  C_16
REMARK    4  A    between atoms: C_16  and  C_17
REMARK    5  A    between atoms: C_24  and  O_26
REMARK    6  A    between atoms: O_26  and  C_27
REMARK    7  A    between atoms: C_27  and  C_28
REMARK                            x       y       z     vdW  Elec       q    Type
REMARK                         _______ _______ _______ _____ _____    ______ ____
ROOT
ATOM      1  C   UNL     1       2.570   5.278  19.289  0.00  0.00    +0.000 C 
ATOM      2  C   UNL     1       1.763   4.053  19.811  0.00  0.00    +0.000 C 
ATOM      3  O   UNL     1       0.635   4.159  20.291  0.00  0.00    +0.000 OA
ATOM      4  O   UNL     1       2.344   2.827  19.753  0.00  0.00    +0.000 OA
ATOM      5  C   UNL     1       3.554   2.667  19.007  0.00  0.00    +0.000 C 
ATOM      6  C   UNL     1       4.549   3.743  19.389  0.00  0.00    +0.000 C 
ATOM      7  N   UNL     1       3.994   5.031  18.992  0.00  0.00    +0.000 N 
ATOM      8  C   UNL     1       4.737   5.897  18.204  0.00  0.00    +0.000 C 
ATOM      9  O   UNL     1       4.240   6.735  17.473  0.00  0.00    +0.000 OA
ENDROOT
BRANCH   1  10
ATOM     10  C   UNL     1       2.375   6.366  20.371  0.00  0.00    +0.000 C 
BRANCH  10  11
ATOM     11  C   UNL     1       1.942   7.744  19.901  0.00  0.00    +0.000 C 
BRANCH  11  21
ATOM     12  C   UNL     1       0.350   9.959  18.905  0.00  0.00    +0.000 C 
ATOM     13  C   UNL     1      -0.399  11.296  18.813  0.00  0.00    +0.000 C 
ATOM     14  C   UNL     1      -0.908  11.481  20.208  0.00  0.00    +0.000 A 
ATOM     15  C   UNL     1      -1.813  12.446  20.657  0.00  0.00    +0.000 A 
ATOM     16  C   UNL     1      -2.134  12.473  22.014  0.00  0.00    +0.000 A 
ATOM     17  C   UNL     1      -1.551  11.552  22.900  0.00  0.00    +0.000 A 
ATOM     18  C   UNL     1      -0.642  10.595  22.435  0.00  0.00    +0.000 A 
ATOM     19  C   UNL     1      -0.319  10.570  21.089  0.00  0.00    +0.000 A 
ATOM     20  N   UNL     1       0.527   9.696  20.383  0.00  0.00    +0.000 N 
ATOM     21  C   UNL     1       1.216   8.607  20.923  0.00  0.00    +0.000 C 
ATOM     22  O   UNL     1       1.315   8.352  22.123  0.00  0.00    +0.000 OA
BRANCH  12  24
ATOM     23  O   UNL     1       1.819   9.010  17.210  0.00  0.00    +0.000 OA
ATOM     24  C   UNL     1       1.626   9.989  18.046  0.00  0.00    +0.000 C 
ATOM     25  O   UNL     1       2.350  11.025  18.102  0.00  0.00    +0.000 OA
ENDBRANCH  12  24
ENDBRANCH  11  21
ENDBRANCH  10  11
ENDBRANCH   1  10
BRANCH   8  26
ATOM     26  O   UNL     1       6.079   5.729  18.388  0.00  0.00    +0.000 OA
BRANCH  26  27
ATOM     27  C   UNL     1       6.654   4.518  17.861  0.00  0.00    +0.000 C 
BRANCH  27  28
ATOM     28  C   UNL     1       6.575   4.484  16.347  0.00  0.00    +0.000 A 
ATOM     29  C   UNL     1       7.449   5.227  15.541  0.00  0.00    +0.000 A 
ATOM     30  C   UNL     1       7.360   5.172  14.154  0.00  0.00    +0.000 A 
ATOM     31  C   UNL     1       6.394   4.372  13.538  0.00  0.00    +0.000 A 
ATOM     32  C   UNL     1       5.531   3.613  14.323  0.00  0.00    +0.000 A 
ATOM     33  C   UNL     1       5.627   3.661  15.717  0.00  0.00    +0.000 A 
ENDBRANCH  27  28
ENDBRANCH  26  27
ENDBRANCH   8  26
TORSDOF 7
ENDMDL
MODEL 9
REMARK VINA RESULT:      -7.8      0.619      1.039
REMARK  Name = 
REMARK  7 active torsions:
REMARK  status: ('A' for Active; 'I' for Inactive)
REMARK    1  A    between atoms: C_2  and  C_4
REMARK    2  A    between atoms: C_13  and  C_15
REMARK    3  A    between atoms: C_15  and  C_16
REMARK    4  A    between atoms: C_16  and  C_17
REMARK    5  A    between atoms: C_24  and  O_26
REMARK    6  A    between atoms: O_26  and  C_27
REMARK    7  A    between atoms: C_27  and  C_28
REMARK                            x       y       z     vdW  Elec       q    Type
REMARK                         _______ _______ _______ _____ _____    ______ ____
ROOT
ATOM      1  C   UNL     1       2.864   4.649  19.341  0.00  0.00    +0.000 C 
ATOM      2  C   UNL     1       2.475   4.006  20.705  0.00  0.00    +0.000 C 
ATOM      3  O   UNL     1       1.787   4.591  21.541  0.00  0.00    +0.000 OA
ATOM      4  O   UNL     1       2.938   2.761  20.987  0.00  0.00    +0.000 OA
ATOM      5  C   UNL     1       3.551   1.997  19.944  0.00  0.00    +0.000 C 
ATOM      6  C   UNL     1       4.589   2.834  19.225  0.00  0.00    +0.000 C 
ATOM      7  N   UNL     1       3.901   3.939  18.568  0.00  0.00    +0.000 N 
ATOM      8  C   UNL     1       4.094   4.175  17.215  0.00  0.00    +0.000 C 
ATOM      9  O   UNL     1       3.275   4.733  16.508  0.00  0.00    +0.000 OA
ENDROOT
BRANCH   1  10
ATOM     10  C   UNL     1       3.281   6.096  19.694  0.00  0.00    +0.000 C 
BRANCH  10  11
ATOM     11  C   UNL     1       2.299   7.204  19.355  0.00  0.00    +0.000 C 
BRANCH  11  21
ATOM     12  C   UNL     1       0.741   9.592  18.804  0.00  0.00    +0.000 C 
ATOM     13  C   UNL     1       0.034  10.945  18.965  0.00  0.00    +0.000 C 
ATOM     14  C   UNL     1      -0.412  10.913  20.392  0.00  0.00    +0.000 A 
ATOM     15  C   UNL     1      -1.266  11.815  21.032  0.00  0.00    +0.000 A 
ATOM     16  C   UNL     1      -1.530  11.629  22.389  0.00  0.00    +0.000 A 
ATOM     17  C   UNL     1      -0.942  10.560  23.087  0.00  0.00    +0.000 A 
ATOM     18  C   UNL     1      -0.085   9.670  22.433  0.00  0.00    +0.000 A 
ATOM     19  C   UNL     1       0.182   9.856  21.087  0.00  0.00    +0.000 A 
ATOM     20  N   UNL     1       0.970   9.087  20.211  0.00  0.00    +0.000 N 
ATOM     21  C   UNL     1       1.644   7.907  20.535  0.00  0.00    +0.000 C 
ATOM     22  O   UNL     1       1.784   7.458  21.673  0.00  0.00    +0.000 OA
BRANCH  12  24
ATOM     23  O   UNL     1       2.289   8.723  17.138  0.00  0.00    +0.000 OA
ATOM     24  C   UNL     1       1.982   9.728  17.904  0.00  0.00    +0.000 C 
ATOM     25  O   UNL     1       2.556  10.855  17.859  0.00  0.00    +0.000 OA
ENDBRANCH  12  24
ENDBRANCH  11  21
ENDBRANCH  10  11
ENDBRANCH   1  10
BRANCH   8  26
ATOM     26  O   UNL     1       5.322   3.753  16.795  0.00  0.00    +0.000 OA
BRANCH  26  27
ATOM     27  C   UNL     1       6.133   4.723  16.104  0.00  0.00    +0.000 C 
BRANCH  27  28
ATOM     28  C   UNL     1       6.875   5.618  17.078  0.00  0.00    +0.000 A 
ATOM     29  C   UNL     1       7.386   5.133  18.290  0.00  0.00    +0.000 A 
ATOM     30  C   UNL     1       8.070   5.973  19.161  0.00  0.00    +0.000 A 
ATOM     31  C   UNL     1       8.257   7.321  18.844  0.00  0.00    +0.000 A 
ATOM     32  C   UNL     1       7.772   7.815  17.637  0.00  0.00    +0.000 A 
ATOM     33  C   UNL     1       7.094   6.967  16.755  0.00  0.00    +0.000 A 
ENDBRANCH  27  28
ENDBRANCH  26  27
ENDBRANCH   8  26
TORSDOF 7
ENDMDL
