MODEL 1
REMARK VINA RESULT:      -7.0      0.000      0.000
REMARK  Name = 
REMARK  7 active torsions:
REMARK  status: ('A' for Active; 'I' for Inactive)
REMARK    1  A    between atoms: C_1  and  C_2
REMARK    2  A    between atoms: C_2  and  C_3
REMARK    3  A    between atoms: N_5  and  C_6
REMARK    4  A    between atoms: C_12  and  C_14
REMARK    5  A    between atoms: C_19  and  C_20
REMARK    6  A    between atoms: C_20  and  O_21
REMARK    7  A    between atoms: O_21  and  C_22
REMARK                            x       y       z     vdW  Elec       q    Type
REMARK                         _______ _______ _______ _____ _____    ______ ____
ROOT
ATOM      1  C   UNL     1       0.029   9.883  20.408  0.00  0.00    +0.000 A 
ATOM      2  N   UNL     1      -0.388  11.176  20.409  0.00  0.00    +0.000 NA
ATOM      3  N   UNL     1       0.284  11.764  19.381  0.00  0.00    +0.000 N 
ATOM      4  C   UNL     1       0.090  13.155  19.068  0.00  0.00    +0.000 C 
ATOM      5  C   UNL     1       1.060  10.877  18.726  0.00  0.00    +0.000 A 
ATOM      6  N   UNL     1       1.912  10.661  17.703  0.00  0.00    +0.000 N 
ATOM      7  N   UNL     1       2.224   9.343  17.586  0.00  0.00    +0.000 NA
ATOM      8  C   UNL     1       1.686   8.770  18.684  0.00  0.00    +0.000 A 
ATOM      9  N   UNL     1       1.861   7.424  18.854  0.00  0.00    +0.000 N 
ATOM     10  C   UNL     1       2.159   6.827  20.056  0.00  0.00    +0.000 C 
ATOM     11  O   UNL     1       2.374   7.425  21.102  0.00  0.00    +0.000 OA
ATOM     12  C   UNL     1       0.932   9.707  19.369  0.00  0.00    +0.000 A 
ATOM     13  H   UNL     1       2.299  11.312  17.028  0.00  0.00    +0.000 HD
ATOM     14  H   UNL     1       2.109   6.969  17.991  0.00  0.00    +0.000 HD
ENDROOT
BRANCH  10  15
ATOM     15  C   UNL     1       2.228   5.330  19.997  0.00  0.00    +0.000 A 
ATOM     16  C   UNL     1       1.107   4.580  20.409  0.00  0.00    +0.000 A 
ATOM     17  C   UNL     1       1.179   3.194  20.544  0.00  0.00    +0.000 A 
ATOM     18  C   UNL     1       2.359   2.534  20.236  0.00  0.00    +0.000 A 
ATOM     19  C   UNL     1       3.452   3.256  19.757  0.00  0.00    +0.000 A 
ATOM     20  C   UNL     1       3.406   4.658  19.611  0.00  0.00    +0.000 A 
BRANCH  20  21
ATOM     21  C   UNL     1       4.656   5.344  19.104  0.00  0.00    +0.000 C 
BRANCH  21  22
ATOM     22  O   UNL     1       4.449   5.966  17.828  0.00  0.00    +0.000 OA
ATOM     23  C   UNL     1       4.886   5.151  16.744  0.00  0.00    +0.000 C 
ENDBRANCH  21  22
ENDBRANCH  20  21
ENDBRANCH  10  15
BRANCH   1  25
ATOM     24  C   UNL     1      -0.306   9.400  22.877  0.00  0.00    +0.000 C 
ATOM     25  C   UNL     1      -0.499   8.943  21.437  0.00  0.00    +0.000 C 
ENDBRANCH   1  25
TORSDOF 4
ENDMDL
MODEL 2
REMARK VINA RESULT:      -6.8      1.883      4.229
REMARK  Name = 
REMARK  7 active torsions:
REMARK  status: ('A' for Active; 'I' for Inactive)
REMARK    1  A    between atoms: C_1  and  C_2
REMARK    2  A    between atoms: C_2  and  C_3
REMARK    3  A    between atoms: N_5  and  C_6
REMARK    4  A    between atoms: C_12  and  C_14
REMARK    5  A    between atoms: C_19  and  C_20
REMARK    6  A    between atoms: C_20  and  O_21
REMARK    7  A    between atoms: O_21  and  C_22
REMARK                            x       y       z     vdW  Elec       q    Type
REMARK                         _______ _______ _______ _____ _____    ______ ____
ROOT
ATOM      1  C   UNL     1       1.850   6.809  20.291  0.00  0.00    +0.000 A 
ATOM      2  N   UNL     1       0.996   7.398  21.168  0.00  0.00    +0.000 NA
ATOM      3  N   UNL     1       0.797   8.652  20.677  0.00  0.00    +0.000 N 
ATOM      4  C   UNL     1      -0.070   9.583  21.350  0.00  0.00    +0.000 C 
ATOM      5  C   UNL     1       1.457   8.840  19.516  0.00  0.00    +0.000 A 
ATOM      6  N   UNL     1       1.729   9.677  18.494  0.00  0.00    +0.000 N 
ATOM      7  N   UNL     1       2.457   9.058  17.526  0.00  0.00    +0.000 NA
ATOM      8  C   UNL     1       2.787   7.864  18.063  0.00  0.00    +0.000 A 
ATOM      9  N   UNL     1       3.553   7.016  17.313  0.00  0.00    +0.000 N 
ATOM     10  C   UNL     1       4.596   6.270  17.809  0.00  0.00    +0.000 C 
ATOM     11  O   UNL     1       5.013   6.324  18.958  0.00  0.00    +0.000 OA
ATOM     12  C   UNL     1       2.138   7.710  19.276  0.00  0.00    +0.000 A 
ATOM     13  H   UNL     1       1.448  10.640  18.348  0.00  0.00    +0.000 HD
ATOM     14  H   UNL     1       3.527   7.256  16.335  0.00  0.00    +0.000 HD
ENDROOT
BRANCH  10  15
ATOM     15  C   UNL     1       5.235   5.360  16.801  0.00  0.00    +0.000 A 
ATOM     16  C   UNL     1       6.374   5.812  16.102  0.00  0.00    +0.000 A 
ATOM     17  C   UNL     1       6.897   5.083  15.034  0.00  0.00    +0.000 A 
ATOM     18  C   UNL     1       6.314   3.878  14.672  0.00  0.00    +0.000 A 
ATOM     19  C   UNL     1       5.233   3.385  15.402  0.00  0.00    +0.000 A 
ATOM     20  C   UNL     1       4.684   4.101  16.486  0.00  0.00    +0.000 A 
BRANCH  20  21
ATOM     21  C   UNL     1       3.497   3.484  17.195  0.00  0.00    +0.000 C 
BRANCH  21  22
ATOM     22  O   UNL     1       3.875   2.854  18.427  0.00  0.00    +0.000 OA
ATOM     23  C   UNL     1       3.505   1.479  18.475  0.00  0.00    +0.000 C 
ENDBRANCH  21  22
ENDBRANCH  20  21
ENDBRANCH  10  15
BRANCH   1  25
ATOM     24  C   UNL     1       1.217   4.354  20.416  0.00  0.00    +0.000 C 
ATOM     25  C   UNL     1       2.305   5.412  20.540  0.00  0.00    +0.000 C 
ENDBRANCH   1  25
TORSDOF 4
ENDMDL
MODEL 3
REMARK VINA RESULT:      -6.7      1.272      1.278
REMARK  Name = 
REMARK  7 active torsions:
REMARK  status: ('A' for Active; 'I' for Inactive)
REMARK    1  A    between atoms: C_1  and  C_2
REMARK    2  A    between atoms: C_2  and  C_3
REMARK    3  A    between atoms: N_5  and  C_6
REMARK    4  A    between atoms: C_12  and  C_14
REMARK    5  A    between atoms: C_19  and  C_20
REMARK    6  A    between atoms: C_20  and  O_21
REMARK    7  A    between atoms: O_21  and  C_22
REMARK                            x       y       z     vdW  Elec       q    Type
REMARK                         _______ _______ _______ _____ _____    ______ ____
ROOT
ATOM      1  C   UNL     1       0.418   9.591  20.339  0.00  0.00    +0.000 A 
ATOM      2  N   UNL     1       0.009  10.843  20.674  0.00  0.00    +0.000 NA
ATOM      3  N   UNL     1       0.601  11.663  19.763  0.00  0.00    +0.000 N 
ATOM      4  C   UNL     1       0.391  13.086  19.799  0.00  0.00    +0.000 C 
ATOM      5  C   UNL     1       1.319  10.963  18.860  0.00  0.00    +0.000 A 
ATOM      6  N   UNL     1       2.086  11.003  17.753  0.00  0.00    +0.000 N 
ATOM      7  N   UNL     1       2.381   9.752  17.308  0.00  0.00    +0.000 NA
ATOM      8  C   UNL     1       1.928   8.933  18.279  0.00  0.00    +0.000 A 
ATOM      9  N   UNL     1       2.108   7.587  18.117  0.00  0.00    +0.000 N 
ATOM     10  C   UNL     1       2.496   6.730  19.119  0.00  0.00    +0.000 C 
ATOM     11  O   UNL     1       2.796   7.070  20.256  0.00  0.00    +0.000 OA
ATOM     12  C   UNL     1       1.235   9.674  19.221  0.00  0.00    +0.000 A 
ATOM     13  H   UNL     1       2.423  11.798  17.220  0.00  0.00    +0.000 HD
ATOM     14  H   UNL     1       2.285   7.349  17.154  0.00  0.00    +0.000 HD
ENDROOT
BRANCH  10  15
ATOM     15  C   UNL     1       2.552   5.288  18.708  0.00  0.00    +0.000 A 
ATOM     16  C   UNL     1       1.345   4.571  18.576  0.00  0.00    +0.000 A 
ATOM     17  C   UNL     1       1.347   3.191  18.371  0.00  0.00    +0.000 A 
ATOM     18  C   UNL     1       2.553   2.515  18.260  0.00  0.00    +0.000 A 
ATOM     19  C   UNL     1       3.753   3.224  18.315  0.00  0.00    +0.000 A 
ATOM     20  C   UNL     1       3.779   4.619  18.521  0.00  0.00    +0.000 A 
BRANCH  20  21
ATOM     21  C   UNL     1       5.136   5.285  18.586  0.00  0.00    +0.000 C 
BRANCH  21  22
ATOM     22  O   UNL     1       6.206   4.331  18.539  0.00  0.00    +0.000 OA
ATOM     23  C   UNL     1       7.349   4.824  17.845  0.00  0.00    +0.000 C 
ENDBRANCH  21  22
ENDBRANCH  20  21
ENDBRANCH  10  15
BRANCH   1  25
ATOM     24  C   UNL     1      -0.487   8.784  22.568  0.00  0.00    +0.000 C 
ATOM     25  C   UNL     1      -0.033   8.431  21.158  0.00  0.00    +0.000 C 
ENDBRANCH   1  25
TORSDOF 4
ENDMDL
MODEL 4
REMARK VINA RESULT:      -6.6      4.262      6.860
REMARK  Name = 
REMARK  7 active torsions:
REMARK  status: ('A' for Active; 'I' for Inactive)
REMARK    1  A    between atoms: C_1  and  C_2
REMARK    2  A    between atoms: C_2  and  C_3
REMARK    3  A    between atoms: N_5  and  C_6
REMARK    4  A    between atoms: C_12  and  C_14
REMARK    5  A    between atoms: C_19  and  C_20
REMARK    6  A    between atoms: C_20  and  O_21
REMARK    7  A    between atoms: O_21  and  C_22
REMARK                            x       y       z     vdW  Elec       q    Type
REMARK                         _______ _______ _______ _____ _____    ______ ____
ROOT
ATOM      1  C   UNL     1       6.880   5.898  16.343  0.00  0.00    +0.000 A 
ATOM      2  N   UNL     1       7.735   6.260  15.351  0.00  0.00    +0.000 NA
ATOM      3  N   UNL     1       7.521   5.358  14.354  0.00  0.00    +0.000 N 
ATOM      4  C   UNL     1       8.255   5.429  13.119  0.00  0.00    +0.000 C 
ATOM      5  C   UNL     1       6.542   4.487  14.677  0.00  0.00    +0.000 A 
ATOM      6  N   UNL     1       5.790   3.438  14.286  0.00  0.00    +0.000 N 
ATOM      7  N   UNL     1       4.823   3.154  15.199  0.00  0.00    +0.000 NA
ATOM      8  C   UNL     1       5.114   3.941  16.256  0.00  0.00    +0.000 A 
ATOM      9  N   UNL     1       4.310   3.854  17.359  0.00  0.00    +0.000 N 
ATOM     10  C   UNL     1       4.768   3.851  18.655  0.00  0.00    +0.000 C 
ATOM     11  O   UNL     1       5.948   3.852  18.982  0.00  0.00    +0.000 OA
ATOM     12  C   UNL     1       6.151   4.794  15.922  0.00  0.00    +0.000 A 
ATOM     13  H   UNL     1       5.829   2.889  13.434  0.00  0.00    +0.000 HD
ATOM     14  H   UNL     1       3.420   3.437  17.138  0.00  0.00    +0.000 HD
ENDROOT
BRANCH  10  15
ATOM     15  C   UNL     1       3.683   3.822  19.690  0.00  0.00    +0.000 A 
ATOM     16  C   UNL     1       3.365   2.594  20.308  0.00  0.00    +0.000 A 
ATOM     17  C   UNL     1       2.253   2.476  21.141  0.00  0.00    +0.000 A 
ATOM     18  C   UNL     1       1.465   3.587  21.398  0.00  0.00    +0.000 A 
ATOM     19  C   UNL     1       1.811   4.824  20.852  0.00  0.00    +0.000 A 
ATOM     20  C   UNL     1       2.931   4.971  20.006  0.00  0.00    +0.000 A 
BRANCH  20  21
ATOM     21  C   UNL     1       3.203   6.353  19.452  0.00  0.00    +0.000 C 
BRANCH  21  22
ATOM     22  O   UNL     1       2.637   6.530  18.146  0.00  0.00    +0.000 OA
ATOM     23  C   UNL     1       2.201   7.866  17.915  0.00  0.00    +0.000 C 
ENDBRANCH  21  22
ENDBRANCH  20  21
ENDBRANCH  10  15
BRANCH   1  25
ATOM     24  C   UNL     1       7.722   7.933  17.604  0.00  0.00    +0.000 C 
ATOM     25  C   UNL     1       6.867   6.672  17.616  0.00  0.00    +0.000 C 
ENDBRANCH   1  25
TORSDOF 4
ENDMDL
MODEL 5
REMARK VINA RESULT:      -6.4      1.373      2.492
REMARK  Name = 
REMARK  7 active torsions:
REMARK  status: ('A' for Active; 'I' for Inactive)
REMARK    1  A    between atoms: C_1  and  C_2
REMARK    2  A    between atoms: C_2  and  C_3
REMARK    3  A    between atoms: N_5  and  C_6
REMARK    4  A    between atoms: C_12  and  C_14
REMARK    5  A    between atoms: C_19  and  C_20
REMARK    6  A    between atoms: C_20  and  O_21
REMARK    7  A    between atoms: O_21  and  C_22
REMARK                            x       y       z     vdW  Elec       q    Type
REMARK                         _______ _______ _______ _____ _____    ______ ____
ROOT
ATOM      1  C   UNL     1       0.503   9.467  20.381  0.00  0.00    +0.000 A 
ATOM      2  N   UNL     1       0.080  10.697  20.774  0.00  0.00    +0.000 NA
ATOM      3  N   UNL     1       0.611  11.560  19.864  0.00  0.00    +0.000 N 
ATOM      4  C   UNL     1       0.368  12.975  19.955  0.00  0.00    +0.000 C 
ATOM      5  C   UNL     1       1.303  10.907  18.908  0.00  0.00    +0.000 A 
ATOM      6  N   UNL     1       2.019  11.001  17.770  0.00  0.00    +0.000 N 
ATOM      7  N   UNL     1       2.323   9.772  17.272  0.00  0.00    +0.000 NA
ATOM      8  C   UNL     1       1.934   8.912  18.236  0.00  0.00    +0.000 A 
ATOM      9  N   UNL     1       2.139   7.576  18.022  0.00  0.00    +0.000 N 
ATOM     10  C   UNL     1       2.591   6.699  18.978  0.00  0.00    +0.000 C 
ATOM     11  O   UNL     1       2.934   7.010  20.111  0.00  0.00    +0.000 OA
ATOM     12  C   UNL     1       1.267   9.606  19.230  0.00  0.00    +0.000 A 
ATOM     13  H   UNL     1       2.312  11.820  17.249  0.00  0.00    +0.000 HD
ATOM     14  H   UNL     1       2.278   7.373  17.046  0.00  0.00    +0.000 HD
ENDROOT
BRANCH  10  15
ATOM     15  C   UNL     1       2.664   5.272  18.518  0.00  0.00    +0.000 A 
ATOM     16  C   UNL     1       3.467   4.957  17.402  0.00  0.00    +0.000 A 
ATOM     17  C   UNL     1       3.431   3.688  16.826  0.00  0.00    +0.000 A 
ATOM     18  C   UNL     1       2.621   2.706  17.376  0.00  0.00    +0.000 A 
ATOM     19  C   UNL     1       1.878   2.983  18.523  0.00  0.00    +0.000 A 
ATOM     20  C   UNL     1       1.896   4.259  19.126  0.00  0.00    +0.000 A 
BRANCH  20  21
ATOM     21  C   UNL     1       1.035   4.456  20.355  0.00  0.00    +0.000 C 
BRANCH  21  22
ATOM     22  O   UNL     1       1.723   4.089  21.559  0.00  0.00    +0.000 OA
ATOM     23  C   UNL     1       1.620   2.697  21.844  0.00  0.00    +0.000 C 
ENDBRANCH  21  22
ENDBRANCH  20  21
ENDBRANCH  10  15
BRANCH   1  25
ATOM     24  C   UNL     1      -0.495   8.583  22.540  0.00  0.00    +0.000 C 
ATOM     25  C   UNL     1       0.117   8.271  21.181  0.00  0.00    +0.000 C 
ENDBRANCH   1  25
TORSDOF 4
ENDMDL
MODEL 6
REMARK VINA RESULT:      -6.3      4.221      7.012
REMARK  Name = 
REMARK  7 active torsions:
REMARK  status: ('A' for Active; 'I' for Inactive)
REMARK    1  A    between atoms: C_1  and  C_2
REMARK    2  A    between atoms: C_2  and  C_3
REMARK    3  A    between atoms: N_5  and  C_6
REMARK    4  A    between atoms: C_12  and  C_14
REMARK    5  A    between atoms: C_19  and  C_20
REMARK    6  A    between atoms: C_20  and  O_21
REMARK    7  A    between atoms: O_21  and  C_22
REMARK                            x       y       z     vdW  Elec       q    Type
REMARK                         _______ _______ _______ _____ _____    ______ ____
ROOT
ATOM      1  C   UNL     1       3.239   4.564  19.833  0.00  0.00    +0.000 A 
ATOM      2  N   UNL     1       2.529   4.400  20.980  0.00  0.00    +0.000 NA
ATOM      3  N   UNL     1       2.143   3.094  20.972  0.00  0.00    +0.000 N 
ATOM      4  C   UNL     1       1.365   2.545  22.051  0.00  0.00    +0.000 C 
ATOM      5  C   UNL     1       2.622   2.443  19.893  0.00  0.00    +0.000 A 
ATOM      6  N   UNL     1       2.719   1.272  19.232  0.00  0.00    +0.000 N 
ATOM      7  N   UNL     1       3.552   1.373  18.161  0.00  0.00    +0.000 NA
ATOM      8  C   UNL     1       3.825   2.692  18.070  0.00  0.00    +0.000 A 
ATOM      9  N   UNL     1       4.638   3.107  17.052  0.00  0.00    +0.000 N 
ATOM     10  C   UNL     1       4.423   4.238  16.300  0.00  0.00    +0.000 C 
ATOM     11  O   UNL     1       3.447   4.970  16.397  0.00  0.00    +0.000 OA
ATOM     12  C   UNL     1       3.285   3.350  19.161  0.00  0.00    +0.000 A 
ATOM     13  H   UNL     1       2.303   0.370  19.437  0.00  0.00    +0.000 HD
ATOM     14  H   UNL     1       5.180   2.347  16.674  0.00  0.00    +0.000 HD
ENDROOT
BRANCH  10  15
ATOM     15  C   UNL     1       5.497   4.519  15.291  0.00  0.00    +0.000 A 
ATOM     16  C   UNL     1       5.396   3.937  14.010  0.00  0.00    +0.000 A 
ATOM     17  C   UNL     1       6.449   4.019  13.098  0.00  0.00    +0.000 A 
ATOM     18  C   UNL     1       7.601   4.711  13.439  0.00  0.00    +0.000 A 
ATOM     19  C   UNL     1       7.684   5.352  14.675  0.00  0.00    +0.000 A 
ATOM     20  C   UNL     1       6.635   5.286  15.615  0.00  0.00    +0.000 A 
BRANCH  20  21
ATOM     21  C   UNL     1       6.839   6.001  16.934  0.00  0.00    +0.000 C 
BRANCH  21  22
ATOM     22  O   UNL     1       7.043   7.409  16.756  0.00  0.00    +0.000 OA
ATOM     23  C   UNL     1       7.814   7.987  17.806  0.00  0.00    +0.000 C 
ENDBRANCH  21  22
ENDBRANCH  20  21
ENDBRANCH  10  15
BRANCH   1  25
ATOM     24  C   UNL     1       2.762   6.964  19.163  0.00  0.00    +0.000 C 
ATOM     25  C   UNL     1       3.800   5.905  19.506  0.00  0.00    +0.000 C 
ENDBRANCH   1  25
TORSDOF 4
ENDMDL
MODEL 7
REMARK VINA RESULT:      -6.3      1.940      3.740
REMARK  Name = 
REMARK  7 active torsions:
REMARK  status: ('A' for Active; 'I' for Inactive)
REMARK    1  A    between atoms: C_1  and  C_2
REMARK    2  A    between atoms: C_2  and  C_3
REMARK    3  A    between atoms: N_5  and  C_6
REMARK    4  A    between atoms: C_12  and  C_14
REMARK    5  A    between atoms: C_19  and  C_20
REMARK    6  A    between atoms: C_20  and  O_21
REMARK    7  A    between atoms: O_21  and  C_22
REMARK                            x       y       z     vdW  Elec       q    Type
REMARK                         _______ _______ _______ _____ _____    ______ ____
ROOT
ATOM      1  C   UNL     1       1.184  10.858  19.440  0.00  0.00    +0.000 A 
ATOM      2  N   UNL     1       0.460  11.884  19.959  0.00  0.00    +0.000 NA
ATOM      3  N   UNL     1      -0.216  11.343  21.010  0.00  0.00    +0.000 N 
ATOM      4  C   UNL     1      -1.095  12.145  21.818  0.00  0.00    +0.000 C 
ATOM      5  C   UNL     1       0.096  10.042  21.182  0.00  0.00    +0.000 A 
ATOM      6  N   UNL     1      -0.081   8.926  21.917  0.00  0.00    +0.000 N 
ATOM      7  N   UNL     1       0.749   7.927  21.512  0.00  0.00    +0.000 NA
ATOM      8  C   UNL     1       1.317   8.398  20.382  0.00  0.00    +0.000 A 
ATOM      9  N   UNL     1       2.200   7.587  19.724  0.00  0.00    +0.000 N 
ATOM     10  C   UNL     1       2.247   7.439  18.358  0.00  0.00    +0.000 C 
ATOM     11  O   UNL     1       1.466   7.953  17.569  0.00  0.00    +0.000 OA
ATOM     12  C   UNL     1       0.947   9.719  20.197  0.00  0.00    +0.000 A 
ATOM     13  H   UNL     1      -0.692   8.756  22.708  0.00  0.00    +0.000 HD
ATOM     14  H   UNL     1       2.551   6.857  20.322  0.00  0.00    +0.000 HD
ENDROOT
BRANCH  10  15
ATOM     15  C   UNL     1       3.354   6.548  17.875  0.00  0.00    +0.000 A 
ATOM     16  C   UNL     1       4.584   7.132  17.504  0.00  0.00    +0.000 A 
ATOM     17  C   UNL     1       5.579   6.377  16.883  0.00  0.00    +0.000 A 
ATOM     18  C   UNL     1       5.375   5.025  16.656  0.00  0.00    +0.000 A 
ATOM     19  C   UNL     1       4.193   4.420  17.084  0.00  0.00    +0.000 A 
ATOM     20  C   UNL     1       3.170   5.160  17.715  0.00  0.00    +0.000 A 
BRANCH  20  21
ATOM     21  C   UNL     1       1.920   4.409  18.120  0.00  0.00    +0.000 C 
BRANCH  21  22
ATOM     22  O   UNL     1       2.071   3.758  19.389  0.00  0.00    +0.000 OA
ATOM     23  C   UNL     1       1.144   4.234  20.361  0.00  0.00    +0.000 C 
ENDBRANCH  21  22
ENDBRANCH  20  21
ENDBRANCH  10  15
BRANCH   1  25
ATOM     24  C   UNL     1       2.583  12.514  18.121  0.00  0.00    +0.000 C 
ATOM     25  C   UNL     1       2.037  11.098  18.242  0.00  0.00    +0.000 C 
ENDBRANCH   1  25
TORSDOF 4
ENDMDL
MODEL 8
REMARK VINA RESULT:      -6.2      5.187      7.200
REMARK  Name = 
REMARK  7 active torsions:
REMARK  status: ('A' for Active; 'I' for Inactive)
REMARK    1  A    between atoms: C_1  and  C_2
REMARK    2  A    between atoms: C_2  and  C_3
REMARK    3  A    between atoms: N_5  and  C_6
REMARK    4  A    between atoms: C_12  and  C_14
REMARK    5  A    between atoms: C_19  and  C_20
REMARK    6  A    between atoms: C_20  and  O_21
REMARK    7  A    between atoms: O_21  and  C_22
REMARK                            x       y       z     vdW  Elec       q    Type
REMARK                         _______ _______ _______ _____ _____    ______ ____
ROOT
ATOM      1  C   UNL     1       6.792   5.934  16.260  0.00  0.00    +0.000 A 
ATOM      2  N   UNL     1       7.617   6.370  15.273  0.00  0.00    +0.000 NA
ATOM      3  N   UNL     1       7.585   5.390  14.328  0.00  0.00    +0.000 N 
ATOM      4  C   UNL     1       8.346   5.507  13.113  0.00  0.00    +0.000 C 
ATOM      5  C   UNL     1       6.743   4.395  14.676  0.00  0.00    +0.000 A 
ATOM      6  N   UNL     1       6.180   3.220  14.330  0.00  0.00    +0.000 N 
ATOM      7  N   UNL     1       5.235   2.838  15.230  0.00  0.00    +0.000 NA
ATOM      8  C   UNL     1       5.358   3.720  16.244  0.00  0.00    +0.000 A 
ATOM      9  N   UNL     1       4.535   3.570  17.325  0.00  0.00    +0.000 N 
ATOM     10  C   UNL     1       4.938   3.713  18.632  0.00  0.00    +0.000 C 
ATOM     11  O   UNL     1       6.089   3.920  18.993  0.00  0.00    +0.000 OA
ATOM     12  C   UNL     1       6.261   4.707  15.888  0.00  0.00    +0.000 A 
ATOM     13  H   UNL     1       6.337   2.636  13.515  0.00  0.00    +0.000 HD
ATOM     14  H   UNL     1       3.731   3.006  17.106  0.00  0.00    +0.000 HD
ENDROOT
BRANCH  10  15
ATOM     15  C   UNL     1       3.832   3.571  19.635  0.00  0.00    +0.000 A 
ATOM     16  C   UNL     1       2.851   4.583  19.714  0.00  0.00    +0.000 A 
ATOM     17  C   UNL     1       1.908   4.591  20.741  0.00  0.00    +0.000 A 
ATOM     18  C   UNL     1       1.908   3.572  21.682  0.00  0.00    +0.000 A 
ATOM     19  C   UNL     1       2.825   2.527  21.573  0.00  0.00    +0.000 A 
ATOM     20  C   UNL     1       3.789   2.495  20.544  0.00  0.00    +0.000 A 
BRANCH  20  21
ATOM     21  C   UNL     1       4.750   1.325  20.531  0.00  0.00    +0.000 C 
BRANCH  21  22
ATOM     22  O   UNL     1       5.643   1.350  21.653  0.00  0.00    +0.000 OA
ATOM     23  C   UNL     1       6.078   0.049  22.036  0.00  0.00    +0.000 C 
ENDBRANCH  21  22
ENDBRANCH  20  21
ENDBRANCH  10  15
BRANCH   1  25
ATOM     24  C   UNL     1       7.793   7.660  17.829  0.00  0.00    +0.000 C 
ATOM     25  C   UNL     1       6.608   6.768  17.481  0.00  0.00    +0.000 C 
ENDBRANCH   1  25
TORSDOF 4
ENDMDL
MODEL 9
REMARK VINA RESULT:      -6.2      4.050      5.960
REMARK  Name = 
REMARK  7 active torsions:
REMARK  status: ('A' for Active; 'I' for Inactive)
REMARK    1  A    between atoms: C_1  and  C_2
REMARK    2  A    between atoms: C_2  and  C_3
REMARK    3  A    between atoms: N_5  and  C_6
REMARK    4  A    between atoms: C_12  and  C_14
REMARK    5  A    between atoms: C_19  and  C_20
REMARK    6  A    between atoms: C_20  and  O_21
REMARK    7  A    between atoms: O_21  and  C_22
REMARK                            x       y       z     vdW  Elec       q    Type
REMARK                         _______ _______ _______ _____ _____    ______ ____
ROOT
ATOM      1  C   UNL     1      -4.071  12.160  19.066  0.00  0.00    +0.000 A 
ATOM      2  N   UNL     1      -5.261  12.806  18.949  0.00  0.00    +0.000 NA
ATOM      3  N   UNL     1      -5.701  12.509  17.695  0.00  0.00    +0.000 N 
ATOM      4  C   UNL     1      -6.955  13.021  17.210  0.00  0.00    +0.000 C 
ATOM      5  C   UNL     1      -4.853  11.677  17.057  0.00  0.00    +0.000 A 
ATOM      6  N   UNL     1      -4.596  10.965  15.942  0.00  0.00    +0.000 N 
ATOM      7  N   UNL     1      -3.489  10.189  16.091  0.00  0.00    +0.000 NA
ATOM      8  C   UNL     1      -2.960  10.581  17.269  0.00  0.00    +0.000 A 
ATOM      9  N   UNL     1      -1.803   9.979  17.682  0.00  0.00    +0.000 N 
ATOM     10  C   UNL     1      -0.748  10.643  18.261  0.00  0.00    +0.000 C 
ATOM     11  O   UNL     1      -0.680  11.855  18.413  0.00  0.00    +0.000 OA
ATOM     12  C   UNL     1      -3.821  11.471  17.888  0.00  0.00    +0.000 A 
ATOM     13  H   UNL     1      -5.111  10.910  15.069  0.00  0.00    +0.000 HD
ATOM     14  H   UNL     1      -1.648   9.105  17.207  0.00  0.00    +0.000 HD
ENDROOT
BRANCH  10  15
ATOM     15  C   UNL     1       0.377   9.749  18.694  0.00  0.00    +0.000 A 
ATOM     16  C   UNL     1       1.260   9.245  17.716  0.00  0.00    +0.000 A 
ATOM     17  C   UNL     1       2.208   8.274  18.037  0.00  0.00    +0.000 A 
ATOM     18  C   UNL     1       2.313   7.820  19.343  0.00  0.00    +0.000 A 
ATOM     19  C   UNL     1       1.496   8.365  20.334  0.00  0.00    +0.000 A 
ATOM     20  C   UNL     1       0.528   9.347  20.036  0.00  0.00    +0.000 A 
BRANCH  20  21
ATOM     21  C   UNL     1      -0.320   9.854  21.183  0.00  0.00    +0.000 C 
BRANCH  21  22
ATOM     22  O   UNL     1      -0.371   8.919  22.269  0.00  0.00    +0.000 OA
ATOM     23  C   UNL     1      -0.001   9.504  23.514  0.00  0.00    +0.000 C 
ENDBRANCH  21  22
ENDBRANCH  20  21
ENDBRANCH  10  15
BRANCH   1  25
ATOM     24  C   UNL     1      -4.065  12.872  21.501  0.00  0.00    +0.000 C 
ATOM     25  C   UNL     1      -3.290  12.289  20.328  0.00  0.00    +0.000 C 
ENDBRANCH   1  25
TORSDOF 4
ENDMDL
