MODEL 1
REMARK VINA RESULT:      -8.2      0.000      0.000
REMARK  Name = 
REMARK  11 active torsions:
REMARK  status: ('A' for Active; 'I' for Inactive)
REMARK    1  A    between atoms: C_1  and  C_2
REMARK    2  A    between atoms: C_2  and  C_3
REMARK    3  A    between atoms: C_3  and  O_4
REMARK    4  A    between atoms: O_4  and  C_5
REMARK    5  A    between atoms: N_11  and  C_12
REMARK    6  A    between atoms: N_15  and  C_16
REMARK    7  A    between atoms: N_17  and  C_18
REMARK    8  A    between atoms: C_18  and  C_19
REMARK    9  A    between atoms: C_19  and  C_20
REMARK   10  A    between atoms: C_20  and  C_21
REMARK   11  A    between atoms: C_21  and  N_22
REMARK                            x       y       z     vdW  Elec       q    Type
REMARK                         _______ _______ _______ _____ _____    ______ ____
ROOT
ATOM      1  C   UNL     1       6.170   4.484  16.788  0.00  0.00    +0.000 A 
ATOM      2  N   UNL     1       5.505   3.383  17.083  0.00  0.00    +0.000 NA
ATOM      3  C   UNL     1       4.547   3.758  17.974  0.00  0.00    +0.000 A 
ATOM      4  C   UNL     1       4.578   5.103  18.224  0.00  0.00    +0.000 A 
ATOM      5  C   UNL     1       3.596   5.708  19.095  0.00  0.00    +0.000 A 
ATOM      6  O   UNL     1       3.573   6.912  19.338  0.00  0.00    +0.000 OA
ATOM      7  N   UNL     1       2.659   4.795  19.633  0.00  0.00    +0.000 N 
ATOM      8  C   UNL     1       1.580   5.270  20.497  0.00  0.00    +0.000 C 
ATOM      9  C   UNL     1       2.654   3.406  19.408  0.00  0.00    +0.000 A 
ATOM     10  O   UNL     1       1.811   2.675  19.942  0.00  0.00    +0.000 OA
ATOM     11  N   UNL     1       3.630   2.903  18.555  0.00  0.00    +0.000 N 
ATOM     12  C   UNL     1       3.678   1.478  18.278  0.00  0.00    +0.000 C 
ATOM     13  N   UNL     1       5.674   5.588  17.482  0.00  0.00    +0.000 N 
ENDROOT
BRANCH   1  14
ATOM     14  O   UNL     1       7.218   4.514  15.951  0.00  0.00    +0.000 OA
BRANCH  14  15
ATOM     15  C   UNL     1       6.899   4.888  14.592  0.00  0.00    +0.000 C 
BRANCH  15  17
ATOM     16  C   UNL     1       6.191   3.519  12.555  0.00  0.00    +0.000 C 
ATOM     17  C   UNL     1       5.837   3.957  13.978  0.00  0.00    +0.000 C 
ENDBRANCH  15  17
ENDBRANCH  14  15
ENDBRANCH   1  14
BRANCH  13  18
ATOM     18  C   UNL     1       6.140   6.991  17.429  0.00  0.00    +0.000 C 
BRANCH  18  19
ATOM     19  C   UNL     1       7.593   7.385  17.884  0.00  0.00    +0.000 C 
BRANCH  19  20
ATOM     20  C   UNL     1       8.046   8.914  17.588  0.00  0.00    +0.000 C 
BRANCH  20  21
ATOM     21  C   UNL     1       8.735   9.582  18.828  0.00  0.00    +0.000 C 
BRANCH  21  22
ATOM     22  N   UNL     1       9.851  10.633  19.003  0.00  0.00    +0.000 NA
ATOM     23  C   UNL     1       9.637  10.761  20.489  0.00  0.00    +0.000 C 
ATOM     24  C   UNL     1      10.214  12.046  20.792  0.00  0.00    +0.000 C 
ATOM     25  C   UNL     1       9.910  13.414  20.273  0.00  0.00    +0.000 A 
ATOM     26  C   UNL     1       9.261  14.053  21.416  0.00  0.00    +0.000 A 
ATOM     27  C   UNL     1       9.838  15.141  21.919  0.00  0.00    +0.000 A 
ATOM     28  C   UNL     1      10.926  15.476  21.157  0.00  0.00    +0.000 A 
ATOM     29  C   UNL     1      11.257  14.722  19.829  0.00  0.00    +0.000 A 
ATOM     30  C   UNL     1      10.702  13.627  19.149  0.00  0.00    +0.000 A 
ATOM     31  C   UNL     1       9.975  12.251  18.323  0.00  0.00    +0.000 C 
ENDBRANCH  21  22
ENDBRANCH  20  21
ENDBRANCH  19  20
ENDBRANCH  18  19
ENDBRANCH  13  18
TORSDOF 8
ENDMDL
MODEL 2
REMARK VINA RESULT:      -7.9      7.542     11.453
REMARK  Name = 
REMARK  11 active torsions:
REMARK  status: ('A' for Active; 'I' for Inactive)
REMARK    1  A    between atoms: C_1  and  C_2
REMARK    2  A    between atoms: C_2  and  C_3
REMARK    3  A    between atoms: C_3  and  O_4
REMARK    4  A    between atoms: O_4  and  C_5
REMARK    5  A    between atoms: N_11  and  C_12
REMARK    6  A    between atoms: N_15  and  C_16
REMARK    7  A    between atoms: N_17  and  C_18
REMARK    8  A    between atoms: C_18  and  C_19
REMARK    9  A    between atoms: C_19  and  C_20
REMARK   10  A    between atoms: C_20  and  C_21
REMARK   11  A    between atoms: C_21  and  N_22
REMARK                            x       y       z     vdW  Elec       q    Type
REMARK                         _______ _______ _______ _____ _____    ______ ____
ROOT
ATOM      1  C   UNL     1      -3.092  11.239  16.858  0.00  0.00    +0.000 A 
ATOM      2  N   UNL     1      -4.395  11.421  16.965  0.00  0.00    +0.000 NA
ATOM      3  C   UNL     1      -4.605  11.839  18.243  0.00  0.00    +0.000 A 
ATOM      4  C   UNL     1      -3.435  11.956  18.943  0.00  0.00    +0.000 A 
ATOM      5  C   UNL     1      -3.442  12.451  20.301  0.00  0.00    +0.000 A 
ATOM      6  O   UNL     1      -2.418  12.587  20.965  0.00  0.00    +0.000 OA
ATOM      7  N   UNL     1      -4.728  12.774  20.793  0.00  0.00    +0.000 N 
ATOM      8  C   UNL     1      -4.886  13.328  22.137  0.00  0.00    +0.000 C 
ATOM      9  C   UNL     1      -5.935  12.614  20.086  0.00  0.00    +0.000 A 
ATOM     10  O   UNL     1      -7.021  12.896  20.604  0.00  0.00    +0.000 OA
ATOM     11  N   UNL     1      -5.841  12.136  18.783  0.00  0.00    +0.000 N 
ATOM     12  C   UNL     1      -7.049  11.951  17.997  0.00  0.00    +0.000 C 
ATOM     13  N   UNL     1      -2.432  11.519  18.055  0.00  0.00    +0.000 N 
ENDROOT
BRANCH   1  14
ATOM     14  O   UNL     1      -2.495  10.799  15.740  0.00  0.00    +0.000 OA
BRANCH  14  15
ATOM     15  C   UNL     1      -3.120   9.647  15.131  0.00  0.00    +0.000 C 
BRANCH  15  17
ATOM     16  C   UNL     1      -2.639   9.463  12.630  0.00  0.00    +0.000 C 
ATOM     17  C   UNL     1      -3.612   9.952  13.704  0.00  0.00    +0.000 C 
ENDBRANCH  15  17
ENDBRANCH  14  15
ENDBRANCH   1  14
BRANCH  13  18
ATOM     18  C   UNL     1      -0.984  11.440  18.345  0.00  0.00    +0.000 C 
BRANCH  18  19
ATOM     19  C   UNL     1      -0.215  10.068  18.290  0.00  0.00    +0.000 C 
BRANCH  19  20
ATOM     20  C   UNL     1       1.384  10.132  18.553  0.00  0.00    +0.000 C 
BRANCH  20  21
ATOM     21  C   UNL     1       2.092   8.765  18.256  0.00  0.00    +0.000 C 
BRANCH  21  22
ATOM     22  N   UNL     1       2.555   7.580  19.128  0.00  0.00    +0.000 NA
ATOM     23  C   UNL     1       2.743   6.656  17.954  0.00  0.00    +0.000 C 
ATOM     24  C   UNL     1       2.684   5.348  18.555  0.00  0.00    +0.000 C 
ATOM     25  C   UNL     1       1.622   4.678  19.364  0.00  0.00    +0.000 A 
ATOM     26  C   UNL     1       1.104   3.671  18.441  0.00  0.00    +0.000 A 
ATOM     27  C   UNL     1       1.197   2.396  18.809  0.00  0.00    +0.000 A 
ATOM     28  C   UNL     1       1.716   2.322  20.075  0.00  0.00    +0.000 A 
ATOM     29  C   UNL     1       1.973   3.605  20.929  0.00  0.00    +0.000 A 
ATOM     30  C   UNL     1       1.850   4.985  20.702  0.00  0.00    +0.000 A 
ATOM     31  C   UNL     1       1.679   6.709  20.381  0.00  0.00    +0.000 C 
ENDBRANCH  21  22
ENDBRANCH  20  21
ENDBRANCH  19  20
ENDBRANCH  18  19
ENDBRANCH  13  18
TORSDOF 8
ENDMDL
MODEL 3
REMARK VINA RESULT:      -7.8      0.971      1.121
REMARK  Name = 
REMARK  11 active torsions:
REMARK  status: ('A' for Active; 'I' for Inactive)
REMARK    1  A    between atoms: C_1  and  C_2
REMARK    2  A    between atoms: C_2  and  C_3
REMARK    3  A    between atoms: C_3  and  O_4
REMARK    4  A    between atoms: O_4  and  C_5
REMARK    5  A    between atoms: N_11  and  C_12
REMARK    6  A    between atoms: N_15  and  C_16
REMARK    7  A    between atoms: N_17  and  C_18
REMARK    8  A    between atoms: C_18  and  C_19
REMARK    9  A    between atoms: C_19  and  C_20
REMARK   10  A    between atoms: C_20  and  C_21
REMARK   11  A    between atoms: C_21  and  N_22
REMARK                            x       y       z     vdW  Elec       q    Type
REMARK                         _______ _______ _______ _____ _____    ______ ____
ROOT
ATOM      1  C   UNL     1       5.211   4.853  16.113  0.00  0.00    +0.000 A 
ATOM      2  N   UNL     1       4.431   3.815  16.350  0.00  0.00    +0.000 NA
ATOM      3  C   UNL     1       3.723   4.135  17.468  0.00  0.00    +0.000 A 
ATOM      4  C   UNL     1       4.025   5.388  17.926  0.00  0.00    +0.000 A 
ATOM      5  C   UNL     1       3.330   5.937  19.068  0.00  0.00    +0.000 A 
ATOM      6  O   UNL     1       3.555   7.062  19.507  0.00  0.00    +0.000 OA
ATOM      7  N   UNL     1       2.360   5.072  19.626  0.00  0.00    +0.000 N 
ATOM      8  C   UNL     1       1.546   5.509  20.758  0.00  0.00    +0.000 C 
ATOM      9  C   UNL     1       2.079   3.767  19.179  0.00  0.00    +0.000 A 
ATOM     10  O   UNL     1       1.232   3.066  19.745  0.00  0.00    +0.000 OA
ATOM     11  N   UNL     1       2.790   3.314  18.073  0.00  0.00    +0.000 N 
ATOM     12  C   UNL     1       2.545   1.978  17.559  0.00  0.00    +0.000 C 
ATOM     13  N   UNL     1       5.040   5.856  17.067  0.00  0.00    +0.000 N 
ENDROOT
BRANCH   1  14
ATOM     14  O   UNL     1       6.086   4.905  15.096  0.00  0.00    +0.000 OA
BRANCH  14  15
ATOM     15  C   UNL     1       6.275   3.656  14.396  0.00  0.00    +0.000 C 
BRANCH  15  17
ATOM     16  C   UNL     1       5.164   3.448  12.105  0.00  0.00    +0.000 C 
ATOM     17  C   UNL     1       6.417   3.868  12.877  0.00  0.00    +0.000 C 
ENDBRANCH  15  17
ENDBRANCH  14  15
ENDBRANCH   1  14
BRANCH  13  18
ATOM     18  C   UNL     1       5.721   7.166  17.154  0.00  0.00    +0.000 C 
BRANCH  18  19
ATOM     19  C   UNL     1       7.290   7.276  17.094  0.00  0.00    +0.000 C 
BRANCH  19  20
ATOM     20  C   UNL     1       7.987   8.196  18.232  0.00  0.00    +0.000 C 
BRANCH  20  21
ATOM     21  C   UNL     1       8.398   9.608  17.688  0.00  0.00    +0.000 C 
BRANCH  21  22
ATOM     22  N   UNL     1       9.310  10.738  18.207  0.00  0.00    +0.000 NA
ATOM     23  C   UNL     1       9.319  10.221  19.622  0.00  0.00    +0.000 C 
ATOM     24  C   UNL     1       9.685  11.382  20.392  0.00  0.00    +0.000 C 
ATOM     25  C   UNL     1       9.051  12.729  20.514  0.00  0.00    +0.000 A 
ATOM     26  C   UNL     1       8.487  12.696  21.861  0.00  0.00    +0.000 A 
ATOM     27  C   UNL     1       8.922  13.604  22.731  0.00  0.00    +0.000 A 
ATOM     28  C   UNL     1       9.791  14.458  22.104  0.00  0.00    +0.000 A 
ATOM     29  C   UNL     1      10.038  14.385  20.563  0.00  0.00    +0.000 A 
ATOM     30  C   UNL     1       9.596  13.546  19.529  0.00  0.00    +0.000 A 
ATOM     31  C   UNL     1       9.018  12.472  18.257  0.00  0.00    +0.000 C 
ENDBRANCH  21  22
ENDBRANCH  20  21
ENDBRANCH  19  20
ENDBRANCH  18  19
ENDBRANCH  13  18
TORSDOF 8
ENDMDL
MODEL 4
REMARK VINA RESULT:      -7.7      6.399     10.528
REMARK  Name = 
REMARK  11 active torsions:
REMARK  status: ('A' for Active; 'I' for Inactive)
REMARK    1  A    between atoms: C_1  and  C_2
REMARK    2  A    between atoms: C_2  and  C_3
REMARK    3  A    between atoms: C_3  and  O_4
REMARK    4  A    between atoms: O_4  and  C_5
REMARK    5  A    between atoms: N_11  and  C_12
REMARK    6  A    between atoms: N_15  and  C_16
REMARK    7  A    between atoms: N_17  and  C_18
REMARK    8  A    between atoms: C_18  and  C_19
REMARK    9  A    between atoms: C_19  and  C_20
REMARK   10  A    between atoms: C_20  and  C_21
REMARK   11  A    between atoms: C_21  and  N_22
REMARK                            x       y       z     vdW  Elec       q    Type
REMARK                         _______ _______ _______ _____ _____    ______ ____
ROOT
ATOM      1  C   UNL     1       1.504   7.561  20.363  0.00  0.00    +0.000 A 
ATOM      2  N   UNL     1       1.658   6.348  20.861  0.00  0.00    +0.000 NA
ATOM      3  C   UNL     1       2.490   5.699  20.002  0.00  0.00    +0.000 A 
ATOM      4  C   UNL     1       2.895   6.505  18.973  0.00  0.00    +0.000 A 
ATOM      5  C   UNL     1       3.835   6.019  17.989  0.00  0.00    +0.000 A 
ATOM      6  O   UNL     1       4.239   6.708  17.056  0.00  0.00    +0.000 OA
ATOM      7  N   UNL     1       4.258   4.685  18.201  0.00  0.00    +0.000 N 
ATOM      8  C   UNL     1       5.242   4.074  17.311  0.00  0.00    +0.000 C 
ATOM      9  C   UNL     1       3.809   3.844  19.236  0.00  0.00    +0.000 A 
ATOM     10  O   UNL     1       4.210   2.679  19.332  0.00  0.00    +0.000 OA
ATOM     11  N   UNL     1       2.906   4.389  20.143  0.00  0.00    +0.000 N 
ATOM     12  C   UNL     1       2.407   3.575  21.238  0.00  0.00    +0.000 C 
ATOM     13  N   UNL     1       2.215   7.723  19.173  0.00  0.00    +0.000 N 
ENDROOT
BRANCH   1  14
ATOM     14  O   UNL     1       0.723   8.498  20.922  0.00  0.00    +0.000 OA
BRANCH  14  15
ATOM     15  C   UNL     1       1.246   9.076  22.138  0.00  0.00    +0.000 C 
BRANCH  15  17
ATOM     16  C   UNL     1      -0.649  10.689  22.711  0.00  0.00    +0.000 C 
ATOM     17  C   UNL     1       0.123   9.437  23.129  0.00  0.00    +0.000 C 
ENDBRANCH  15  17
ENDBRANCH  14  15
ENDBRANCH   1  14
BRANCH  13  18
ATOM     18  C   UNL     1       2.303   8.924  18.314  0.00  0.00    +0.000 C 
BRANCH  18  19
ATOM     19  C   UNL     1       1.256  10.093  18.436  0.00  0.00    +0.000 C 
BRANCH  19  20
ATOM     20  C   UNL     1      -0.221   9.796  17.836  0.00  0.00    +0.000 C 
BRANCH  20  21
ATOM     21  C   UNL     1      -1.332  10.652  18.538  0.00  0.00    +0.000 C 
BRANCH  21  22
ATOM     22  N   UNL     1      -2.432  11.609  18.035  0.00  0.00    +0.000 NA
ATOM     23  C   UNL     1      -2.886  11.981  19.423  0.00  0.00    +0.000 C 
ATOM     24  C   UNL     1      -4.225  12.468  19.209  0.00  0.00    +0.000 C 
ATOM     25  C   UNL     1      -5.428  11.821  18.606  0.00  0.00    +0.000 A 
ATOM     26  C   UNL     1      -6.287  11.598  19.768  0.00  0.00    +0.000 A 
ATOM     27  C   UNL     1      -7.480  12.188  19.770  0.00  0.00    +0.000 A 
ATOM     28  C   UNL     1      -7.670  12.841  18.581  0.00  0.00    +0.000 A 
ATOM     29  C   UNL     1      -6.647  12.715  17.407  0.00  0.00    +0.000 A 
ATOM     30  C   UNL     1      -5.408  12.076  17.239  0.00  0.00    +0.000 A 
ATOM     31  C   UNL     1      -3.857  11.258  17.065  0.00  0.00    +0.000 C 
ENDBRANCH  21  22
ENDBRANCH  20  21
ENDBRANCH  19  20
ENDBRANCH  18  19
ENDBRANCH  13  18
TORSDOF 8
ENDMDL
MODEL 5
REMARK VINA RESULT:      -7.7      7.360     11.579
REMARK  Name = 
REMARK  11 active torsions:
REMARK  status: ('A' for Active; 'I' for Inactive)
REMARK    1  A    between atoms: C_1  and  C_2
REMARK    2  A    between atoms: C_2  and  C_3
REMARK    3  A    between atoms: C_3  and  O_4
REMARK    4  A    between atoms: O_4  and  C_5
REMARK    5  A    between atoms: N_11  and  C_12
REMARK    6  A    between atoms: N_15  and  C_16
REMARK    7  A    between atoms: N_17  and  C_18
REMARK    8  A    between atoms: C_18  and  C_19
REMARK    9  A    between atoms: C_19  and  C_20
REMARK   10  A    between atoms: C_20  and  C_21
REMARK   11  A    between atoms: C_21  and  N_22
REMARK                            x       y       z     vdW  Elec       q    Type
REMARK                         _______ _______ _______ _____ _____    ______ ____
ROOT
ATOM      1  C   UNL     1      -2.371  12.089  19.211  0.00  0.00    +0.000 A 
ATOM      2  N   UNL     1      -3.646  12.319  19.466  0.00  0.00    +0.000 NA
ATOM      3  C   UNL     1      -3.699  12.683  20.776  0.00  0.00    +0.000 A 
ATOM      4  C   UNL     1      -2.457  12.717  21.350  0.00  0.00    +0.000 A 
ATOM      5  C   UNL     1      -2.297  13.145  22.721  0.00  0.00    +0.000 A 
ATOM      6  O   UNL     1      -1.203  13.207  23.276  0.00  0.00    +0.000 OA
ATOM      7  N   UNL     1      -3.507  13.497  23.364  0.00  0.00    +0.000 N 
ATOM      8  C   UNL     1      -3.496  13.991  24.739  0.00  0.00    +0.000 C 
ATOM      9  C   UNL     1      -4.788  13.422  22.785  0.00  0.00    +0.000 A 
ATOM     10  O   UNL     1      -5.799  13.723  23.429  0.00  0.00    +0.000 OA
ATOM     11  N   UNL     1      -4.856  13.003  21.460  0.00  0.00    +0.000 N 
ATOM     12  C   UNL     1      -6.148  12.907  20.802  0.00  0.00    +0.000 C 
ATOM     13  N   UNL     1      -1.575  12.283  20.341  0.00  0.00    +0.000 N 
ENDROOT
BRANCH   1  14
ATOM     14  O   UNL     1      -1.917  11.679  18.017  0.00  0.00    +0.000 OA
BRANCH  14  15
ATOM     15  C   UNL     1      -1.957  10.249  17.810  0.00  0.00    +0.000 C 
BRANCH  15  17
ATOM     16  C   UNL     1      -2.858  10.684  15.460  0.00  0.00    +0.000 C 
ATOM     17  C   UNL     1      -2.991   9.855  16.739  0.00  0.00    +0.000 C 
ENDBRANCH  15  17
ENDBRANCH  14  15
ENDBRANCH   1  14
BRANCH  13  18
ATOM     18  C   UNL     1      -0.110  12.130  20.468  0.00  0.00    +0.000 C 
BRANCH  18  19
ATOM     19  C   UNL     1       0.519  10.923  21.258  0.00  0.00    +0.000 C 
BRANCH  19  20
ATOM     20  C   UNL     1       0.104   9.440  20.749  0.00  0.00    +0.000 C 
BRANCH  20  21
ATOM     21  C   UNL     1       1.248   8.750  19.929  0.00  0.00    +0.000 C 
BRANCH  21  22
ATOM     22  N   UNL     1       2.138   7.511  20.154  0.00  0.00    +0.000 NA
ATOM     23  C   UNL     1       2.478   7.362  18.694  0.00  0.00    +0.000 C 
ATOM     24  C   UNL     1       2.883   5.983  18.592  0.00  0.00    +0.000 C 
ATOM     25  C   UNL     1       2.166   4.715  18.918  0.00  0.00    +0.000 A 
ATOM     26  C   UNL     1       1.888   4.155  17.596  0.00  0.00    +0.000 A 
ATOM     27  C   UNL     1       2.404   2.962  17.315  0.00  0.00    +0.000 A 
ATOM     28  C   UNL     1       3.048   2.470  18.420  0.00  0.00    +0.000 A 
ATOM     29  C   UNL     1       2.987   3.206  19.796  0.00  0.00    +0.000 A 
ATOM     30  C   UNL     1       2.426   4.409  20.250  0.00  0.00    +0.000 A 
ATOM     31  C   UNL     1       1.704   5.926  20.783  0.00  0.00    +0.000 C 
ENDBRANCH  21  22
ENDBRANCH  20  21
ENDBRANCH  19  20
ENDBRANCH  18  19
ENDBRANCH  13  18
TORSDOF 8
ENDMDL
MODEL 6
REMARK VINA RESULT:      -7.6      6.429     10.437
REMARK  Name = 
REMARK  11 active torsions:
REMARK  status: ('A' for Active; 'I' for Inactive)
REMARK    1  A    between atoms: C_1  and  C_2
REMARK    2  A    between atoms: C_2  and  C_3
REMARK    3  A    between atoms: C_3  and  O_4
REMARK    4  A    between atoms: O_4  and  C_5
REMARK    5  A    between atoms: N_11  and  C_12
REMARK    6  A    between atoms: N_15  and  C_16
REMARK    7  A    between atoms: N_17  and  C_18
REMARK    8  A    between atoms: C_18  and  C_19
REMARK    9  A    between atoms: C_19  and  C_20
REMARK   10  A    between atoms: C_20  and  C_21
REMARK   11  A    between atoms: C_21  and  N_22
REMARK                            x       y       z     vdW  Elec       q    Type
REMARK                         _______ _______ _______ _____ _____    ______ ____
ROOT
ATOM      1  C   UNL     1      -1.235  12.030  20.645  0.00  0.00    +0.000 A 
ATOM      2  N   UNL     1      -2.514  12.358  20.630  0.00  0.00    +0.000 NA
ATOM      3  C   UNL     1      -2.969  12.010  19.395  0.00  0.00    +0.000 A 
ATOM      4  C   UNL     1      -1.991  11.430  18.633  0.00  0.00    +0.000 A 
ATOM      5  C   UNL     1      -2.294  10.931  17.311  0.00  0.00    +0.000 A 
ATOM      6  O   UNL     1      -1.456  10.391  16.595  0.00  0.00    +0.000 OA
ATOM      7  N   UNL     1      -3.642  11.110  16.919  0.00  0.00    +0.000 N 
ATOM      8  C   UNL     1      -4.105  10.615  15.624  0.00  0.00    +0.000 C 
ATOM      9  C   UNL     1      -4.636  11.743  17.688  0.00  0.00    +0.000 A 
ATOM     10  O   UNL     1      -5.786  11.882  17.256  0.00  0.00    +0.000 OA
ATOM     11  N   UNL     1      -4.264  12.192  18.950  0.00  0.00    +0.000 N 
ATOM     12  C   UNL     1      -5.244  12.852  19.796  0.00  0.00    +0.000 C 
ATOM     13  N   UNL     1      -0.830  11.478  19.429  0.00  0.00    +0.000 N 
ENDROOT
BRANCH   1  14
ATOM     14  O   UNL     1      -0.428  12.244  21.695  0.00  0.00    +0.000 OA
BRANCH  14  15
ATOM     15  C   UNL     1      -1.031  11.992  22.984  0.00  0.00    +0.000 C 
BRANCH  15  17
ATOM     16  C   UNL     1       0.048   9.704  23.338  0.00  0.00    +0.000 C 
ATOM     17  C   UNL     1      -1.260  10.488  23.224  0.00  0.00    +0.000 C 
ENDBRANCH  15  17
ENDBRANCH  14  15
ENDBRANCH   1  14
BRANCH  13  18
ATOM     18  C   UNL     1       0.512  10.987  19.047  0.00  0.00    +0.000 C 
BRANCH  18  19
ATOM     19  C   UNL     1       0.809   9.448  18.909  0.00  0.00    +0.000 C 
BRANCH  19  20
ATOM     20  C   UNL     1       1.192   8.667  20.277  0.00  0.00    +0.000 C 
BRANCH  20  21
ATOM     21  C   UNL     1       2.130   7.438  20.019  0.00  0.00    +0.000 C 
BRANCH  21  22
ATOM     22  N   UNL     1       2.625   6.708  18.753  0.00  0.00    +0.000 NA
ATOM     23  C   UNL     1       3.368   5.651  19.528  0.00  0.00    +0.000 C 
ATOM     24  C   UNL     1       4.323   5.155  18.571  0.00  0.00    +0.000 C 
ATOM     25  C   UNL     1       5.398   5.846  17.797  0.00  0.00    +0.000 A 
ATOM     26  C   UNL     1       6.618   5.358  18.438  0.00  0.00    +0.000 A 
ATOM     27  C   UNL     1       7.482   4.688  17.681  0.00  0.00    +0.000 A 
ATOM     28  C   UNL     1       7.042   4.677  16.383  0.00  0.00    +0.000 A 
ATOM     29  C   UNL     1       5.786   5.494  15.940  0.00  0.00    +0.000 A 
ATOM     30  C   UNL     1       4.842   6.293  16.603  0.00  0.00    +0.000 A 
ATOM     31  C   UNL     1       3.677   7.291  17.469  0.00  0.00    +0.000 C 
ENDBRANCH  21  22
ENDBRANCH  20  21
ENDBRANCH  19  20
ENDBRANCH  18  19
ENDBRANCH  13  18
TORSDOF 8
ENDMDL
MODEL 7
REMARK VINA RESULT:      -7.6      7.240     11.588
REMARK  Name = 
REMARK  11 active torsions:
REMARK  status: ('A' for Active; 'I' for Inactive)
REMARK    1  A    between atoms: C_1  and  C_2
REMARK    2  A    between atoms: C_2  and  C_3
REMARK    3  A    between atoms: C_3  and  O_4
REMARK    4  A    between atoms: O_4  and  C_5
REMARK    5  A    between atoms: N_11  and  C_12
REMARK    6  A    between atoms: N_15  and  C_16
REMARK    7  A    between atoms: N_17  and  C_18
REMARK    8  A    between atoms: C_18  and  C_19
REMARK    9  A    between atoms: C_19  and  C_20
REMARK   10  A    between atoms: C_20  and  C_21
REMARK   11  A    between atoms: C_21  and  N_22
REMARK                            x       y       z     vdW  Elec       q    Type
REMARK                         _______ _______ _______ _____ _____    ______ ____
ROOT
ATOM      1  C   UNL     1      -1.819  11.959  19.683  0.00  0.00    +0.000 A 
ATOM      2  N   UNL     1      -2.693  12.880  20.045  0.00  0.00    +0.000 NA
ATOM      3  C   UNL     1      -2.019  13.719  20.878  0.00  0.00    +0.000 A 
ATOM      4  C   UNL     1      -0.708  13.354  21.023  0.00  0.00    +0.000 A 
ATOM      5  C   UNL     1       0.192  14.159  21.818  0.00  0.00    +0.000 A 
ATOM      6  O   UNL     1       1.378  13.882  21.966  0.00  0.00    +0.000 OA
ATOM      7  N   UNL     1      -0.412  15.299  22.400  0.00  0.00    +0.000 N 
ATOM      8  C   UNL     1       0.386  16.230  23.195  0.00  0.00    +0.000 C 
ATOM      9  C   UNL     1      -1.770  15.650  22.283  0.00  0.00    +0.000 A 
ATOM     10  O   UNL     1      -2.222  16.651  22.850  0.00  0.00    +0.000 OA
ATOM     11  N   UNL     1      -2.568  14.825  21.498  0.00  0.00    +0.000 N 
ATOM     12  C   UNL     1      -3.978  15.133  21.334  0.00  0.00    +0.000 C 
ATOM     13  N   UNL     1      -0.574  12.167  20.275  0.00  0.00    +0.000 N 
ENDROOT
BRANCH   1  14
ATOM     14  O   UNL     1      -2.120  10.931  18.874  0.00  0.00    +0.000 OA
BRANCH  14  15
ATOM     15  C   UNL     1      -2.328  11.288  17.490  0.00  0.00    +0.000 C 
BRANCH  15  17
ATOM     16  C   UNL     1      -2.838  10.405  15.148  0.00  0.00    +0.000 C 
ATOM     17  C   UNL     1      -2.703  10.064  16.633  0.00  0.00    +0.000 C 
ENDBRANCH  15  17
ENDBRANCH  14  15
ENDBRANCH   1  14
BRANCH  13  18
ATOM     18  C   UNL     1       0.660  11.364  20.126  0.00  0.00    +0.000 C 
BRANCH  18  19
ATOM     19  C   UNL     1       1.252  11.037  18.705  0.00  0.00    +0.000 C 
BRANCH  19  20
ATOM     20  C   UNL     1       0.918   9.566  18.112  0.00  0.00    +0.000 C 
BRANCH  20  21
ATOM     21  C   UNL     1       2.164   8.614  18.141  0.00  0.00    +0.000 C 
BRANCH  21  22
ATOM     22  N   UNL     1       2.623   7.470  19.069  0.00  0.00    +0.000 NA
ATOM     23  C   UNL     1       2.857   6.506  17.935  0.00  0.00    +0.000 C 
ATOM     24  C   UNL     1       2.803   5.221  18.583  0.00  0.00    +0.000 C 
ATOM     25  C   UNL     1       1.732   4.563  19.390  0.00  0.00    +0.000 A 
ATOM     26  C   UNL     1       1.255   3.513  18.492  0.00  0.00    +0.000 A 
ATOM     27  C   UNL     1       1.359   2.255  18.910  0.00  0.00    +0.000 A 
ATOM     28  C   UNL     1       1.847   2.237  20.190  0.00  0.00    +0.000 A 
ATOM     29  C   UNL     1       2.061   3.555  21.001  0.00  0.00    +0.000 A 
ATOM     30  C   UNL     1       1.921   4.923  20.721  0.00  0.00    +0.000 A 
ATOM     31  C   UNL     1       1.730   6.631  20.331  0.00  0.00    +0.000 C 
ENDBRANCH  21  22
ENDBRANCH  20  21
ENDBRANCH  19  20
ENDBRANCH  18  19
ENDBRANCH  13  18
TORSDOF 8
ENDMDL
MODEL 8
REMARK VINA RESULT:      -7.6      7.030     11.176
REMARK  Name = 
REMARK  11 active torsions:
REMARK  status: ('A' for Active; 'I' for Inactive)
REMARK    1  A    between atoms: C_1  and  C_2
REMARK    2  A    between atoms: C_2  and  C_3
REMARK    3  A    between atoms: C_3  and  O_4
REMARK    4  A    between atoms: O_4  and  C_5
REMARK    5  A    between atoms: N_11  and  C_12
REMARK    6  A    between atoms: N_15  and  C_16
REMARK    7  A    between atoms: N_17  and  C_18
REMARK    8  A    between atoms: C_18  and  C_19
REMARK    9  A    between atoms: C_19  and  C_20
REMARK   10  A    between atoms: C_20  and  C_21
REMARK   11  A    between atoms: C_21  and  N_22
REMARK                            x       y       z     vdW  Elec       q    Type
REMARK                         _______ _______ _______ _____ _____    ______ ____
ROOT
ATOM      1  C   UNL     1      -2.494  11.511  17.524  0.00  0.00    +0.000 A 
ATOM      2  N   UNL     1      -3.651  11.940  17.993  0.00  0.00    +0.000 NA
ATOM      3  C   UNL     1      -3.457  12.137  19.326  0.00  0.00    +0.000 A 
ATOM      4  C   UNL     1      -2.170  11.867  19.703  0.00  0.00    +0.000 A 
ATOM      5  C   UNL     1      -1.748  12.079  21.069  0.00  0.00    +0.000 A 
ATOM      6  O   UNL     1      -0.601  11.865  21.452  0.00  0.00    +0.000 OA
ATOM      7  N   UNL     1      -2.768  12.565  21.921  0.00  0.00    +0.000 N 
ATOM      8  C   UNL     1      -2.476  12.868  23.321  0.00  0.00    +0.000 C 
ATOM      9  C   UNL     1      -4.102  12.803  21.541  0.00  0.00    +0.000 A 
ATOM     10  O   UNL     1      -4.938  13.202  22.360  0.00  0.00    +0.000 OA
ATOM     11  N   UNL     1      -4.426  12.577  20.208  0.00  0.00    +0.000 N 
ATOM     12  C   UNL     1      -5.785  12.807  19.750  0.00  0.00    +0.000 C 
ATOM     13  N   UNL     1      -1.534  11.409  18.532  0.00  0.00    +0.000 N 
ENDROOT
BRANCH   1  14
ATOM     14  O   UNL     1      -2.293  11.180  16.239  0.00  0.00    +0.000 OA
BRANCH  14  15
ATOM     15  C   UNL     1      -2.862   9.913  15.843  0.00  0.00    +0.000 C 
BRANCH  15  17
ATOM     16  C   UNL     1      -2.930   9.681  13.301  0.00  0.00    +0.000 C 
ATOM     17  C   UNL     1      -3.712  10.042  14.565  0.00  0.00    +0.000 C 
ENDBRANCH  15  17
ENDBRANCH  14  15
ENDBRANCH   1  14
BRANCH  13  18
ATOM     18  C   UNL     1      -0.126  10.971  18.417  0.00  0.00    +0.000 C 
BRANCH  18  19
ATOM     19  C   UNL     1       0.242   9.548  17.854  0.00  0.00    +0.000 C 
BRANCH  19  20
ATOM     20  C   UNL     1       1.752   9.032  18.145  0.00  0.00    +0.000 C 
BRANCH  20  21
ATOM     21  C   UNL     1       1.906   8.422  19.581  0.00  0.00    +0.000 C 
BRANCH  21  22
ATOM     22  N   UNL     1       2.314   7.037  20.125  0.00  0.00    +0.000 NA
ATOM     23  C   UNL     1       3.109   6.675  18.898  0.00  0.00    +0.000 C 
ATOM     24  C   UNL     1       3.164   5.237  18.957  0.00  0.00    +0.000 C 
ATOM     25  C   UNL     1       2.084   4.206  18.993  0.00  0.00    +0.000 A 
ATOM     26  C   UNL     1       2.173   3.603  17.665  0.00  0.00    +0.000 A 
ATOM     27  C   UNL     1       2.438   2.302  17.598  0.00  0.00    +0.000 A 
ATOM     28  C   UNL     1       2.494   1.781  18.864  0.00  0.00    +0.000 A 
ATOM     29  C   UNL     1       2.127   2.639  20.117  0.00  0.00    +0.000 A 
ATOM     30  C   UNL     1       1.760   3.977  20.327  0.00  0.00    +0.000 A 
ATOM     31  C   UNL     1       1.300   5.663  20.549  0.00  0.00    +0.000 C 
ENDBRANCH  21  22
ENDBRANCH  20  21
ENDBRANCH  19  20
ENDBRANCH  18  19
ENDBRANCH  13  18
TORSDOF 8
ENDMDL
MODEL 9
REMARK VINA RESULT:      -7.5      6.212      9.873
REMARK  Name = 
REMARK  11 active torsions:
REMARK  status: ('A' for Active; 'I' for Inactive)
REMARK    1  A    between atoms: C_1  and  C_2
REMARK    2  A    between atoms: C_2  and  C_3
REMARK    3  A    between atoms: C_3  and  O_4
REMARK    4  A    between atoms: O_4  and  C_5
REMARK    5  A    between atoms: N_11  and  C_12
REMARK    6  A    between atoms: N_15  and  C_16
REMARK    7  A    between atoms: N_17  and  C_18
REMARK    8  A    between atoms: C_18  and  C_19
REMARK    9  A    between atoms: C_19  and  C_20
REMARK   10  A    between atoms: C_20  and  C_21
REMARK   11  A    between atoms: C_21  and  N_22
REMARK                            x       y       z     vdW  Elec       q    Type
REMARK                         _______ _______ _______ _____ _____    ______ ____
ROOT
ATOM      1  C   UNL     1       1.468   7.361  20.487  0.00  0.00    +0.000 A 
ATOM      2  N   UNL     1       1.704   6.119  20.867  0.00  0.00    +0.000 NA
ATOM      3  C   UNL     1       2.559   5.607  19.940  0.00  0.00    +0.000 A 
ATOM      4  C   UNL     1       2.896   6.529  18.987  0.00  0.00    +0.000 A 
ATOM      5  C   UNL     1       3.846   6.197  17.950  0.00  0.00    +0.000 A 
ATOM      6  O   UNL     1       4.191   6.994  17.083  0.00  0.00    +0.000 OA
ATOM      7  N   UNL     1       4.353   4.878  18.030  0.00  0.00    +0.000 N 
ATOM      8  C   UNL     1       5.356   4.415  17.075  0.00  0.00    +0.000 C 
ATOM      9  C   UNL     1       3.974   3.917  18.987  0.00  0.00    +0.000 A 
ATOM     10  O   UNL     1       4.447   2.775  18.966  0.00  0.00    +0.000 OA
ATOM     11  N   UNL     1       3.056   4.318  19.952  0.00  0.00    +0.000 N 
ATOM     12  C   UNL     1       2.627   3.375  20.970  0.00  0.00    +0.000 C 
ATOM     13  N   UNL     1       2.147   7.679  19.310  0.00  0.00    +0.000 N 
ENDROOT
BRANCH   1  14
ATOM     14  O   UNL     1       0.642   8.191  21.142  0.00  0.00    +0.000 OA
BRANCH  14  15
ATOM     15  C   UNL     1       1.258   8.942  22.212  0.00  0.00    +0.000 C 
BRANCH  15  17
ATOM     16  C   UNL     1      -0.689  10.551  22.588  0.00  0.00    +0.000 C 
ATOM     17  C   UNL     1       0.214   9.482  23.206  0.00  0.00    +0.000 C 
ENDBRANCH  15  17
ENDBRANCH  14  15
ENDBRANCH   1  14
BRANCH  13  18
ATOM     18  C   UNL     1       2.146   8.958  18.567  0.00  0.00    +0.000 C 
BRANCH  18  19
ATOM     19  C   UNL     1       0.841   9.497  17.873  0.00  0.00    +0.000 C 
BRANCH  19  20
ATOM     20  C   UNL     1      -0.291  10.113  18.858  0.00  0.00    +0.000 C 
BRANCH  20  21
ATOM     21  C   UNL     1      -1.514  10.697  18.068  0.00  0.00    +0.000 C 
BRANCH  21  22
ATOM     22  N   UNL     1      -2.516  11.840  18.327  0.00  0.00    +0.000 NA
ATOM     23  C   UNL     1      -1.765  12.365  19.523  0.00  0.00    +0.000 C 
ATOM     24  C   UNL     1      -2.769  13.114  20.236  0.00  0.00    +0.000 C 
ATOM     25  C   UNL     1      -4.091  12.709  20.800  0.00  0.00    +0.000 A 
ATOM     26  C   UNL     1      -3.845  12.729  22.240  0.00  0.00    +0.000 A 
ATOM     27  C   UNL     1      -4.580  13.557  22.976  0.00  0.00    +0.000 A 
ATOM     28  C   UNL     1      -5.505  14.178  22.180  0.00  0.00    +0.000 A 
ATOM     29  C   UNL     1      -5.689  13.783  20.680  0.00  0.00    +0.000 A 
ATOM     30  C   UNL     1      -5.050  12.889  19.807  0.00  0.00    +0.000 A 
ATOM     31  C   UNL     1      -4.223  11.754  18.743  0.00  0.00    +0.000 C 
ENDBRANCH  21  22
ENDBRANCH  20  21
ENDBRANCH  19  20
ENDBRANCH  18  19
ENDBRANCH  13  18
TORSDOF 8
ENDMDL
