MODEL 1
REMARK VINA RESULT:      -8.4      0.000      0.000
REMARK  Name = 
REMARK  7 active torsions:
REMARK  status: ('A' for Active; 'I' for Inactive)
REMARK    1  A    between atoms: C_1  and  O_2
REMARK    2  A    between atoms: O_2  and  C_3
REMARK    3  A    between atoms: C_3  and  C_5
REMARK    4  A    between atoms: C_6  and  N_7
REMARK    5  A    between atoms: C_9  and  C_10
REMARK    6  A    between atoms: C_10  and  C_12
REMARK    7  A    between atoms: C_18  and  C_19
REMARK                            x       y       z     vdW  Elec       q    Type
REMARK                         _______ _______ _______ _____ _____    ______ ____
ROOT
ATOM      1  C   UNL     1       3.692   3.673  19.576  0.00  0.00    +0.000 A 
ATOM      2  C   UNL     1       2.729   4.232  20.400  0.00  0.00    +0.000 A 
ATOM      3  N   UNL     1       2.515   5.511  19.998  0.00  0.00    +0.000 N 
ATOM      4  C   UNL     1       3.269   5.818  18.887  0.00  0.00    +0.000 A 
ATOM      5  C   UNL     1       4.016   4.678  18.570  0.00  0.00    +0.000 A 
ATOM      6  H   UNL     1       1.886   6.152  20.459  0.00  0.00    +0.000 HD
ENDROOT
BRANCH   5   7
ATOM      7  C   UNL     1       5.012   4.599  17.479  0.00  0.00    +0.000 A 
ATOM      8  C   UNL     1       4.549   4.265  16.189  0.00  0.00    +0.000 A 
ATOM      9  C   UNL     1       5.404   4.212  15.082  0.00  0.00    +0.000 A 
ATOM     10  C   UNL     1       6.766   4.407  15.249  0.00  0.00    +0.000 A 
ATOM     11  C   UNL     1       7.261   4.714  16.512  0.00  0.00    +0.000 A 
ATOM     12  C   UNL     1       6.391   4.866  17.608  0.00  0.00    +0.000 A 
ATOM     13 BR   UNL     1       7.210   5.608  19.158  0.00  0.00    +0.000 Br
ENDBRANCH   5   7
BRANCH   2  14
ATOM     14  N   UNL     1       2.036   3.747  21.444  0.00  0.00    +0.000 N 
ATOM     15  H   UNL     1       1.518   2.872  21.364  0.00  0.00    +0.000 HD
ATOM     16  H   UNL     1       1.996   4.172  22.364  0.00  0.00    +0.000 HD
ENDBRANCH   2  14
BRANCH   1  17
ATOM     17  C   UNL     1       4.231   2.320  19.725  0.00  0.00    +0.000 C 
ATOM     18  O   UNL     1       4.893   1.946  20.687  0.00  0.00    +0.000 OA
BRANCH  17  20
ATOM     19  C   UNL     1       2.555   1.676  18.207  0.00  0.00    +0.000 C 
ATOM     20  O   UNL     1       3.887   1.492  18.686  0.00  0.00    +0.000 OA
ENDBRANCH  17  20
ENDBRANCH   1  17
BRANCH   4  21
ATOM     21  C   UNL     1       3.240   7.147  18.298  0.00  0.00    +0.000 C 
ATOM     22  O   UNL     1       4.040   7.507  17.438  0.00  0.00    +0.000 OA
BRANCH  21  23
ATOM     23  C   UNL     1       2.194   8.128  18.768  0.00  0.00    +0.000 A 
ATOM     24  C   UNL     1       1.781   8.208  20.110  0.00  0.00    +0.000 A 
ATOM     25  C   UNL     1       0.793   9.116  20.497  0.00  0.00    +0.000 A 
ATOM     26  C   UNL     1       0.189   9.936  19.548  0.00  0.00    +0.000 A 
ATOM     27  C   UNL     1       0.566   9.844  18.209  0.00  0.00    +0.000 A 
ATOM     28  C   UNL     1       1.565   8.946  17.820  0.00  0.00    +0.000 A 
ENDBRANCH  21  23
ENDBRANCH   4  21
TORSDOF 6
ENDMDL
MODEL 2
REMARK VINA RESULT:      -8.3      1.596      2.197
REMARK  Name = 
REMARK  7 active torsions:
REMARK  status: ('A' for Active; 'I' for Inactive)
REMARK    1  A    between atoms: C_1  and  O_2
REMARK    2  A    between atoms: O_2  and  C_3
REMARK    3  A    between atoms: C_3  and  C_5
REMARK    4  A    between atoms: C_6  and  N_7
REMARK    5  A    between atoms: C_9  and  C_10
REMARK    6  A    between atoms: C_10  and  C_12
REMARK    7  A    between atoms: C_18  and  C_19
REMARK                            x       y       z     vdW  Elec       q    Type
REMARK                         _______ _______ _______ _____ _____    ______ ____
ROOT
ATOM      1  C   UNL     1       3.136   3.367  18.545  0.00  0.00    +0.000 A 
ATOM      2  C   UNL     1       1.783   3.645  18.434  0.00  0.00    +0.000 A 
ATOM      3  N   UNL     1       1.641   4.968  18.163  0.00  0.00    +0.000 N 
ATOM      4  C   UNL     1       2.865   5.585  18.035  0.00  0.00    +0.000 A 
ATOM      5  C   UNL     1       3.843   4.608  18.246  0.00  0.00    +0.000 A 
ATOM      6  H   UNL     1       0.751   5.436  18.074  0.00  0.00    +0.000 HD
ENDROOT
BRANCH   5   7
ATOM      7  C   UNL     1       5.300   4.861  18.264  0.00  0.00    +0.000 A 
ATOM      8  C   UNL     1       5.874   5.316  19.470  0.00  0.00    +0.000 A 
ATOM      9  C   UNL     1       7.249   5.539  19.602  0.00  0.00    +0.000 A 
ATOM     10  C   UNL     1       8.083   5.396  18.504  0.00  0.00    +0.000 A 
ATOM     11  C   UNL     1       7.547   4.973  17.292  0.00  0.00    +0.000 A 
ATOM     12  C   UNL     1       6.181   4.653  17.183  0.00  0.00    +0.000 A 
ATOM     13 BR   UNL     1       5.711   3.782  15.556  0.00  0.00    +0.000 Br
ENDBRANCH   5   7
BRANCH   2  14
ATOM     14  N   UNL     1       0.687   2.875  18.544  0.00  0.00    +0.000 N 
ATOM     15  H   UNL     1       0.735   1.964  18.999  0.00  0.00    +0.000 HD
ATOM     16  H   UNL     1      -0.241   3.135  18.227  0.00  0.00    +0.000 HD
ENDBRANCH   2  14
BRANCH   1  17
ATOM     17  C   UNL     1       3.691   2.055  18.882  0.00  0.00    +0.000 C 
ATOM     18  O   UNL     1       3.725   1.104  18.107  0.00  0.00    +0.000 OA
BRANCH  17  20
ATOM     19  C   UNL     1       3.300   2.425  21.170  0.00  0.00    +0.000 C 
ATOM     20  O   UNL     1       4.208   2.005  20.152  0.00  0.00    +0.000 OA
ENDBRANCH  17  20
ENDBRANCH   1  17
BRANCH   4  21
ATOM     21  C   UNL     1       2.968   7.014  17.785  0.00  0.00    +0.000 C 
ATOM     22  O   UNL     1       3.693   7.483  16.911  0.00  0.00    +0.000 OA
BRANCH  21  23
ATOM     23  C   UNL     1       2.164   7.962  18.641  0.00  0.00    +0.000 A 
ATOM     24  C   UNL     1       1.946   7.742  20.013  0.00  0.00    +0.000 A 
ATOM     25  C   UNL     1       1.175   8.633  20.763  0.00  0.00    +0.000 A 
ATOM     26  C   UNL     1       0.594   9.740  20.149  0.00  0.00    +0.000 A 
ATOM     27  C   UNL     1       0.776   9.953  18.784  0.00  0.00    +0.000 A 
ATOM     28  C   UNL     1       1.558   9.069  18.033  0.00  0.00    +0.000 A 
ENDBRANCH  21  23
ENDBRANCH   4  21
TORSDOF 6
ENDMDL
MODEL 3
REMARK VINA RESULT:      -8.1      0.502      1.041
REMARK  Name = 
REMARK  7 active torsions:
REMARK  status: ('A' for Active; 'I' for Inactive)
REMARK    1  A    between atoms: C_1  and  O_2
REMARK    2  A    between atoms: O_2  and  C_3
REMARK    3  A    between atoms: C_3  and  C_5
REMARK    4  A    between atoms: C_6  and  N_7
REMARK    5  A    between atoms: C_9  and  C_10
REMARK    6  A    between atoms: C_10  and  C_12
REMARK    7  A    between atoms: C_18  and  C_19
REMARK                            x       y       z     vdW  Elec       q    Type
REMARK                         _______ _______ _______ _____ _____    ______ ____
ROOT
ATOM      1  C   UNL     1       3.513   3.557  19.287  0.00  0.00    +0.000 A 
ATOM      2  C   UNL     1       2.490   4.073  20.066  0.00  0.00    +0.000 A 
ATOM      3  N   UNL     1       2.304   5.372  19.719  0.00  0.00    +0.000 N 
ATOM      4  C   UNL     1       3.138   5.737  18.685  0.00  0.00    +0.000 A 
ATOM      5  C   UNL     1       3.908   4.614  18.362  0.00  0.00    +0.000 A 
ATOM      6  H   UNL     1       1.643   5.989  20.167  0.00  0.00    +0.000 HD
ENDROOT
BRANCH   5   7
ATOM      7  C   UNL     1       4.982   4.592  17.345  0.00  0.00    +0.000 A 
ATOM      8  C   UNL     1       4.619   4.305  16.013  0.00  0.00    +0.000 A 
ATOM      9  C   UNL     1       5.553   4.307  14.970  0.00  0.00    +0.000 A 
ATOM     10  C   UNL     1       6.896   4.513  15.244  0.00  0.00    +0.000 A 
ATOM     11  C   UNL     1       7.293   4.774  16.550  0.00  0.00    +0.000 A 
ATOM     12  C   UNL     1       6.344   4.871  17.585  0.00  0.00    +0.000 A 
ATOM     13 BR   UNL     1       7.036   5.560  19.219  0.00  0.00    +0.000 Br
ENDBRANCH   5   7
BRANCH   2  14
ATOM     14  N   UNL     1       1.724   3.533  21.029  0.00  0.00    +0.000 N 
ATOM     15  H   UNL     1       0.710   3.638  21.007  0.00  0.00    +0.000 HD
ATOM     16  H   UNL     1       2.068   2.977  21.804  0.00  0.00    +0.000 HD
ENDBRANCH   2  14
BRANCH   1  17
ATOM     17  C   UNL     1       4.042   2.197  19.401  0.00  0.00    +0.000 C 
ATOM     18  O   UNL     1       3.559   1.222  18.834  0.00  0.00    +0.000 OA
BRANCH  17  20
ATOM     19  C   UNL     1       5.121   1.103  21.180  0.00  0.00    +0.000 C 
ATOM     20  O   UNL     1       5.166   2.125  20.185  0.00  0.00    +0.000 OA
ENDBRANCH  17  20
ENDBRANCH   1  17
BRANCH   4  21
ATOM     21  C   UNL     1       3.150   7.096  18.168  0.00  0.00    +0.000 C 
ATOM     22  O   UNL     1       3.941   7.468  17.305  0.00  0.00    +0.000 OA
BRANCH  21  23
ATOM     23  C   UNL     1       2.160   8.093  18.720  0.00  0.00    +0.000 A 
ATOM     24  C   UNL     1       1.820   8.145  20.083  0.00  0.00    +0.000 A 
ATOM     25  C   UNL     1       0.882   9.070  20.547  0.00  0.00    +0.000 A 
ATOM     26  C   UNL     1       0.254   9.935  19.654  0.00  0.00    +0.000 A 
ATOM     27  C   UNL     1       0.558   9.871  18.296  0.00  0.00    +0.000 A 
ATOM     28  C   UNL     1       1.507   8.956  17.830  0.00  0.00    +0.000 A 
ENDBRANCH  21  23
ENDBRANCH   4  21
TORSDOF 6
ENDMDL
MODEL 4
REMARK VINA RESULT:      -8.0      0.855      1.562
REMARK  Name = 
REMARK  7 active torsions:
REMARK  status: ('A' for Active; 'I' for Inactive)
REMARK    1  A    between atoms: C_1  and  O_2
REMARK    2  A    between atoms: O_2  and  C_3
REMARK    3  A    between atoms: C_3  and  C_5
REMARK    4  A    between atoms: C_6  and  N_7
REMARK    5  A    between atoms: C_9  and  C_10
REMARK    6  A    between atoms: C_10  and  C_12
REMARK    7  A    between atoms: C_18  and  C_19
REMARK                            x       y       z     vdW  Elec       q    Type
REMARK                         _______ _______ _______ _____ _____    ______ ____
ROOT
ATOM      1  C   UNL     1       2.904   3.445  18.585  0.00  0.00    +0.000 A 
ATOM      2  C   UNL     1       1.808   3.949  19.265  0.00  0.00    +0.000 A 
ATOM      3  N   UNL     1       1.788   5.296  19.101  0.00  0.00    +0.000 N 
ATOM      4  C   UNL     1       2.814   5.715  18.283  0.00  0.00    +0.000 A 
ATOM      5  C   UNL     1       3.536   4.575  17.913  0.00  0.00    +0.000 A 
ATOM      6  H   UNL     1       1.111   5.910  19.531  0.00  0.00    +0.000 HD
ENDROOT
BRANCH   5   7
ATOM      7  C   UNL     1       4.763   4.585  17.087  0.00  0.00    +0.000 A 
ATOM      8  C   UNL     1       4.622   4.380  15.698  0.00  0.00    +0.000 A 
ATOM      9  C   UNL     1       5.716   4.419  14.825  0.00  0.00    +0.000 A 
ATOM     10  C   UNL     1       6.997   4.578  15.328  0.00  0.00    +0.000 A 
ATOM     11  C   UNL     1       7.176   4.758  16.695  0.00  0.00    +0.000 A 
ATOM     12  C   UNL     1       6.069   4.819  17.563  0.00  0.00    +0.000 A 
ATOM     13 BR   UNL     1       6.491   5.400  19.327  0.00  0.00    +0.000 Br
ENDBRANCH   5   7
BRANCH   2  14
ATOM     14  N   UNL     1       0.846   3.362  19.997  0.00  0.00    +0.000 N 
ATOM     15  H   UNL     1      -0.135   3.599  19.855  0.00  0.00    +0.000 HD
ATOM     16  H   UNL     1       1.004   2.645  20.698  0.00  0.00    +0.000 HD
ENDBRANCH   2  14
BRANCH   1  17
ATOM     17  C   UNL     1       3.295   2.034  18.565  0.00  0.00    +0.000 C 
ATOM     18  O   UNL     1       3.461   1.381  17.540  0.00  0.00    +0.000 OA
BRANCH  17  20
ATOM     19  C   UNL     1       4.648   2.031  20.488  0.00  0.00    +0.000 C 
ATOM     20  O   UNL     1       3.495   1.518  19.821  0.00  0.00    +0.000 OA
ENDBRANCH  17  20
ENDBRANCH   1  17
BRANCH   4  21
ATOM     21  C   UNL     1       3.023   7.125  17.994  0.00  0.00    +0.000 C 
ATOM     22  O   UNL     1       3.940   7.525  17.281  0.00  0.00    +0.000 OA
BRANCH  21  23
ATOM     23  C   UNL     1       2.085   8.138  18.603  0.00  0.00    +0.000 A 
ATOM     24  C   UNL     1       1.485   9.162  17.849  0.00  0.00    +0.000 A 
ATOM     25  C   UNL     1       0.640  10.093  18.458  0.00  0.00    +0.000 A 
ATOM     26  C   UNL     1       0.405  10.029  19.829  0.00  0.00    +0.000 A 
ATOM     27  C   UNL     1       1.020   9.039  20.594  0.00  0.00    +0.000 A 
ATOM     28  C   UNL     1       1.855   8.097  19.985  0.00  0.00    +0.000 A 
ENDBRANCH  21  23
ENDBRANCH   4  21
TORSDOF 6
ENDMDL
MODEL 5
REMARK VINA RESULT:      -7.9      1.349      1.840
REMARK  Name = 
REMARK  7 active torsions:
REMARK  status: ('A' for Active; 'I' for Inactive)
REMARK    1  A    between atoms: C_1  and  O_2
REMARK    2  A    between atoms: O_2  and  C_3
REMARK    3  A    between atoms: C_3  and  C_5
REMARK    4  A    between atoms: C_6  and  N_7
REMARK    5  A    between atoms: C_9  and  C_10
REMARK    6  A    between atoms: C_10  and  C_12
REMARK    7  A    between atoms: C_18  and  C_19
REMARK                            x       y       z     vdW  Elec       q    Type
REMARK                         _______ _______ _______ _____ _____    ______ ____
ROOT
ATOM      1  C   UNL     1       3.138   3.805  19.825  0.00  0.00    +0.000 A 
ATOM      2  C   UNL     1       1.805   4.152  19.973  0.00  0.00    +0.000 A 
ATOM      3  N   UNL     1       1.624   5.385  19.434  0.00  0.00    +0.000 N 
ATOM      4  C   UNL     1       2.789   5.862  18.875  0.00  0.00    +0.000 A 
ATOM      5  C   UNL     1       3.771   4.886  19.079  0.00  0.00    +0.000 A 
ATOM      6  H   UNL     1       0.748   5.887  19.448  0.00  0.00    +0.000 HD
ENDROOT
BRANCH   5   7
ATOM      7  C   UNL     1       5.191   5.026  18.690  0.00  0.00    +0.000 A 
ATOM      8  C   UNL     1       6.107   5.436  19.681  0.00  0.00    +0.000 A 
ATOM      9  C   UNL     1       7.479   5.551  19.426  0.00  0.00    +0.000 A 
ATOM     10  C   UNL     1       7.965   5.341  18.145  0.00  0.00    +0.000 A 
ATOM     11  C   UNL     1       7.086   4.959  17.137  0.00  0.00    +0.000 A 
ATOM     12  C   UNL     1       5.723   4.747  17.413  0.00  0.00    +0.000 A 
ATOM     13 BR   UNL     1       4.759   3.912  15.999  0.00  0.00    +0.000 Br
ENDBRANCH   5   7
BRANCH   2  14
ATOM     14  N   UNL     1       0.757   3.514  20.521  0.00  0.00    +0.000 N 
ATOM     15  H   UNL     1       0.190   3.964  21.239  0.00  0.00    +0.000 HD
ATOM     16  H   UNL     1       0.437   2.587  20.258  0.00  0.00    +0.000 HD
ENDBRANCH   2  14
BRANCH   1  17
ATOM     17  C   UNL     1       3.736   2.566  20.326  0.00  0.00    +0.000 C 
ATOM     18  O   UNL     1       3.646   2.181  21.487  0.00  0.00    +0.000 OA
BRANCH  17  20
ATOM     19  C   UNL     1       3.520   1.317  18.346  0.00  0.00    +0.000 C 
ATOM     20  O   UNL     1       4.383   1.853  19.349  0.00  0.00    +0.000 OA
ENDBRANCH  17  20
ENDBRANCH   1  17
BRANCH   4  21
ATOM     21  C   UNL     1       2.852   7.183  18.272  0.00  0.00    +0.000 C 
ATOM     22  O   UNL     1       3.614   7.453  17.347  0.00  0.00    +0.000 OA
BRANCH  21  23
ATOM     23  C   UNL     1       1.957   8.272  18.812  0.00  0.00    +0.000 A 
ATOM     24  C   UNL     1       1.647   8.389  20.178  0.00  0.00    +0.000 A 
ATOM     25  C   UNL     1       0.795   9.399  20.632  0.00  0.00    +0.000 A 
ATOM     26  C   UNL     1       0.224  10.288  19.724  0.00  0.00    +0.000 A 
ATOM     27  C   UNL     1       0.497  10.164  18.363  0.00  0.00    +0.000 A 
ATOM     28  C   UNL     1       1.361   9.162  17.908  0.00  0.00    +0.000 A 
ENDBRANCH  21  23
ENDBRANCH   4  21
TORSDOF 6
ENDMDL
MODEL 6
REMARK VINA RESULT:      -7.7      2.990      4.722
REMARK  Name = 
REMARK  7 active torsions:
REMARK  status: ('A' for Active; 'I' for Inactive)
REMARK    1  A    between atoms: C_1  and  O_2
REMARK    2  A    between atoms: O_2  and  C_3
REMARK    3  A    between atoms: C_3  and  C_5
REMARK    4  A    between atoms: C_6  and  N_7
REMARK    5  A    between atoms: C_9  and  C_10
REMARK    6  A    between atoms: C_10  and  C_12
REMARK    7  A    between atoms: C_18  and  C_19
REMARK                            x       y       z     vdW  Elec       q    Type
REMARK                         _______ _______ _______ _____ _____    ______ ____
ROOT
ATOM      1  C   UNL     1       6.313   5.504  17.502  0.00  0.00    +0.000 A 
ATOM      2  C   UNL     1       6.196   6.872  17.319  0.00  0.00    +0.000 A 
ATOM      3  N   UNL     1       4.943   7.245  17.685  0.00  0.00    +0.000 N 
ATOM      4  C   UNL     1       4.223   6.173  18.163  0.00  0.00    +0.000 A 
ATOM      5  C   UNL     1       5.056   5.051  18.087  0.00  0.00    +0.000 A 
ATOM      6  H   UNL     1       4.587   8.186  17.610  0.00  0.00    +0.000 HD
ENDROOT
BRANCH   5   7
ATOM      7  C   UNL     1       4.650   3.673  18.440  0.00  0.00    +0.000 A 
ATOM      8  C   UNL     1       4.983   3.200  19.726  0.00  0.00    +0.000 A 
ATOM      9  C   UNL     1       4.602   1.929  20.174  0.00  0.00    +0.000 A 
ATOM     10  C   UNL     1       3.950   1.059  19.313  0.00  0.00    +0.000 A 
ATOM     11  C   UNL     1       3.628   1.484  18.029  0.00  0.00    +0.000 A 
ATOM     12  C   UNL     1       3.921   2.795  17.611  0.00  0.00    +0.000 A 
ATOM     13 BR   UNL     1       3.111   3.288  15.960  0.00  0.00    +0.000 Br
ENDBRANCH   5   7
BRANCH   2  14
ATOM     14  N   UNL     1       7.055   7.804  16.874  0.00  0.00    +0.000 N 
ATOM     15  H   UNL     1       7.307   8.602  17.457  0.00  0.00    +0.000 HD
ATOM     16  H   UNL     1       7.528   7.779  15.976  0.00  0.00    +0.000 HD
ENDBRANCH   2  14
BRANCH   1  17
ATOM     17  C   UNL     1       7.504   4.719  17.171  0.00  0.00    +0.000 C 
ATOM     18  O   UNL     1       8.167   4.096  17.994  0.00  0.00    +0.000 OA
BRANCH  17  20
ATOM     19  C   UNL     1       6.740   4.197  15.009  0.00  0.00    +0.000 C 
ATOM     20  O   UNL     1       7.786   4.719  15.828  0.00  0.00    +0.000 OA
ENDBRANCH  17  20
ENDBRANCH   1  17
BRANCH   4  21
ATOM     21  C   UNL     1       2.837   6.318  18.577  0.00  0.00    +0.000 C 
ATOM     22  O   UNL     1       2.155   7.294  18.276  0.00  0.00    +0.000 OA
BRANCH  21  23
ATOM     23  C   UNL     1       2.213   5.233  19.421  0.00  0.00    +0.000 A 
ATOM     24  C   UNL     1       2.521   5.062  20.782  0.00  0.00    +0.000 A 
ATOM     25  C   UNL     1       1.937   4.030  21.520  0.00  0.00    +0.000 A 
ATOM     26  C   UNL     1       1.059   3.142  20.904  0.00  0.00    +0.000 A 
ATOM     27  C   UNL     1       0.770   3.280  19.547  0.00  0.00    +0.000 A 
ATOM     28  C   UNL     1       1.342   4.321  18.809  0.00  0.00    +0.000 A 
ENDBRANCH  21  23
ENDBRANCH   4  21
TORSDOF 6
ENDMDL
MODEL 7
REMARK VINA RESULT:      -7.6      7.148      9.339
REMARK  Name = 
REMARK  7 active torsions:
REMARK  status: ('A' for Active; 'I' for Inactive)
REMARK    1  A    between atoms: C_1  and  O_2
REMARK    2  A    between atoms: O_2  and  C_3
REMARK    3  A    between atoms: C_3  and  C_5
REMARK    4  A    between atoms: C_6  and  N_7
REMARK    5  A    between atoms: C_9  and  C_10
REMARK    6  A    between atoms: C_10  and  C_12
REMARK    7  A    between atoms: C_18  and  C_19
REMARK                            x       y       z     vdW  Elec       q    Type
REMARK                         _______ _______ _______ _____ _____    ______ ____
ROOT
ATOM      1  C   UNL     1       0.845  13.470  19.889  0.00  0.00    +0.000 A 
ATOM      2  C   UNL     1       0.206  14.514  19.241  0.00  0.00    +0.000 A 
ATOM      3  N   UNL     1      -1.063  14.127  18.957  0.00  0.00    +0.000 N 
ATOM      4  C   UNL     1      -1.321  12.865  19.444  0.00  0.00    +0.000 A 
ATOM      5  C   UNL     1      -0.149  12.415  20.062  0.00  0.00    +0.000 A 
ATOM      6  H   UNL     1      -1.728  14.691  18.449  0.00  0.00    +0.000 HD
ENDROOT
BRANCH   5   7
ATOM      7  C   UNL     1       0.029  11.075  20.662  0.00  0.00    +0.000 A 
ATOM      8  C   UNL     1       0.875  10.164  19.996  0.00  0.00    +0.000 A 
ATOM      9  C   UNL     1       1.146   8.889  20.507  0.00  0.00    +0.000 A 
ATOM     10  C   UNL     1       0.508   8.455  21.659  0.00  0.00    +0.000 A 
ATOM     11  C   UNL     1      -0.353   9.319  22.328  0.00  0.00    +0.000 A 
ATOM     12  C   UNL     1      -0.549  10.635  21.871  0.00  0.00    +0.000 A 
ATOM     13 BR   UNL     1      -1.486  11.755  23.093  0.00  0.00    +0.000 Br
ENDBRANCH   5   7
BRANCH   2  14
ATOM     14  N   UNL     1       0.615  15.742  18.880  0.00  0.00    +0.000 N 
ATOM     15  H   UNL     1       0.132  16.256  18.144  0.00  0.00    +0.000 HD
ATOM     16  H   UNL     1       1.382  16.250  19.309  0.00  0.00    +0.000 HD
ENDBRANCH   2  14
BRANCH   1  17
ATOM     17  C   UNL     1       2.246  13.485  20.313  0.00  0.00    +0.000 C 
ATOM     18  O   UNL     1       2.621  13.247  21.457  0.00  0.00    +0.000 OA
BRANCH  17  20
ATOM     19  C   UNL     1       4.072  14.772  19.582  0.00  0.00    +0.000 C 
ATOM     20  O   UNL     1       3.112  13.759  19.285  0.00  0.00    +0.000 OA
ENDBRANCH  17  20
ENDBRANCH   1  17
BRANCH   4  21
ATOM     21  C   UNL     1      -2.605  12.218  19.226  0.00  0.00    +0.000 C 
ATOM     22  O   UNL     1      -3.524  12.281  20.038  0.00  0.00    +0.000 OA
BRANCH  21  23
ATOM     23  C   UNL     1      -2.813  11.425  17.959  0.00  0.00    +0.000 A 
ATOM     24  C   UNL     1      -3.943  11.593  17.139  0.00  0.00    +0.000 A 
ATOM     25  C   UNL     1      -4.107  10.822  15.986  0.00  0.00    +0.000 A 
ATOM     26  C   UNL     1      -3.158   9.858  15.651  0.00  0.00    +0.000 A 
ATOM     27  C   UNL     1      -2.050   9.660  16.472  0.00  0.00    +0.000 A 
ATOM     28  C   UNL     1      -1.876  10.440  17.619  0.00  0.00    +0.000 A 
ENDBRANCH  21  23
ENDBRANCH   4  21
TORSDOF 6
ENDMDL
MODEL 8
REMARK VINA RESULT:      -7.5      5.154      9.380
REMARK  Name = 
REMARK  7 active torsions:
REMARK  status: ('A' for Active; 'I' for Inactive)
REMARK    1  A    between atoms: C_1  and  O_2
REMARK    2  A    between atoms: O_2  and  C_3
REMARK    3  A    between atoms: C_3  and  C_5
REMARK    4  A    between atoms: C_6  and  N_7
REMARK    5  A    between atoms: C_9  and  C_10
REMARK    6  A    between atoms: C_10  and  C_12
REMARK    7  A    between atoms: C_18  and  C_19
REMARK                            x       y       z     vdW  Elec       q    Type
REMARK                         _______ _______ _______ _____ _____    ______ ____
ROOT
ATOM      1  C   UNL     1      -2.616  11.065  18.285  0.00  0.00    +0.000 A 
ATOM      2  C   UNL     1      -2.321  10.267  17.191  0.00  0.00    +0.000 A 
ATOM      3  N   UNL     1      -0.996   9.978  17.219  0.00  0.00    +0.000 N 
ATOM      4  C   UNL     1      -0.391  10.515  18.334  0.00  0.00    +0.000 A 
ATOM      5  C   UNL     1      -1.381  11.195  19.051  0.00  0.00    +0.000 A 
ATOM      6  H   UNL     1      -0.517   9.442  16.510  0.00  0.00    +0.000 HD
ENDROOT
BRANCH   5   7
ATOM      7  C   UNL     1      -1.144  11.974  20.285  0.00  0.00    +0.000 A 
ATOM      8  C   UNL     1      -1.288  11.309  21.521  0.00  0.00    +0.000 A 
ATOM      9  C   UNL     1      -1.039  11.945  22.743  0.00  0.00    +0.000 A 
ATOM     10  C   UNL     1      -0.720  13.294  22.769  0.00  0.00    +0.000 A 
ATOM     11  C   UNL     1      -0.594  13.988  21.570  0.00  0.00    +0.000 A 
ATOM     12  C   UNL     1      -0.746  13.327  20.337  0.00  0.00    +0.000 A 
ATOM     13 BR   UNL     1      -0.209  14.356  18.828  0.00  0.00    +0.000 Br
ENDBRANCH   5   7
BRANCH   2  14
ATOM     14  N   UNL     1      -3.080   9.779  16.195  0.00  0.00    +0.000 N 
ATOM     15  H   UNL     1      -3.213   8.774  16.086  0.00  0.00    +0.000 HD
ATOM     16  H   UNL     1      -3.584  10.342  15.518  0.00  0.00    +0.000 HD
ENDBRANCH   2  14
BRANCH   1  17
ATOM     17  C   UNL     1      -3.936  11.628  18.574  0.00  0.00    +0.000 C 
ATOM     18  O   UNL     1      -4.167  12.396  19.502  0.00  0.00    +0.000 OA
BRANCH  17  20
ATOM     19  C   UNL     1      -5.668  12.306  17.136  0.00  0.00    +0.000 C 
ATOM     20  O   UNL     1      -4.893  11.234  17.673  0.00  0.00    +0.000 OA
ENDBRANCH  17  20
ENDBRANCH   1  17
BRANCH   4  21
ATOM     21  C   UNL     1       1.038  10.373  18.561  0.00  0.00    +0.000 C 
ATOM     22  O   UNL     1       1.818  11.318  18.480  0.00  0.00    +0.000 OA
BRANCH  21  23
ATOM     23  C   UNL     1       1.589   9.008  18.897  0.00  0.00    +0.000 A 
ATOM     24  C   UNL     1       2.250   8.205  17.951  0.00  0.00    +0.000 A 
ATOM     25  C   UNL     1       2.724   6.938  18.300  0.00  0.00    +0.000 A 
ATOM     26  C   UNL     1       2.522   6.448  19.587  0.00  0.00    +0.000 A 
ATOM     27  C   UNL     1       1.839   7.220  20.525  0.00  0.00    +0.000 A 
ATOM     28  C   UNL     1       1.376   8.495  20.184  0.00  0.00    +0.000 A 
ENDBRANCH  21  23
ENDBRANCH   4  21
TORSDOF 6
ENDMDL
MODEL 9
REMARK VINA RESULT:      -7.4      5.255      9.476
REMARK  Name = 
REMARK  7 active torsions:
REMARK  status: ('A' for Active; 'I' for Inactive)
REMARK    1  A    between atoms: C_1  and  O_2
REMARK    2  A    between atoms: O_2  and  C_3
REMARK    3  A    between atoms: C_3  and  C_5
REMARK    4  A    between atoms: C_6  and  N_7
REMARK    5  A    between atoms: C_9  and  C_10
REMARK    6  A    between atoms: C_10  and  C_12
REMARK    7  A    between atoms: C_18  and  C_19
REMARK                            x       y       z     vdW  Elec       q    Type
REMARK                         _______ _______ _______ _____ _____    ______ ____
ROOT
ATOM      1  C   UNL     1      -2.704  11.279  18.373  0.00  0.00    +0.000 A 
ATOM      2  C   UNL     1      -2.418  10.475  17.281  0.00  0.00    +0.000 A 
ATOM      3  N   UNL     1      -1.098  10.164  17.316  0.00  0.00    +0.000 N 
ATOM      4  C   UNL     1      -0.489  10.692  18.433  0.00  0.00    +0.000 A 
ATOM      5  C   UNL     1      -1.471  11.390  19.145  0.00  0.00    +0.000 A 
ATOM      6  H   UNL     1      -0.624   9.620  16.609  0.00  0.00    +0.000 HD
ENDROOT
BRANCH   5   7
ATOM      7  C   UNL     1      -1.226  12.166  20.379  0.00  0.00    +0.000 A 
ATOM      8  C   UNL     1      -1.393  11.507  21.615  0.00  0.00    +0.000 A 
ATOM      9  C   UNL     1      -1.139  12.140  22.837  0.00  0.00    +0.000 A 
ATOM     10  C   UNL     1      -0.793  13.482  22.863  0.00  0.00    +0.000 A 
ATOM     11  C   UNL     1      -0.644  14.170  21.664  0.00  0.00    +0.000 A 
ATOM     12  C   UNL     1      -0.802  13.511  20.431  0.00  0.00    +0.000 A 
ATOM     13 BR   UNL     1      -0.234  14.525  18.924  0.00  0.00    +0.000 Br
ENDBRANCH   5   7
BRANCH   2  14
ATOM     14  N   UNL     1      -3.180   9.998  16.282  0.00  0.00    +0.000 N 
ATOM     15  H   UNL     1      -3.477  10.606  15.519  0.00  0.00    +0.000 HD
ATOM     16  H   UNL     1      -3.484   9.035  16.190  0.00  0.00    +0.000 HD
ENDBRANCH   2  14
BRANCH   1  17
ATOM     17  C   UNL     1      -4.016  11.863  18.656  0.00  0.00    +0.000 C 
ATOM     18  O   UNL     1      -4.344  12.320  19.746  0.00  0.00    +0.000 OA
BRANCH  17  20
ATOM     19  C   UNL     1      -6.197  11.540  17.839  0.00  0.00    +0.000 C 
ATOM     20  O   UNL     1      -4.840  11.881  17.559  0.00  0.00    +0.000 OA
ENDBRANCH  17  20
ENDBRANCH   1  17
BRANCH   4  21
ATOM     21  C   UNL     1       0.937  10.527  18.666  0.00  0.00    +0.000 C 
ATOM     22  O   UNL     1       1.729  11.464  18.611  0.00  0.00    +0.000 OA
BRANCH  21  23
ATOM     23  C   UNL     1       1.468   9.149  18.977  0.00  0.00    +0.000 A 
ATOM     24  C   UNL     1       1.332   8.554  20.243  0.00  0.00    +0.000 A 
ATOM     25  C   UNL     1       1.858   7.284  20.494  0.00  0.00    +0.000 A 
ATOM     26  C   UNL     1       2.547   6.605  19.492  0.00  0.00    +0.000 A 
ATOM     27  C   UNL     1       2.717   7.197  18.241  0.00  0.00    +0.000 A 
ATOM     28  C   UNL     1       2.179   8.462  17.983  0.00  0.00    +0.000 A 
ENDBRANCH  21  23
ENDBRANCH   4  21
TORSDOF 6
ENDMDL
