MODEL 1
REMARK VINA RESULT:      -8.3      0.000      0.000
REMARK  Name = 
REMARK  5 active torsions:
REMARK  status: ('A' for Active; 'I' for Inactive)
REMARK    1  A    between atoms: C_2  and  C_27
REMARK    2  A    between atoms: C_8  and  C_9
REMARK    3  A    between atoms: C_13  and  N_14
REMARK    4  A    between atoms: N_14  and  C_15
REMARK    5  A    between atoms: C_15  and  C_16
REMARK                            x       y       z     vdW  Elec       q    Type
REMARK                         _______ _______ _______ _____ _____    ______ ____
ROOT
ATOM      1  O   UNL     1      -1.079  13.821  21.044  0.00  0.00    +0.000 OA
ATOM      2  C   UNL     1      -1.198  13.058  21.991  0.00  0.00    +0.000 C 
ATOM      3  N   UNL     1      -0.775  11.751  22.093  0.00  0.00    +0.000 N 
ATOM      4  C   UNL     1      -0.075  11.061  21.093  0.00  0.00    +0.000 A 
ATOM      5  C   UNL     1       0.311   9.750  21.358  0.00  0.00    +0.000 A 
ATOM      6  C   UNL     1       1.033   9.030  20.389  0.00  0.00    +0.000 A 
ATOM      7  C   UNL     1       1.469   7.710  20.584  0.00  0.00    +0.000 A 
ATOM      8  C   UNL     1       2.189   7.056  19.580  0.00  0.00    +0.000 A 
ATOM      9  N   UNL     1       2.478   7.673  18.400  0.00  0.00    +0.000 NA
ATOM     10  C   UNL     1       2.050   8.942  18.224  0.00  0.00    +0.000 A 
ATOM     11  C   UNL     1       1.333   9.660  19.175  0.00  0.00    +0.000 A 
ATOM     12  C   UNL     1       0.897  10.969  18.998  0.00  0.00    +0.000 A 
ATOM     13  N   UNL     1       0.211  11.663  19.926  0.00  0.00    +0.000 NA
ATOM     14  H   UNL     1      -0.975  11.254  22.946  0.00  0.00    +0.000 HD
ENDROOT
BRANCH   8  15
ATOM     15  C   UNL     1       2.660   5.662  19.722  0.00  0.00    +0.000 A 
ATOM     16  C   UNL     1       2.186   4.823  20.732  0.00  0.00    +0.000 A 
ATOM     17  N   UNL     1       2.643   3.566  20.931  0.00  0.00    +0.000 NA
ATOM     18  C   UNL     1       3.595   3.170  20.057  0.00  0.00    +0.000 A 
ATOM     19  C   UNL     1       4.071   3.960  19.005  0.00  0.00    +0.000 A 
ATOM     20  N   UNL     1       3.605   5.218  18.836  0.00  0.00    +0.000 NA
BRANCH  19  21
ATOM     21  N   UNL     1       5.000   3.415  18.122  0.00  0.00    +0.000 N 
ATOM     22  H   UNL     1       5.959   3.572  18.428  0.00  0.00    +0.000 HD
BRANCH  21  23
ATOM     23  C   UNL     1       4.791   3.579  16.684  0.00  0.00    +0.000 C 
BRANCH  23  24
ATOM     24  C   UNL     1       5.985   4.200  15.969  0.00  0.00    +0.000 C 
ATOM     25  F   UNL     1       6.281   3.464  14.863  0.00  0.00    +0.000 F 
ATOM     26  C   UNL     1       5.861   5.731  15.741  0.00  0.00    +0.000 C 
ATOM     27  N   UNL     1       7.288   5.862  16.105  0.00  0.00    +0.000 NA
ATOM     28  C   UNL     1       7.191   4.590  16.857  0.00  0.00    +0.000 C 
ATOM     29  H   UNL     1       7.532   6.683  16.656  0.00  0.00    +0.000 HD
ENDBRANCH  23  24
ENDBRANCH  21  23
ENDBRANCH  19  21
ENDBRANCH   8  15
BRANCH   2  30
ATOM     30  C   UNL     1      -1.912  13.533  23.223  0.00  0.00    +0.000 C 
ATOM     31  C   UNL     1      -3.314  14.094  23.117  0.00  0.00    +0.000 C 
ATOM     32  C   UNL     1      -3.095  12.747  23.741  0.00  0.00    +0.000 C 
ENDBRANCH   2  30
TORSDOF 5
ENDMDL
MODEL 2
REMARK VINA RESULT:      -8.1      0.876      1.058
REMARK  Name = 
REMARK  5 active torsions:
REMARK  status: ('A' for Active; 'I' for Inactive)
REMARK    1  A    between atoms: C_2  and  C_27
REMARK    2  A    between atoms: C_8  and  C_9
REMARK    3  A    between atoms: C_13  and  N_14
REMARK    4  A    between atoms: N_14  and  C_15
REMARK    5  A    between atoms: C_15  and  C_16
REMARK                            x       y       z     vdW  Elec       q    Type
REMARK                         _______ _______ _______ _____ _____    ______ ____
ROOT
ATOM      1  O   UNL     1      -1.660  13.514  21.584  0.00  0.00    +0.000 OA
ATOM      2  C   UNL     1      -1.771  12.684  22.474  0.00  0.00    +0.000 C 
ATOM      3  N   UNL     1      -1.280  11.397  22.507  0.00  0.00    +0.000 N 
ATOM      4  C   UNL     1      -0.509  10.813  21.493  0.00  0.00    +0.000 A 
ATOM      5  C   UNL     1      -0.061   9.509  21.687  0.00  0.00    +0.000 A 
ATOM      6  C   UNL     1       0.734   8.895  20.703  0.00  0.00    +0.000 A 
ATOM      7  C   UNL     1       1.234   7.589  20.827  0.00  0.00    +0.000 A 
ATOM      8  C   UNL     1       2.025   7.043  19.813  0.00  0.00    +0.000 A 
ATOM      9  N   UNL     1       2.322   7.752  18.688  0.00  0.00    +0.000 NA
ATOM     10  C   UNL     1       1.831   9.006  18.578  0.00  0.00    +0.000 A 
ATOM     11  C   UNL     1       1.042   9.620  19.545  0.00  0.00    +0.000 A 
ATOM     12  C   UNL     1       0.542  10.913  19.436  0.00  0.00    +0.000 A 
ATOM     13  N   UNL     1      -0.214  11.506  20.379  0.00  0.00    +0.000 NA
ATOM     14  H   UNL     1      -1.483  10.834  23.317  0.00  0.00    +0.000 HD
ENDROOT
BRANCH   8  15
ATOM     15  C   UNL     1       2.566   5.669  19.882  0.00  0.00    +0.000 A 
ATOM     16  C   UNL     1       2.121   4.749  20.832  0.00  0.00    +0.000 A 
ATOM     17  N   UNL     1       2.641   3.507  20.966  0.00  0.00    +0.000 NA
ATOM     18  C   UNL     1       3.626   3.213  20.089  0.00  0.00    +0.000 A 
ATOM     19  C   UNL     1       4.076   4.088  19.094  0.00  0.00    +0.000 A 
ATOM     20  N   UNL     1       3.548   5.328  18.990  0.00  0.00    +0.000 NA
BRANCH  19  21
ATOM     21  N   UNL     1       5.047   3.645  18.199  0.00  0.00    +0.000 N 
ATOM     22  H   UNL     1       5.987   3.906  18.491  0.00  0.00    +0.000 HD
BRANCH  21  23
ATOM     23  C   UNL     1       4.801   3.780  16.764  0.00  0.00    +0.000 C 
BRANCH  23  24
ATOM     24  C   UNL     1       5.657   4.856  16.105  0.00  0.00    +0.000 C 
ATOM     25  F   UNL     1       5.083   6.074  16.303  0.00  0.00    +0.000 F 
ATOM     26  C   UNL     1       7.168   4.763  16.451  0.00  0.00    +0.000 C 
ATOM     27  N   UNL     1       7.471   5.074  15.038  0.00  0.00    +0.000 NA
ATOM     28  C   UNL     1       6.132   4.566  14.661  0.00  0.00    +0.000 C 
ATOM     29  H   UNL     1       8.262   4.576  14.633  0.00  0.00    +0.000 HD
ENDBRANCH  23  24
ENDBRANCH  21  23
ENDBRANCH  19  21
ENDBRANCH   8  15
BRANCH   2  30
ATOM     30  C   UNL     1      -2.553  13.037  23.705  0.00  0.00    +0.000 C 
ATOM     31  C   UNL     1      -2.260  14.324  24.446  0.00  0.00    +0.000 C 
ATOM     32  C   UNL     1      -3.529  14.191  23.655  0.00  0.00    +0.000 C 
ENDBRANCH   2  30
TORSDOF 5
ENDMDL
MODEL 3
REMARK VINA RESULT:      -8.0      4.723     10.321
REMARK  Name = 
REMARK  5 active torsions:
REMARK  status: ('A' for Active; 'I' for Inactive)
REMARK    1  A    between atoms: C_2  and  C_27
REMARK    2  A    between atoms: C_8  and  C_9
REMARK    3  A    between atoms: C_13  and  N_14
REMARK    4  A    between atoms: N_14  and  C_15
REMARK    5  A    between atoms: C_15  and  C_16
REMARK                            x       y       z     vdW  Elec       q    Type
REMARK                         _______ _______ _______ _____ _____    ______ ____
ROOT
ATOM      1  O   UNL     1       5.299   3.437  17.914  0.00  0.00    +0.000 OA
ATOM      2  C   UNL     1       5.284   4.207  16.965  0.00  0.00    +0.000 C 
ATOM      3  N   UNL     1       4.602   5.399  16.844  0.00  0.00    +0.000 N 
ATOM      4  C   UNL     1       3.805   5.965  17.848  0.00  0.00    +0.000 A 
ATOM      5  C   UNL     1       3.203   7.192  17.584  0.00  0.00    +0.000 A 
ATOM      6  C   UNL     1       2.412   7.804  18.573  0.00  0.00    +0.000 A 
ATOM      7  C   UNL     1       1.781   9.045  18.389  0.00  0.00    +0.000 A 
ATOM      8  C   UNL     1       1.014   9.599  19.418  0.00  0.00    +0.000 A 
ATOM      9  N   UNL     1       0.857   8.954  20.609  0.00  0.00    +0.000 NA
ATOM     10  C   UNL     1       1.465   7.760  20.771  0.00  0.00    +0.000 A 
ATOM     11  C   UNL     1       2.247   7.146  19.798  0.00  0.00    +0.000 A 
ATOM     12  C   UNL     1       2.880   5.919  19.966  0.00  0.00    +0.000 A 
ATOM     13  N   UNL     1       3.643   5.334  19.023  0.00  0.00    +0.000 NA
ATOM     14  H   UNL     1       4.685   5.904  15.977  0.00  0.00    +0.000 HD
ENDROOT
BRANCH   8  15
ATOM     15  C   UNL     1       0.315  10.894  19.278  0.00  0.00    +0.000 A 
ATOM     16  C   UNL     1       0.751  12.041  19.941  0.00  0.00    +0.000 A 
ATOM     17  N   UNL     1       0.098  13.225  19.889  0.00  0.00    +0.000 NA
ATOM     18  C   UNL     1      -1.015  13.218  19.121  0.00  0.00    +0.000 A 
ATOM     19  C   UNL     1      -1.466  12.104  18.406  0.00  0.00    +0.000 A 
ATOM     20  N   UNL     1      -0.802  10.929  18.487  0.00  0.00    +0.000 NA
BRANCH  19  21
ATOM     21  N   UNL     1      -2.586  12.239  17.589  0.00  0.00    +0.000 N 
ATOM     22  H   UNL     1      -2.919  13.201  17.547  0.00  0.00    +0.000 HD
BRANCH  21  23
ATOM     23  C   UNL     1      -3.647  11.237  17.670  0.00  0.00    +0.000 C 
BRANCH  23  24
ATOM     24  C   UNL     1      -4.962  11.794  18.205  0.00  0.00    +0.000 C 
ATOM     25  F   UNL     1      -4.711  12.591  19.279  0.00  0.00    +0.000 F 
ATOM     26  C   UNL     1      -5.879  12.409  17.114  0.00  0.00    +0.000 C 
ATOM     27  N   UNL     1      -7.035  11.776  17.783  0.00  0.00    +0.000 NA
ATOM     28  C   UNL     1      -6.117  10.778  18.380  0.00  0.00    +0.000 C 
ATOM     29  H   UNL     1      -7.755  11.401  17.168  0.00  0.00    +0.000 HD
ENDBRANCH  23  24
ENDBRANCH  21  23
ENDBRANCH  19  21
ENDBRANCH   8  15
BRANCH   2  30
ATOM     30  C   UNL     1       6.064   3.859  15.731  0.00  0.00    +0.000 C 
ATOM     31  C   UNL     1       5.558   4.286  14.370  0.00  0.00    +0.000 C 
ATOM     32  C   UNL     1       6.761   4.959  14.963  0.00  0.00    +0.000 C 
ENDBRANCH   2  30
TORSDOF 5
ENDMDL
MODEL 4
REMARK VINA RESULT:      -7.9      0.948      1.058
REMARK  Name = 
REMARK  5 active torsions:
REMARK  status: ('A' for Active; 'I' for Inactive)
REMARK    1  A    between atoms: C_2  and  C_27
REMARK    2  A    between atoms: C_8  and  C_9
REMARK    3  A    between atoms: C_13  and  N_14
REMARK    4  A    between atoms: N_14  and  C_15
REMARK    5  A    between atoms: C_15  and  C_16
REMARK                            x       y       z     vdW  Elec       q    Type
REMARK                         _______ _______ _______ _____ _____    ______ ____
ROOT
ATOM      1  O   UNL     1      -1.360  13.745  20.373  0.00  0.00    +0.000 OA
ATOM      2  C   UNL     1      -1.573  12.937  21.265  0.00  0.00    +0.000 C 
ATOM      3  N   UNL     1      -1.103  11.647  21.378  0.00  0.00    +0.000 N 
ATOM      4  C   UNL     1      -0.236  11.033  20.464  0.00  0.00    +0.000 A 
ATOM      5  C   UNL     1       0.175   9.730  20.733  0.00  0.00    +0.000 A 
ATOM      6  C   UNL     1       1.061   9.086  19.852  0.00  0.00    +0.000 A 
ATOM      7  C   UNL     1       1.532   7.779  20.058  0.00  0.00    +0.000 A 
ATOM      8  C   UNL     1       2.418   7.202  19.144  0.00  0.00    +0.000 A 
ATOM      9  N   UNL     1       2.839   7.883  18.041  0.00  0.00    +0.000 NA
ATOM     10  C   UNL     1       2.376   9.137  17.852  0.00  0.00    +0.000 A 
ATOM     11  C   UNL     1       1.498   9.780  18.717  0.00  0.00    +0.000 A 
ATOM     12  C   UNL     1       1.025  11.075  18.527  0.00  0.00    +0.000 A 
ATOM     13  N   UNL     1       0.181  11.696  19.372  0.00  0.00    +0.000 NA
ATOM     14  H   UNL     1      -1.396  11.105  22.175  0.00  0.00    +0.000 HD
ENDROOT
BRANCH   8  15
ATOM     15  C   UNL     1       2.934   5.826  19.300  0.00  0.00    +0.000 A 
ATOM     16  C   UNL     1       2.619   5.043  20.412  0.00  0.00    +0.000 A 
ATOM     17  N   UNL     1       3.126   3.806  20.619  0.00  0.00    +0.000 NA
ATOM     18  C   UNL     1       3.961   3.371  19.648  0.00  0.00    +0.000 A 
ATOM     19  C   UNL     1       4.273   4.104  18.499  0.00  0.00    +0.000 A 
ATOM     20  N   UNL     1       3.762   5.343  18.322  0.00  0.00    +0.000 NA
BRANCH  19  21
ATOM     21  N   UNL     1       5.087   3.520  17.531  0.00  0.00    +0.000 N 
ATOM     22  H   UNL     1       6.070   3.527  17.799  0.00  0.00    +0.000 HD
BRANCH  21  23
ATOM     23  C   UNL     1       4.845   3.828  16.122  0.00  0.00    +0.000 C 
BRANCH  23  24
ATOM     24  C   UNL     1       5.708   4.969  15.598  0.00  0.00    +0.000 C 
ATOM     25  F   UNL     1       4.968   6.110  15.551  0.00  0.00    +0.000 F 
ATOM     26  C   UNL     1       7.088   5.094  16.299  0.00  0.00    +0.000 C 
ATOM     27  N   UNL     1       7.692   5.366  14.977  0.00  0.00    +0.000 NA
ATOM     28  C   UNL     1       6.554   4.667  14.337  0.00  0.00    +0.000 C 
ATOM     29  H   UNL     1       8.610   4.955  14.815  0.00  0.00    +0.000 HD
ENDBRANCH  23  24
ENDBRANCH  21  23
ENDBRANCH  19  21
ENDBRANCH   8  15
BRANCH   2  30
ATOM     30  C   UNL     1      -2.476  13.325  22.399  0.00  0.00    +0.000 C 
ATOM     31  C   UNL     1      -3.770  12.573  22.628  0.00  0.00    +0.000 C 
ATOM     32  C   UNL     1      -2.624  12.391  23.579  0.00  0.00    +0.000 C 
ENDBRANCH   2  30
TORSDOF 5
ENDMDL
MODEL 5
REMARK VINA RESULT:      -7.9      0.932      1.058
REMARK  Name = 
REMARK  5 active torsions:
REMARK  status: ('A' for Active; 'I' for Inactive)
REMARK    1  A    between atoms: C_2  and  C_27
REMARK    2  A    between atoms: C_8  and  C_9
REMARK    3  A    between atoms: C_13  and  N_14
REMARK    4  A    between atoms: N_14  and  C_15
REMARK    5  A    between atoms: C_15  and  C_16
REMARK                            x       y       z     vdW  Elec       q    Type
REMARK                         _______ _______ _______ _____ _____    ______ ____
ROOT
ATOM      1  O   UNL     1      -1.709  14.245  21.947  0.00  0.00    +0.000 OA
ATOM      2  C   UNL     1      -1.728  13.433  22.860  0.00  0.00    +0.000 C 
ATOM      3  N   UNL     1      -1.237  12.145  22.868  0.00  0.00    +0.000 N 
ATOM      4  C   UNL     1      -0.574  11.539  21.792  0.00  0.00    +0.000 A 
ATOM      5  C   UNL     1      -0.109  10.238  21.965  0.00  0.00    +0.000 A 
ATOM      6  C   UNL     1       0.579   9.603  20.916  0.00  0.00    +0.000 A 
ATOM      7  C   UNL     1       1.089   8.298  21.015  0.00  0.00    +0.000 A 
ATOM      8  C   UNL     1       1.771   7.730  19.936  0.00  0.00    +0.000 A 
ATOM      9  N   UNL     1       1.951   8.416  18.772  0.00  0.00    +0.000 NA
ATOM     10  C   UNL     1       1.452   9.668  18.688  0.00  0.00    +0.000 A 
ATOM     11  C   UNL     1       0.768  10.304  19.719  0.00  0.00    +0.000 A 
ATOM     12  C   UNL     1       0.259  11.596  19.637  0.00  0.00    +0.000 A 
ATOM     13  N   UNL     1      -0.396  12.209  20.640  0.00  0.00    +0.000 NA
ATOM     14  H   UNL     1      -1.356  11.599  23.706  0.00  0.00    +0.000 HD
ENDROOT
BRANCH   8  15
ATOM     15  C   UNL     1       2.316   6.356  19.976  0.00  0.00    +0.000 A 
ATOM     16  C   UNL     1       1.749   5.362  20.774  0.00  0.00    +0.000 A 
ATOM     17  N   UNL     1       2.261   4.115  20.886  0.00  0.00    +0.000 NA
ATOM     18  C   UNL     1       3.369   3.894  20.144  0.00  0.00    +0.000 A 
ATOM     19  C   UNL     1       3.948   4.847  19.299  0.00  0.00    +0.000 A 
ATOM     20  N   UNL     1       3.423   6.090  19.215  0.00  0.00    +0.000 NA
BRANCH  19  21
ATOM     21  N   UNL     1       5.046   4.479  18.525  0.00  0.00    +0.000 N 
ATOM     22  H   UNL     1       5.779   5.187  18.537  0.00  0.00    +0.000 HD
BRANCH  21  23
ATOM     23  C   UNL     1       4.818   3.869  17.216  0.00  0.00    +0.000 C 
BRANCH  23  24
ATOM     24  C   UNL     1       5.930   4.158  16.215  0.00  0.00    +0.000 C 
ATOM     25  F   UNL     1       5.990   3.149  15.304  0.00  0.00    +0.000 F 
ATOM     26  C   UNL     1       5.894   5.593  15.624  0.00  0.00    +0.000 C 
ATOM     27  N   UNL     1       7.366   5.641  15.750  0.00  0.00    +0.000 NA
ATOM     28  C   UNL     1       7.288   4.607  16.807  0.00  0.00    +0.000 C 
ATOM     29  H   UNL     1       7.759   6.536  16.037  0.00  0.00    +0.000 HD
ENDBRANCH  23  24
ENDBRANCH  21  23
ENDBRANCH  19  21
ENDBRANCH   8  15
BRANCH   2  30
ATOM     30  C   UNL     1      -2.379  13.811  24.158  0.00  0.00    +0.000 C 
ATOM     31  C   UNL     1      -1.869  15.001  24.942  0.00  0.00    +0.000 C 
ATOM     32  C   UNL     1      -3.190  15.086  24.234  0.00  0.00    +0.000 C 
ENDBRANCH   2  30
TORSDOF 5
ENDMDL
MODEL 6
REMARK VINA RESULT:      -7.8      0.960      1.272
REMARK  Name = 
REMARK  5 active torsions:
REMARK  status: ('A' for Active; 'I' for Inactive)
REMARK    1  A    between atoms: C_2  and  C_27
REMARK    2  A    between atoms: C_8  and  C_9
REMARK    3  A    between atoms: C_13  and  N_14
REMARK    4  A    between atoms: N_14  and  C_15
REMARK    5  A    between atoms: C_15  and  C_16
REMARK                            x       y       z     vdW  Elec       q    Type
REMARK                         _______ _______ _______ _____ _____    ______ ____
ROOT
ATOM      1  O   UNL     1      -1.000  14.117  20.499  0.00  0.00    +0.000 OA
ATOM      2  C   UNL     1      -1.144  13.418  21.492  0.00  0.00    +0.000 C 
ATOM      3  N   UNL     1      -0.752  12.110  21.678  0.00  0.00    +0.000 N 
ATOM      4  C   UNL     1      -0.062  11.343  20.730  0.00  0.00    +0.000 A 
ATOM      5  C   UNL     1       0.292  10.042  21.080  0.00  0.00    +0.000 A 
ATOM      6  C   UNL     1       1.003   9.246  20.165  0.00  0.00    +0.000 A 
ATOM      7  C   UNL     1       1.406   7.931  20.445  0.00  0.00    +0.000 A 
ATOM      8  C   UNL     1       2.118   7.199  19.491  0.00  0.00    +0.000 A 
ATOM      9  N   UNL     1       2.430   7.734  18.277  0.00  0.00    +0.000 NA
ATOM     10  C   UNL     1       2.032   8.998  18.018  0.00  0.00    +0.000 A 
ATOM     11  C   UNL     1       1.326   9.791  18.916  0.00  0.00    +0.000 A 
ATOM     12  C   UNL     1       0.922  11.097  18.653  0.00  0.00    +0.000 A 
ATOM     13  N   UNL     1       0.246  11.863  19.530  0.00  0.00    +0.000 NA
ATOM     14  H   UNL     1      -0.969  11.673  22.560  0.00  0.00    +0.000 HD
ENDROOT
BRANCH   8  15
ATOM     15  C   UNL     1       2.555   5.806  19.724  0.00  0.00    +0.000 A 
ATOM     16  C   UNL     1       1.766   4.894  20.427  0.00  0.00    +0.000 A 
ATOM     17  N   UNL     1       2.163   3.634  20.715  0.00  0.00    +0.000 NA
ATOM     18  C   UNL     1       3.392   3.312  20.251  0.00  0.00    +0.000 A 
ATOM     19  C   UNL     1       4.200   4.179  19.508  0.00  0.00    +0.000 A 
ATOM     20  N   UNL     1       3.784   5.438  19.244  0.00  0.00    +0.000 NA
BRANCH  19  21
ATOM     21  N   UNL     1       5.417   3.709  19.019  0.00  0.00    +0.000 N 
ATOM     22  H   UNL     1       5.793   2.953  19.587  0.00  0.00    +0.000 HD
BRANCH  21  23
ATOM     23  C   UNL     1       6.415   4.674  18.560  0.00  0.00    +0.000 C 
BRANCH  23  24
ATOM     24  C   UNL     1       6.646   4.631  17.054  0.00  0.00    +0.000 C 
ATOM     25  F   UNL     1       7.886   4.132  16.802  0.00  0.00    +0.000 F 
ATOM     26  C   UNL     1       5.486   3.980  16.253  0.00  0.00    +0.000 C 
ATOM     27  N   UNL     1       5.645   5.040  15.235  0.00  0.00    +0.000 NA
ATOM     28  C   UNL     1       6.264   5.907  16.264  0.00  0.00    +0.000 C 
ATOM     29  H   UNL     1       4.784   5.392  14.822  0.00  0.00    +0.000 HD
ENDBRANCH  23  24
ENDBRANCH  21  23
ENDBRANCH  19  21
ENDBRANCH   8  15
BRANCH   2  30
ATOM     30  C   UNL     1      -1.855  13.985  22.685  0.00  0.00    +0.000 C 
ATOM     31  C   UNL     1      -1.063  14.639  23.798  0.00  0.00    +0.000 C 
ATOM     32  C   UNL     1      -1.895  15.484  22.878  0.00  0.00    +0.000 C 
ENDBRANCH   2  30
TORSDOF 5
ENDMDL
MODEL 7
REMARK VINA RESULT:      -7.7      1.144      1.318
REMARK  Name = 
REMARK  5 active torsions:
REMARK  status: ('A' for Active; 'I' for Inactive)
REMARK    1  A    between atoms: C_2  and  C_27
REMARK    2  A    between atoms: C_8  and  C_9
REMARK    3  A    between atoms: C_13  and  N_14
REMARK    4  A    between atoms: N_14  and  C_15
REMARK    5  A    between atoms: C_15  and  C_16
REMARK                            x       y       z     vdW  Elec       q    Type
REMARK                         _______ _______ _______ _____ _____    ______ ____
ROOT
ATOM      1  O   UNL     1      -0.614  13.979  21.207  0.00  0.00    +0.000 OA
ATOM      2  C   UNL     1      -0.768  13.137  22.079  0.00  0.00    +0.000 C 
ATOM      3  N   UNL     1      -0.426  11.802  22.046  0.00  0.00    +0.000 N 
ATOM      4  C   UNL     1       0.215  11.171  20.971  0.00  0.00    +0.000 A 
ATOM      5  C   UNL     1       0.522   9.819  21.101  0.00  0.00    +0.000 A 
ATOM      6  C   UNL     1       1.184   9.154  20.054  0.00  0.00    +0.000 A 
ATOM      7  C   UNL     1       1.539   7.797  20.112  0.00  0.00    +0.000 A 
ATOM      8  C   UNL     1       2.203   7.201  19.037  0.00  0.00    +0.000 A 
ATOM      9  N   UNL     1       2.515   7.912  17.916  0.00  0.00    +0.000 NA
ATOM     10  C   UNL     1       2.165   9.215  17.871  0.00  0.00    +0.000 A 
ATOM     11  C   UNL     1       1.507   9.880  18.901  0.00  0.00    +0.000 A 
ATOM     12  C   UNL     1       1.152  11.224  18.859  0.00  0.00    +0.000 A 
ATOM     13  N   UNL     1       0.523  11.865  19.862  0.00  0.00    +0.000 NA
ATOM     14  H   UNL     1      -0.646  11.238  22.851  0.00  0.00    +0.000 HD
ENDROOT
BRANCH   8  15
ATOM     15  C   UNL     1       2.588   5.774  19.034  0.00  0.00    +0.000 A 
ATOM     16  C   UNL     1       1.637   4.755  18.972  0.00  0.00    +0.000 A 
ATOM     17  N   UNL     1       1.949   3.440  19.035  0.00  0.00    +0.000 NA
ATOM     18  C   UNL     1       3.271   3.181  19.147  0.00  0.00    +0.000 A 
ATOM     19  C   UNL     1       4.262   4.168  19.172  0.00  0.00    +0.000 A 
ATOM     20  N   UNL     1       3.922   5.476  19.121  0.00  0.00    +0.000 NA
BRANCH  19  21
ATOM     21  N   UNL     1       5.598   3.777  19.215  0.00  0.00    +0.000 N 
ATOM     22  H   UNL     1       5.762   3.043  19.902  0.00  0.00    +0.000 HD
BRANCH  21  23
ATOM     23  C   UNL     1       6.638   4.803  19.169  0.00  0.00    +0.000 C 
BRANCH  23  24
ATOM     24  C   UNL     1       7.328   4.901  17.813  0.00  0.00    +0.000 C 
ATOM     25  F   UNL     1       8.456   4.140  17.824  0.00  0.00    +0.000 F 
ATOM     26  C   UNL     1       6.381   4.678  16.603  0.00  0.00    +0.000 C 
ATOM     27  N   UNL     1       7.069   5.787  15.908  0.00  0.00    +0.000 NA
ATOM     28  C   UNL     1       7.486   6.324  17.224  0.00  0.00    +0.000 C 
ATOM     29  H   UNL     1       6.476   6.397  15.350  0.00  0.00    +0.000 HD
ENDBRANCH  23  24
ENDBRANCH  21  23
ENDBRANCH  19  21
ENDBRANCH   8  15
BRANCH   2  30
ATOM     30  C   UNL     1      -1.434  13.532  23.364  0.00  0.00    +0.000 C 
ATOM     31  C   UNL     1      -2.779  14.226  23.338  0.00  0.00    +0.000 C 
ATOM     32  C   UNL     1      -2.684  12.802  23.804  0.00  0.00    +0.000 C 
ENDBRANCH   2  30
TORSDOF 5
ENDMDL
MODEL 8
REMARK VINA RESULT:      -7.7      4.043      9.574
REMARK  Name = 
REMARK  5 active torsions:
REMARK  status: ('A' for Active; 'I' for Inactive)
REMARK    1  A    between atoms: C_2  and  C_27
REMARK    2  A    between atoms: C_8  and  C_9
REMARK    3  A    between atoms: C_13  and  N_14
REMARK    4  A    between atoms: N_14  and  C_15
REMARK    5  A    between atoms: C_15  and  C_16
REMARK                            x       y       z     vdW  Elec       q    Type
REMARK                         _______ _______ _______ _____ _____    ______ ____
ROOT
ATOM      1  O   UNL     1       5.180   4.001  16.782  0.00  0.00    +0.000 OA
ATOM      2  C   UNL     1       5.063   5.011  16.104  0.00  0.00    +0.000 C 
ATOM      3  N   UNL     1       4.339   6.149  16.386  0.00  0.00    +0.000 N 
ATOM      4  C   UNL     1       3.612   6.358  17.566  0.00  0.00    +0.000 A 
ATOM      5  C   UNL     1       2.955   7.576  17.717  0.00  0.00    +0.000 A 
ATOM      6  C   UNL     1       2.231   7.833  18.895  0.00  0.00    +0.000 A 
ATOM      7  C   UNL     1       1.551   9.039  19.128  0.00  0.00    +0.000 A 
ATOM      8  C   UNL     1       0.857   9.231  20.326  0.00  0.00    +0.000 A 
ATOM      9  N   UNL     1       0.819   8.261  21.284  0.00  0.00    +0.000 NA
ATOM     10  C   UNL     1       1.473   7.105  21.045  0.00  0.00    +0.000 A 
ATOM     11  C   UNL     1       2.189   6.841  19.882  0.00  0.00    +0.000 A 
ATOM     12  C   UNL     1       2.869   5.652  19.638  0.00  0.00    +0.000 A 
ATOM     13  N   UNL     1       3.567   5.406  18.513  0.00  0.00    +0.000 NA
ATOM     14  H   UNL     1       4.334   6.888  15.701  0.00  0.00    +0.000 HD
ENDROOT
BRANCH   8  15
ATOM     15  C   UNL     1       0.111  10.472  20.621  0.00  0.00    +0.000 A 
ATOM     16  C   UNL     1       0.378  11.239  21.756  0.00  0.00    +0.000 A 
ATOM     17  N   UNL     1      -0.328  12.343  22.092  0.00  0.00    +0.000 NA
ATOM     18  C   UNL     1      -1.316  12.662  21.225  0.00  0.00    +0.000 A 
ATOM     19  C   UNL     1      -1.592  11.947  20.056  0.00  0.00    +0.000 A 
ATOM     20  N   UNL     1      -0.879  10.840  19.750  0.00  0.00    +0.000 NA
BRANCH  19  21
ATOM     21  N   UNL     1      -2.587  12.416  19.201  0.00  0.00    +0.000 N 
ATOM     22  H   UNL     1      -3.172  13.123  19.643  0.00  0.00    +0.000 HD
BRANCH  21  23
ATOM     23  C   UNL     1      -3.319  11.459  18.374  0.00  0.00    +0.000 C 
BRANCH  23  24
ATOM     24  C   UNL     1      -2.721  11.284  16.982  0.00  0.00    +0.000 C 
ATOM     25  F   UNL     1      -1.725  12.194  16.802  0.00  0.00    +0.000 F 
ATOM     26  C   UNL     1      -2.361   9.817  16.627  0.00  0.00    +0.000 C 
ATOM     27  N   UNL     1      -2.898  10.053  15.270  0.00  0.00    +0.000 NA
ATOM     28  C   UNL     1      -3.728  11.153  15.814  0.00  0.00    +0.000 C 
ATOM     29  H   UNL     1      -3.411   9.278  14.854  0.00  0.00    +0.000 HD
ENDBRANCH  23  24
ENDBRANCH  21  23
ENDBRANCH  19  21
ENDBRANCH   8  15
BRANCH   2  30
ATOM     30  C   UNL     1       5.748   5.077  14.770  0.00  0.00    +0.000 C 
ATOM     31  C   UNL     1       7.251   4.920  14.682  0.00  0.00    +0.000 C 
ATOM     32  C   UNL     1       6.356   3.821  14.189  0.00  0.00    +0.000 C 
ENDBRANCH   2  30
TORSDOF 5
ENDMDL
MODEL 9
REMARK VINA RESULT:      -7.7      4.452      9.768
REMARK  Name = 
REMARK  5 active torsions:
REMARK  status: ('A' for Active; 'I' for Inactive)
REMARK    1  A    between atoms: C_2  and  C_27
REMARK    2  A    between atoms: C_8  and  C_9
REMARK    3  A    between atoms: C_13  and  N_14
REMARK    4  A    between atoms: N_14  and  C_15
REMARK    5  A    between atoms: C_15  and  C_16
REMARK                            x       y       z     vdW  Elec       q    Type
REMARK                         _______ _______ _______ _____ _____    ______ ____
ROOT
ATOM      1  O   UNL     1       5.206   3.416  17.706  0.00  0.00    +0.000 OA
ATOM      2  C   UNL     1       5.277   4.223  16.791  0.00  0.00    +0.000 C 
ATOM      3  N   UNL     1       4.661   5.451  16.687  0.00  0.00    +0.000 N 
ATOM      4  C   UNL     1       3.842   6.017  17.673  0.00  0.00    +0.000 A 
ATOM      5  C   UNL     1       3.314   7.283  17.431  0.00  0.00    +0.000 A 
ATOM      6  C   UNL     1       2.504   7.894  18.405  0.00  0.00    +0.000 A 
ATOM      7  C   UNL     1       1.945   9.172  18.243  0.00  0.00    +0.000 A 
ATOM      8  C   UNL     1       1.155   9.723  19.255  0.00  0.00    +0.000 A 
ATOM      9  N   UNL     1       0.906   9.041  20.409  0.00  0.00    +0.000 NA
ATOM     10  C   UNL     1       1.447   7.812  20.551  0.00  0.00    +0.000 A 
ATOM     11  C   UNL     1       2.246   7.198  19.592  0.00  0.00    +0.000 A 
ATOM     12  C   UNL     1       2.809   5.935  19.739  0.00  0.00    +0.000 A 
ATOM     13  N   UNL     1       3.590   5.349  18.812  0.00  0.00    +0.000 NA
ATOM     14  H   UNL     1       4.812   5.985  15.846  0.00  0.00    +0.000 HD
ENDROOT
BRANCH   8  15
ATOM     15  C   UNL     1       0.527  11.056  19.135  0.00  0.00    +0.000 A 
ATOM     16  C   UNL     1      -0.854  11.230  19.226  0.00  0.00    +0.000 A 
ATOM     17  N   UNL     1      -1.468  12.424  19.055  0.00  0.00    +0.000 NA
ATOM     18  C   UNL     1      -0.629  13.454  18.802  0.00  0.00    +0.000 A 
ATOM     19  C   UNL     1       0.763  13.334  18.743  0.00  0.00    +0.000 A 
ATOM     20  N   UNL     1       1.349  12.126  18.905  0.00  0.00    +0.000 NA
BRANCH  19  21
ATOM     21  N   UNL     1       1.529  14.481  18.549  0.00  0.00    +0.000 N 
ATOM     22  H   UNL     1       1.030  15.191  18.016  0.00  0.00    +0.000 HD
BRANCH  21  23
ATOM     23  C   UNL     1       2.939  14.339  18.192  0.00  0.00    +0.000 C 
BRANCH  23  24
ATOM     24  C   UNL     1       3.622  15.669  17.894  0.00  0.00    +0.000 C 
ATOM     25  F   UNL     1       3.434  15.990  16.585  0.00  0.00    +0.000 F 
ATOM     26  C   UNL     1       3.292  16.793  18.913  0.00  0.00    +0.000 C 
ATOM     27  N   UNL     1       4.713  17.200  18.866  0.00  0.00    +0.000 NA
ATOM     28  C   UNL     1       5.068  15.832  18.422  0.00  0.00    +0.000 C 
ATOM     29  H   UNL     1       5.120  17.496  19.751  0.00  0.00    +0.000 HD
ENDBRANCH  23  24
ENDBRANCH  21  23
ENDBRANCH  19  21
ENDBRANCH   8  15
BRANCH   2  30
ATOM     30  C   UNL     1       6.101   3.884  15.583  0.00  0.00    +0.000 C 
ATOM     31  C   UNL     1       5.548   4.133  14.196  0.00  0.00    +0.000 C 
ATOM     32  C   UNL     1       6.650   5.002  14.726  0.00  0.00    +0.000 C 
ENDBRANCH   2  30
TORSDOF 5
ENDMDL
