MODEL 1
REMARK VINA RESULT:      -6.4      0.000      0.000
REMARK  Name = 
REMARK  12 active torsions:
REMARK  status: ('A' for Active; 'I' for Inactive)
REMARK    1  A    between atoms: C_1  and  O_2
REMARK    2  A    between atoms: O_2  and  C_3
REMARK    3  A    between atoms: C_3  and  C_4
REMARK    4  A    between atoms: C_6  and  C_7
REMARK    5  A    between atoms: C_7  and  O_8
REMARK    6  A    between atoms: C_7  and  C_9
REMARK    7  A    between atoms: C_9  and  N_10
REMARK    8  A    between atoms: N_10  and  C_11
REMARK    9  A    between atoms: C_11  and  C_12
REMARK   10  A    between atoms: C_11  and  C_13
REMARK   11  A    between atoms: C_11  and  C_14
REMARK   12  A    between atoms: C_17  and  O_18
REMARK                            x       y       z     vdW  Elec       q    Type
REMARK                         _______ _______ _______ _____ _____    ______ ____
ROOT
ATOM      1  C   UNL     1       6.766   5.465  17.042  0.00  0.00    +0.000 A 
ATOM      2  C   UNL     1       5.783   4.788  17.784  0.00  0.00    +0.000 A 
ATOM      3  C   UNL     1       4.960   3.809  17.200  0.00  0.00    +0.000 A 
ATOM      4  C   UNL     1       5.110   3.546  15.833  0.00  0.00    +0.000 A 
ATOM      5  C   UNL     1       6.073   4.218  15.077  0.00  0.00    +0.000 A 
ATOM      6  C   UNL     1       6.896   5.165  15.684  0.00  0.00    +0.000 A 
ENDROOT
BRANCH   6   7
ATOM      7  O   UNL     1       7.838   5.818  14.939  0.00  0.00    +0.000 OA
ATOM      8  H   UNL     1       8.609   5.235  14.838  0.00  0.00    +0.000 HD
ENDBRANCH   6   7
BRANCH   1   9
ATOM      9  C   UNL     1       7.638   6.486  17.724  0.00  0.00    +0.000 C 
BRANCH   9  11
ATOM     10  C   UNL     1       7.955   8.820  17.726  0.00  0.00    +0.000 C 
ATOM     11  O   UNL     1       7.662   7.679  16.934  0.00  0.00    +0.000 OA
ENDBRANCH   9  11
ENDBRANCH   1   9
BRANCH   3  12
ATOM     12  C   UNL     1       3.933   3.105  18.064  0.00  0.00    +0.000 C 
BRANCH  12  13
ATOM     13  O   UNL     1       4.002   1.698  17.796  0.00  0.00    +0.000 OA
ATOM     14  H   UNL     1       3.225   1.476  17.254  0.00  0.00    +0.000 HD
ENDBRANCH  12  13
BRANCH  12  15
ATOM     15  C   UNL     1       4.064   3.298  19.599  0.00  0.00    +0.000 C 
BRANCH  15  16
ATOM     16  N   UNL     1       3.100   2.530  20.400  0.00  0.00    +0.000 NA
ATOM     17  H   UNL     1       3.541   2.260  21.280  0.00  0.00    +0.000 HD
BRANCH  16  18
ATOM     18  C   UNL     1       1.817   3.205  20.666  0.00  0.00    +0.000 C 
ATOM     19  C   UNL     1       0.786   2.886  19.569  0.00  0.00    +0.000 C 
ATOM     20  C   UNL     1       1.275   2.647  21.998  0.00  0.00    +0.000 C 
ATOM     21  C   UNL     1       1.986   4.726  20.815  0.00  0.00    +0.000 C 
ENDBRANCH  16  18
ENDBRANCH  15  16
ENDBRANCH  12  15
ENDBRANCH   3  12
TORSDOF 8
ENDMDL
MODEL 2
REMARK VINA RESULT:      -6.3      1.551      3.202
REMARK  Name = 
REMARK  12 active torsions:
REMARK  status: ('A' for Active; 'I' for Inactive)
REMARK    1  A    between atoms: C_1  and  O_2
REMARK    2  A    between atoms: O_2  and  C_3
REMARK    3  A    between atoms: C_3  and  C_4
REMARK    4  A    between atoms: C_6  and  C_7
REMARK    5  A    between atoms: C_7  and  O_8
REMARK    6  A    between atoms: C_7  and  C_9
REMARK    7  A    between atoms: C_9  and  N_10
REMARK    8  A    between atoms: N_10  and  C_11
REMARK    9  A    between atoms: C_11  and  C_12
REMARK   10  A    between atoms: C_11  and  C_13
REMARK   11  A    between atoms: C_11  and  C_14
REMARK   12  A    between atoms: C_17  and  O_18
REMARK                            x       y       z     vdW  Elec       q    Type
REMARK                         _______ _______ _______ _____ _____    ______ ____
ROOT
ATOM      1  C   UNL     1       6.119   4.158  14.597  0.00  0.00    +0.000 A 
ATOM      2  C   UNL     1       5.139   3.636  15.458  0.00  0.00    +0.000 A 
ATOM      3  C   UNL     1       5.041   4.043  16.801  0.00  0.00    +0.000 A 
ATOM      4  C   UNL     1       5.980   4.962  17.285  0.00  0.00    +0.000 A 
ATOM      5  C   UNL     1       6.969   5.482  16.447  0.00  0.00    +0.000 A 
ATOM      6  C   UNL     1       7.029   5.084  15.112  0.00  0.00    +0.000 A 
ENDROOT
BRANCH   6   7
ATOM      7  O   UNL     1       7.998   5.599  14.297  0.00  0.00    +0.000 OA
ATOM      8  H   UNL     1       8.574   4.873  14.007  0.00  0.00    +0.000 HD
ENDBRANCH   6   7
BRANCH   1   9
ATOM      9  C   UNL     1       6.162   3.707  13.161  0.00  0.00    +0.000 C 
BRANCH   9  11
ATOM     10  C   UNL     1       4.721   2.928  11.469  0.00  0.00    +0.000 C 
ATOM     11  O   UNL     1       4.839   3.751  12.619  0.00  0.00    +0.000 OA
ENDBRANCH   9  11
ENDBRANCH   1   9
BRANCH   3  12
ATOM     12  C   UNL     1       3.947   3.452  17.668  0.00  0.00    +0.000 C 
BRANCH  12  13
ATOM     13  O   UNL     1       4.126   2.031  17.718  0.00  0.00    +0.000 OA
ATOM     14  H   UNL     1       4.508   1.825  18.589  0.00  0.00    +0.000 HD
ENDBRANCH  12  13
BRANCH  12  15
ATOM     15  C   UNL     1       3.862   3.969  19.129  0.00  0.00    +0.000 C 
BRANCH  15  16
ATOM     16  N   UNL     1       3.217   3.043  20.071  0.00  0.00    +0.000 NA
ATOM     17  H   UNL     1       3.773   2.998  20.926  0.00  0.00    +0.000 HD
BRANCH  16  18
ATOM     18  C   UNL     1       1.812   3.349  20.400  0.00  0.00    +0.000 C 
ATOM     19  C   UNL     1       0.857   2.765  19.343  0.00  0.00    +0.000 C 
ATOM     20  C   UNL     1       1.499   2.665  21.746  0.00  0.00    +0.000 C 
ATOM     21  C   UNL     1       1.574   4.859  20.560  0.00  0.00    +0.000 C 
ENDBRANCH  16  18
ENDBRANCH  15  16
ENDBRANCH  12  15
ENDBRANCH   3  12
TORSDOF 8
ENDMDL
MODEL 3
REMARK VINA RESULT:      -6.3      1.664      1.839
REMARK  Name = 
REMARK  12 active torsions:
REMARK  status: ('A' for Active; 'I' for Inactive)
REMARK    1  A    between atoms: C_1  and  O_2
REMARK    2  A    between atoms: O_2  and  C_3
REMARK    3  A    between atoms: C_3  and  C_4
REMARK    4  A    between atoms: C_6  and  C_7
REMARK    5  A    between atoms: C_7  and  O_8
REMARK    6  A    between atoms: C_7  and  C_9
REMARK    7  A    between atoms: C_9  and  N_10
REMARK    8  A    between atoms: N_10  and  C_11
REMARK    9  A    between atoms: C_11  and  C_12
REMARK   10  A    between atoms: C_11  and  C_13
REMARK   11  A    between atoms: C_11  and  C_14
REMARK   12  A    between atoms: C_17  and  O_18
REMARK                            x       y       z     vdW  Elec       q    Type
REMARK                         _______ _______ _______ _____ _____    ______ ____
ROOT
ATOM      1  C   UNL     1       6.472   5.875  17.536  0.00  0.00    +0.000 A 
ATOM      2  C   UNL     1       5.177   6.192  17.979  0.00  0.00    +0.000 A 
ATOM      3  C   UNL     1       4.061   5.418  17.615  0.00  0.00    +0.000 A 
ATOM      4  C   UNL     1       4.259   4.332  16.753  0.00  0.00    +0.000 A 
ATOM      5  C   UNL     1       5.538   4.011  16.292  0.00  0.00    +0.000 A 
ATOM      6  C   UNL     1       6.633   4.776  16.689  0.00  0.00    +0.000 A 
ENDROOT
BRANCH   6   7
ATOM      7  O   UNL     1       7.882   4.454  16.236  0.00  0.00    +0.000 OA
ATOM      8  H   UNL     1       7.798   4.069  15.348  0.00  0.00    +0.000 HD
ENDBRANCH   6   7
BRANCH   1   9
ATOM      9  C   UNL     1       7.636   6.723  17.978  0.00  0.00    +0.000 C 
BRANCH   9  11
ATOM     10  C   UNL     1       8.024   9.041  17.821  0.00  0.00    +0.000 C 
ATOM     11  O   UNL     1       7.751   7.848  17.102  0.00  0.00    +0.000 OA
ENDBRANCH   9  11
ENDBRANCH   1   9
BRANCH   3  12
ATOM     12  C   UNL     1       2.695   5.807  18.145  0.00  0.00    +0.000 C 
BRANCH  12  13
ATOM     13  O   UNL     1       1.703   5.047  17.443  0.00  0.00    +0.000 OA
ATOM     14  H   UNL     1       1.802   4.122  17.727  0.00  0.00    +0.000 HD
ENDBRANCH  12  13
BRANCH  12  15
ATOM     15  C   UNL     1       2.455   5.603  19.665  0.00  0.00    +0.000 C 
BRANCH  15  16
ATOM     16  N   UNL     1       3.082   4.399  20.230  0.00  0.00    +0.000 NA
ATOM     17  H   UNL     1       3.484   4.630  21.140  0.00  0.00    +0.000 HD
BRANCH  16  18
ATOM     18  C   UNL     1       2.200   3.224  20.354  0.00  0.00    +0.000 C 
ATOM     19  C   UNL     1       2.526   2.174  19.277  0.00  0.00    +0.000 C 
ATOM     20  C   UNL     1       2.478   2.588  21.731  0.00  0.00    +0.000 C 
ATOM     21  C   UNL     1       0.713   3.610  20.292  0.00  0.00    +0.000 C 
ENDBRANCH  16  18
ENDBRANCH  15  16
ENDBRANCH  12  15
ENDBRANCH   3  12
TORSDOF 8
ENDMDL
MODEL 4
REMARK VINA RESULT:      -6.3      1.945      3.387
REMARK  Name = 
REMARK  12 active torsions:
REMARK  status: ('A' for Active; 'I' for Inactive)
REMARK    1  A    between atoms: C_1  and  O_2
REMARK    2  A    between atoms: O_2  and  C_3
REMARK    3  A    between atoms: C_3  and  C_4
REMARK    4  A    between atoms: C_6  and  C_7
REMARK    5  A    between atoms: C_7  and  O_8
REMARK    6  A    between atoms: C_7  and  C_9
REMARK    7  A    between atoms: C_9  and  N_10
REMARK    8  A    between atoms: N_10  and  C_11
REMARK    9  A    between atoms: C_11  and  C_12
REMARK   10  A    between atoms: C_11  and  C_13
REMARK   11  A    between atoms: C_11  and  C_14
REMARK   12  A    between atoms: C_17  and  O_18
REMARK                            x       y       z     vdW  Elec       q    Type
REMARK                         _______ _______ _______ _____ _____    ______ ____
ROOT
ATOM      1  C   UNL     1       6.173   4.376  16.048  0.00  0.00    +0.000 A 
ATOM      2  C   UNL     1       5.484   4.158  17.252  0.00  0.00    +0.000 A 
ATOM      3  C   UNL     1       5.644   5.007  18.361  0.00  0.00    +0.000 A 
ATOM      4  C   UNL     1       6.551   6.069  18.257  0.00  0.00    +0.000 A 
ATOM      5  C   UNL     1       7.255   6.294  17.072  0.00  0.00    +0.000 A 
ATOM      6  C   UNL     1       7.059   5.454  15.977  0.00  0.00    +0.000 A 
ENDROOT
BRANCH   6   7
ATOM      7  O   UNL     1       7.750   5.681  14.820  0.00  0.00    +0.000 OA
ATOM      8  H   UNL     1       8.332   4.922  14.654  0.00  0.00    +0.000 HD
ENDBRANCH   6   7
BRANCH   1   9
ATOM      9  C   UNL     1       5.945   3.450  14.883  0.00  0.00    +0.000 C 
BRANCH   9  11
ATOM     10  C   UNL     1       5.979   3.459  12.528  0.00  0.00    +0.000 C 
ATOM     11  O   UNL     1       5.757   4.230  13.699  0.00  0.00    +0.000 OA
ENDBRANCH   9  11
ENDBRANCH   1   9
BRANCH   3  12
ATOM     12  C   UNL     1       4.853   4.723  19.623  0.00  0.00    +0.000 C 
BRANCH  12  13
ATOM     13  O   UNL     1       3.903   5.779  19.810  0.00  0.00    +0.000 OA
ATOM     14  H   UNL     1       3.512   5.655  20.693  0.00  0.00    +0.000 HD
ENDBRANCH  12  13
BRANCH  12  15
ATOM     15  C   UNL     1       4.079   3.379  19.671  0.00  0.00    +0.000 C 
BRANCH  15  16
ATOM     16  N   UNL     1       2.618   3.514  19.769  0.00  0.00    +0.000 NA
ATOM     17  H   UNL     1       2.390   4.480  20.010  0.00  0.00    +0.000 HD
BRANCH  16  18
ATOM     18  C   UNL     1       1.862   3.103  18.572  0.00  0.00    +0.000 C 
ATOM     19  C   UNL     1       1.630   4.296  17.628  0.00  0.00    +0.000 C 
ATOM     20  C   UNL     1       2.723   2.068  17.821  0.00  0.00    +0.000 C 
ATOM     21  C   UNL     1       0.523   2.441  18.937  0.00  0.00    +0.000 C 
ENDBRANCH  16  18
ENDBRANCH  15  16
ENDBRANCH  12  15
ENDBRANCH   3  12
TORSDOF 8
ENDMDL
MODEL 5
REMARK VINA RESULT:      -6.2      2.344      3.374
REMARK  Name = 
REMARK  12 active torsions:
REMARK  status: ('A' for Active; 'I' for Inactive)
REMARK    1  A    between atoms: C_1  and  O_2
REMARK    2  A    between atoms: O_2  and  C_3
REMARK    3  A    between atoms: C_3  and  C_4
REMARK    4  A    between atoms: C_6  and  C_7
REMARK    5  A    between atoms: C_7  and  O_8
REMARK    6  A    between atoms: C_7  and  C_9
REMARK    7  A    between atoms: C_9  and  N_10
REMARK    8  A    between atoms: N_10  and  C_11
REMARK    9  A    between atoms: C_11  and  C_12
REMARK   10  A    between atoms: C_11  and  C_13
REMARK   11  A    between atoms: C_11  and  C_14
REMARK   12  A    between atoms: C_17  and  O_18
REMARK                            x       y       z     vdW  Elec       q    Type
REMARK                         _______ _______ _______ _____ _____    ______ ____
ROOT
ATOM      1  C   UNL     1       6.174   5.007  16.323  0.00  0.00    +0.000 A 
ATOM      2  C   UNL     1       4.955   5.603  16.688  0.00  0.00    +0.000 A 
ATOM      3  C   UNL     1       4.649   5.897  18.028  0.00  0.00    +0.000 A 
ATOM      4  C   UNL     1       5.577   5.541  19.015  0.00  0.00    +0.000 A 
ATOM      5  C   UNL     1       6.788   4.936  18.671  0.00  0.00    +0.000 A 
ATOM      6  C   UNL     1       7.081   4.679  17.332  0.00  0.00    +0.000 A 
ENDROOT
BRANCH   6   7
ATOM      7  O   UNL     1       8.269   4.089  17.003  0.00  0.00    +0.000 OA
ATOM      8  H   UNL     1       8.604   4.502  16.191  0.00  0.00    +0.000 HD
ENDBRANCH   6   7
BRANCH   1   9
ATOM      9  C   UNL     1       6.462   4.737  14.869  0.00  0.00    +0.000 C 
BRANCH   9  11
ATOM     10  C   UNL     1       7.933   5.278  13.112  0.00  0.00    +0.000 C 
ATOM     11  O   UNL     1       7.659   5.426  14.496  0.00  0.00    +0.000 OA
ENDBRANCH   9  11
ENDBRANCH   1   9
BRANCH   3  12
ATOM     12  C   UNL     1       3.323   6.558  18.349  0.00  0.00    +0.000 C 
BRANCH  12  13
ATOM     13  O   UNL     1       3.182   7.718  17.519  0.00  0.00    +0.000 OA
ATOM     14  H   UNL     1       3.554   8.468  18.015  0.00  0.00    +0.000 HD
ENDBRANCH  12  13
BRANCH  12  15
ATOM     15  C   UNL     1       2.049   5.690  18.165  0.00  0.00    +0.000 C 
BRANCH  15  16
ATOM     16  N   UNL     1       1.847   4.668  19.202  0.00  0.00    +0.000 NA
ATOM     17  H   UNL     1       0.921   4.793  19.615  0.00  0.00    +0.000 HD
BRANCH  16  18
ATOM     18  C   UNL     1       2.017   3.272  18.760  0.00  0.00    +0.000 C 
ATOM     19  C   UNL     1       2.374   3.206  17.264  0.00  0.00    +0.000 C 
ATOM     20  C   UNL     1       3.202   2.683  19.553  0.00  0.00    +0.000 C 
ATOM     21  C   UNL     1       0.772   2.420  19.051  0.00  0.00    +0.000 C 
ENDBRANCH  16  18
ENDBRANCH  15  16
ENDBRANCH  12  15
ENDBRANCH   3  12
TORSDOF 8
ENDMDL
MODEL 6
REMARK VINA RESULT:      -6.2      2.433      3.603
REMARK  Name = 
REMARK  12 active torsions:
REMARK  status: ('A' for Active; 'I' for Inactive)
REMARK    1  A    between atoms: C_1  and  O_2
REMARK    2  A    between atoms: O_2  and  C_3
REMARK    3  A    between atoms: C_3  and  C_4
REMARK    4  A    between atoms: C_6  and  C_7
REMARK    5  A    between atoms: C_7  and  O_8
REMARK    6  A    between atoms: C_7  and  C_9
REMARK    7  A    between atoms: C_9  and  N_10
REMARK    8  A    between atoms: N_10  and  C_11
REMARK    9  A    between atoms: C_11  and  C_12
REMARK   10  A    between atoms: C_11  and  C_13
REMARK   11  A    between atoms: C_11  and  C_14
REMARK   12  A    between atoms: C_17  and  O_18
REMARK                            x       y       z     vdW  Elec       q    Type
REMARK                         _______ _______ _______ _____ _____    ______ ____
ROOT
ATOM      1  C   UNL     1       6.183   5.191  16.307  0.00  0.00    +0.000 A 
ATOM      2  C   UNL     1       4.965   5.773  16.694  0.00  0.00    +0.000 A 
ATOM      3  C   UNL     1       4.589   5.872  18.046  0.00  0.00    +0.000 A 
ATOM      4  C   UNL     1       5.446   5.333  19.013  0.00  0.00    +0.000 A 
ATOM      5  C   UNL     1       6.656   4.740  18.646  0.00  0.00    +0.000 A 
ATOM      6  C   UNL     1       7.019   4.678  17.301  0.00  0.00    +0.000 A 
ENDROOT
BRANCH   6   7
ATOM      7  O   UNL     1       8.205   4.097  16.949  0.00  0.00    +0.000 OA
ATOM      8  H   UNL     1       8.751   4.761  16.495  0.00  0.00    +0.000 HD
ENDBRANCH   6   7
BRANCH   1   9
ATOM      9  C   UNL     1       6.548   5.134  14.847  0.00  0.00    +0.000 C 
BRANCH   9  11
ATOM     10  C   UNL     1       6.030   3.655  13.088  0.00  0.00    +0.000 C 
ATOM     11  O   UNL     1       6.523   3.771  14.414  0.00  0.00    +0.000 OA
ENDBRANCH   9  11
ENDBRANCH   1   9
BRANCH   3  12
ATOM     12  C   UNL     1       3.268   6.529  18.393  0.00  0.00    +0.000 C 
BRANCH  12  13
ATOM     13  O   UNL     1       3.127   7.712  17.595  0.00  0.00    +0.000 OA
ATOM     14  H   UNL     1       4.016   7.949  17.281  0.00  0.00    +0.000 HD
ENDBRANCH  12  13
BRANCH  12  15
ATOM     15  C   UNL     1       1.990   5.671  18.194  0.00  0.00    +0.000 C 
BRANCH  15  16
ATOM     16  N   UNL     1       1.773   4.645  19.224  0.00  0.00    +0.000 NA
ATOM     17  H   UNL     1       0.817   4.726  19.576  0.00  0.00    +0.000 HD
BRANCH  16  18
ATOM     18  C   UNL     1       2.037   3.258  18.802  0.00  0.00    +0.000 C 
ATOM     19  C   UNL     1       3.157   2.627  19.648  0.00  0.00    +0.000 C 
ATOM     20  C   UNL     1       0.746   2.451  19.053  0.00  0.00    +0.000 C 
ATOM     21  C   UNL     1       2.379   3.165  17.306  0.00  0.00    +0.000 C 
ENDBRANCH  16  18
ENDBRANCH  15  16
ENDBRANCH  12  15
ENDBRANCH   3  12
TORSDOF 8
ENDMDL
MODEL 7
REMARK VINA RESULT:      -6.2      2.129      3.650
REMARK  Name = 
REMARK  12 active torsions:
REMARK  status: ('A' for Active; 'I' for Inactive)
REMARK    1  A    between atoms: C_1  and  O_2
REMARK    2  A    between atoms: O_2  and  C_3
REMARK    3  A    between atoms: C_3  and  C_4
REMARK    4  A    between atoms: C_6  and  C_7
REMARK    5  A    between atoms: C_7  and  O_8
REMARK    6  A    between atoms: C_7  and  C_9
REMARK    7  A    between atoms: C_9  and  N_10
REMARK    8  A    between atoms: N_10  and  C_11
REMARK    9  A    between atoms: C_11  and  C_12
REMARK   10  A    between atoms: C_11  and  C_13
REMARK   11  A    between atoms: C_11  and  C_14
REMARK   12  A    between atoms: C_17  and  O_18
REMARK                            x       y       z     vdW  Elec       q    Type
REMARK                         _______ _______ _______ _____ _____    ______ ____
ROOT
ATOM      1  C   UNL     1       5.820   4.323  15.521  0.00  0.00    +0.000 A 
ATOM      2  C   UNL     1       5.023   3.797  16.551  0.00  0.00    +0.000 A 
ATOM      3  C   UNL     1       5.363   3.958  17.906  0.00  0.00    +0.000 A 
ATOM      4  C   UNL     1       6.553   4.628  18.215  0.00  0.00    +0.000 A 
ATOM      5  C   UNL     1       7.365   5.146  17.203  0.00  0.00    +0.000 A 
ATOM      6  C   UNL     1       6.992   4.997  15.868  0.00  0.00    +0.000 A 
ENDROOT
BRANCH   6   7
ATOM      7  O   UNL     1       7.790   5.509  14.883  0.00  0.00    +0.000 OA
ATOM      8  H   UNL     1       7.240   6.039  14.285  0.00  0.00    +0.000 HD
ENDBRANCH   6   7
BRANCH   1   9
ATOM      9  C   UNL     1       5.395   4.142  14.087  0.00  0.00    +0.000 C 
BRANCH   9  11
ATOM     10  C   UNL     1       6.055   3.031  12.119  0.00  0.00    +0.000 C 
ATOM     11  O   UNL     1       6.491   3.606  13.341  0.00  0.00    +0.000 OA
ENDBRANCH   9  11
ENDBRANCH   1   9
BRANCH   3  12
ATOM     12  C   UNL     1       4.446   3.381  18.966  0.00  0.00    +0.000 C 
BRANCH  12  13
ATOM     13  O   UNL     1       5.227   2.558  19.841  0.00  0.00    +0.000 OA
ATOM     14  H   UNL     1       5.932   2.160  19.301  0.00  0.00    +0.000 HD
ENDBRANCH  12  13
BRANCH  12  15
ATOM     15  C   UNL     1       3.671   4.399  19.844  0.00  0.00    +0.000 C 
BRANCH  15  16
ATOM     16  N   UNL     1       3.935   5.810  19.528  0.00  0.00    +0.000 NA
ATOM     17  H   UNL     1       4.802   5.873  18.991  0.00  0.00    +0.000 HD
BRANCH  16  18
ATOM     18  C   UNL     1       2.852   6.516  18.820  0.00  0.00    +0.000 C 
ATOM     19  C   UNL     1       1.925   5.522  18.097  0.00  0.00    +0.000 C 
ATOM     20  C   UNL     1       2.014   7.251  19.886  0.00  0.00    +0.000 C 
ATOM     21  C   UNL     1       3.395   7.559  17.830  0.00  0.00    +0.000 C 
ENDBRANCH  16  18
ENDBRANCH  15  16
ENDBRANCH  12  15
ENDBRANCH   3  12
TORSDOF 8
ENDMDL
MODEL 8
REMARK VINA RESULT:      -6.2      2.823      6.709
REMARK  Name = 
REMARK  12 active torsions:
REMARK  status: ('A' for Active; 'I' for Inactive)
REMARK    1  A    between atoms: C_1  and  O_2
REMARK    2  A    between atoms: O_2  and  C_3
REMARK    3  A    between atoms: C_3  and  C_4
REMARK    4  A    between atoms: C_6  and  C_7
REMARK    5  A    between atoms: C_7  and  O_8
REMARK    6  A    between atoms: C_7  and  C_9
REMARK    7  A    between atoms: C_9  and  N_10
REMARK    8  A    between atoms: N_10  and  C_11
REMARK    9  A    between atoms: C_11  and  C_12
REMARK   10  A    between atoms: C_11  and  C_13
REMARK   11  A    between atoms: C_11  and  C_14
REMARK   12  A    between atoms: C_17  and  O_18
REMARK                            x       y       z     vdW  Elec       q    Type
REMARK                         _______ _______ _______ _____ _____    ______ ____
ROOT
ATOM      1  C   UNL     1       1.730   3.907  18.843  0.00  0.00    +0.000 A 
ATOM      2  C   UNL     1       2.350   4.823  17.977  0.00  0.00    +0.000 A 
ATOM      3  C   UNL     1       2.723   6.110  18.405  0.00  0.00    +0.000 A 
ATOM      4  C   UNL     1       2.424   6.484  19.721  0.00  0.00    +0.000 A 
ATOM      5  C   UNL     1       1.796   5.591  20.592  0.00  0.00    +0.000 A 
ATOM      6  C   UNL     1       1.460   4.311  20.153  0.00  0.00    +0.000 A 
ENDROOT
BRANCH   6   7
ATOM      7  O   UNL     1       0.848   3.442  21.012  0.00  0.00    +0.000 OA
ATOM      8  H   UNL     1      -0.055   3.759  21.180  0.00  0.00    +0.000 HD
ENDBRANCH   6   7
BRANCH   1   9
ATOM      9  C   UNL     1       1.374   2.533  18.340  0.00  0.00    +0.000 C 
BRANCH   9  11
ATOM     10  C   UNL     1       3.481   1.494  18.494  0.00  0.00    +0.000 C 
ATOM     11  O   UNL     1       2.169   1.565  19.029  0.00  0.00    +0.000 OA
ENDBRANCH   9  11
ENDBRANCH   1   9
BRANCH   3  12
ATOM     12  C   UNL     1       3.406   7.040  17.422  0.00  0.00    +0.000 C 
BRANCH  12  13
ATOM     13  O   UNL     1       3.144   8.391  17.819  0.00  0.00    +0.000 OA
ATOM     14  H   UNL     1       2.382   8.697  17.297  0.00  0.00    +0.000 HD
ENDBRANCH  12  13
BRANCH  12  15
ATOM     15  C   UNL     1       4.943   6.883  17.268  0.00  0.00    +0.000 C 
BRANCH  15  16
ATOM     16  N   UNL     1       5.382   6.393  15.953  0.00  0.00    +0.000 NA
ATOM     17  H   UNL     1       5.897   7.135  15.477  0.00  0.00    +0.000 HD
BRANCH  16  18
ATOM     18  C   UNL     1       6.184   5.156  15.972  0.00  0.00    +0.000 C 
ATOM     19  C   UNL     1       7.173   5.157  17.152  0.00  0.00    +0.000 C 
ATOM     20  C   UNL     1       5.206   3.981  16.179  0.00  0.00    +0.000 C 
ATOM     21  C   UNL     1       6.931   4.933  14.647  0.00  0.00    +0.000 C 
ENDBRANCH  16  18
ENDBRANCH  15  16
ENDBRANCH  12  15
ENDBRANCH   3  12
TORSDOF 8
ENDMDL
MODEL 9
REMARK VINA RESULT:      -6.2      2.786      6.633
REMARK  Name = 
REMARK  12 active torsions:
REMARK  status: ('A' for Active; 'I' for Inactive)
REMARK    1  A    between atoms: C_1  and  O_2
REMARK    2  A    between atoms: O_2  and  C_3
REMARK    3  A    between atoms: C_3  and  C_4
REMARK    4  A    between atoms: C_6  and  C_7
REMARK    5  A    between atoms: C_7  and  O_8
REMARK    6  A    between atoms: C_7  and  C_9
REMARK    7  A    between atoms: C_9  and  N_10
REMARK    8  A    between atoms: N_10  and  C_11
REMARK    9  A    between atoms: C_11  and  C_12
REMARK   10  A    between atoms: C_11  and  C_13
REMARK   11  A    between atoms: C_11  and  C_14
REMARK   12  A    between atoms: C_17  and  O_18
REMARK                            x       y       z     vdW  Elec       q    Type
REMARK                         _______ _______ _______ _____ _____    ______ ____
ROOT
ATOM      1  C   UNL     1       1.760   3.836  18.842  0.00  0.00    +0.000 A 
ATOM      2  C   UNL     1       2.387   4.756  17.985  0.00  0.00    +0.000 A 
ATOM      3  C   UNL     1       2.745   6.045  18.418  0.00  0.00    +0.000 A 
ATOM      4  C   UNL     1       2.423   6.417  19.729  0.00  0.00    +0.000 A 
ATOM      5  C   UNL     1       1.788   5.520  20.591  0.00  0.00    +0.000 A 
ATOM      6  C   UNL     1       1.468   4.238  20.147  0.00  0.00    +0.000 A 
ENDROOT
BRANCH   6   7
ATOM      7  O   UNL     1       0.849   3.365  20.997  0.00  0.00    +0.000 OA
ATOM      8  H   UNL     1      -0.074   3.646  21.111  0.00  0.00    +0.000 HD
ENDBRANCH   6   7
BRANCH   1   9
ATOM      9  C   UNL     1       1.422   2.459  18.334  0.00  0.00    +0.000 C 
BRANCH   9  11
ATOM     10  C   UNL     1       3.538   1.442  18.523  0.00  0.00    +0.000 C 
ATOM     11  O   UNL     1       2.550   1.933  17.630  0.00  0.00    +0.000 OA
ENDBRANCH   9  11
ENDBRANCH   1   9
BRANCH   3  12
ATOM     12  C   UNL     1       3.436   6.980  17.445  0.00  0.00    +0.000 C 
BRANCH  12  13
ATOM     13  O   UNL     1       3.152   8.330  17.833  0.00  0.00    +0.000 OA
ATOM     14  H   UNL     1       2.655   8.285  18.669  0.00  0.00    +0.000 HD
ENDBRANCH  12  13
BRANCH  12  15
ATOM     15  C   UNL     1       4.977   6.840  17.321  0.00  0.00    +0.000 C 
BRANCH  15  16
ATOM     16  N   UNL     1       5.445   6.339  16.020  0.00  0.00    +0.000 NA
ATOM     17  H   UNL     1       6.002   7.065  15.566  0.00  0.00    +0.000 HD
BRANCH  16  18
ATOM     18  C   UNL     1       6.204   5.076  16.063  0.00  0.00    +0.000 C 
ATOM     19  C   UNL     1       5.258   3.866  16.165  0.00  0.00    +0.000 C 
ATOM     20  C   UNL     1       6.973   4.961  14.731  0.00  0.00    +0.000 C 
ATOM     21  C   UNL     1       7.225   5.056  17.212  0.00  0.00    +0.000 C 
ENDBRANCH  16  18
ENDBRANCH  15  16
ENDBRANCH  12  15
ENDBRANCH   3  12
TORSDOF 8
ENDMDL
