MODEL 1
REMARK VINA RESULT:      -7.3      0.000      0.000
REMARK  Name = 
REMARK  7 active torsions:
REMARK  status: ('A' for Active; 'I' for Inactive)
REMARK    1  A    between atoms: C_1  and  C_2
REMARK    2  A    between atoms: C_2  and  C_3
REMARK    3  A    between atoms: C_8  and  N_9
REMARK    4  A    between atoms: N_11  and  C_12
REMARK    5  A    between atoms: C_12  and  C_13
REMARK    6  A    between atoms: C_13  and  N_14
REMARK    7  A    between atoms: C_21  and  C_23
REMARK                            x       y       z     vdW  Elec       q    Type
REMARK                         _______ _______ _______ _____ _____    ______ ____
ROOT
ATOM      1  N   UNL     1       1.129   9.893  19.359  0.00  0.00    +0.000 NA
ATOM      2  C   UNL     1       1.158   9.343  20.532  0.00  0.00    +0.000 C 
ATOM      3  N   UNL     1       0.975   9.945  21.766  0.00  0.00    +0.000 N 
ATOM      4  N   UNL     1       1.491   8.016  20.531  0.00  0.00    +0.000 N 
ATOM      5  C   UNL     1       2.075   7.319  19.479  0.00  0.00    +0.000 C 
ATOM      6  O   UNL     1       2.686   7.789  18.529  0.00  0.00    +0.000 OA
ATOM      7  H   UNL     1       1.007  10.954  21.638  0.00  0.00    +0.000 HD
ATOM      8  H   UNL     1       1.375   7.516  21.403  0.00  0.00    +0.000 HD
ENDROOT
BRANCH   1  14
ATOM      9  C   UNL     1      -0.571  11.467  18.554  0.00  0.00    +0.000 A 
ATOM     10  C   UNL     1      -0.935  12.802  18.296  0.00  0.00    +0.000 A 
ATOM     11  C   UNL     1      -0.024  13.845  18.493  0.00  0.00    +0.000 A 
ATOM     12  C   UNL     1       1.254  13.578  18.968  0.00  0.00    +0.000 A 
ATOM     13  C   UNL     1       1.638  12.265  19.221  0.00  0.00    +0.000 A 
ATOM     14  C   UNL     1       0.767  11.195  18.988  0.00  0.00    +0.000 A 
BRANCH   9  16
ATOM     15  C   UNL     1      -2.083   9.886  17.046  0.00  0.00    +0.000 C 
ATOM     16  C   UNL     1      -1.567  10.320  18.424  0.00  0.00    +0.000 C 
ENDBRANCH   9  16
ENDBRANCH   1  14
BRANCH   5  17
ATOM     17  C   UNL     1       2.095   5.848  19.637  0.00  0.00    +0.000 A 
ATOM     18  C   UNL     1       1.792   5.250  20.862  0.00  0.00    +0.000 A 
ATOM     19  C   UNL     1       1.832   3.858  20.975  0.00  0.00    +0.000 A 
ATOM     20  C   UNL     1       2.166   3.075  19.866  0.00  0.00    +0.000 A 
ATOM     21  C   UNL     1       2.438   3.675  18.636  0.00  0.00    +0.000 A 
ATOM     22  C   UNL     1       2.395   5.062  18.517  0.00  0.00    +0.000 A 
ENDBRANCH   5  17
BRANCH   3  23
ATOM     23  C   UNL     1      -0.035   9.616  22.800  0.00  0.00    +0.000 C 
BRANCH  23  24
ATOM     24  C   UNL     1      -1.096  10.728  23.071  0.00  0.00    +0.000 C 
BRANCH  24  25
ATOM     25  N   UNL     1      -1.224  11.808  22.051  0.00  0.00    +0.000 NA
ATOM     26  C   UNL     1      -0.550  13.087  22.391  0.00  0.00    +0.000 C 
ATOM     27  C   UNL     1      -1.246  13.894  23.502  0.00  0.00    +0.000 C 
ATOM     28  O   UNL     1      -2.602  14.190  23.151  0.00  0.00    +0.000 OA
ATOM     29  C   UNL     1      -3.332  12.988  22.880  0.00  0.00    +0.000 C 
ATOM     30  C   UNL     1      -2.651  12.148  21.779  0.00  0.00    +0.000 C 
ENDBRANCH  24  25
ENDBRANCH  23  24
ENDBRANCH   3  23
TORSDOF 6
ENDMDL
MODEL 2
REMARK VINA RESULT:      -7.2      3.667      8.498
REMARK  Name = 
REMARK  7 active torsions:
REMARK  status: ('A' for Active; 'I' for Inactive)
REMARK    1  A    between atoms: C_1  and  C_2
REMARK    2  A    between atoms: C_2  and  C_3
REMARK    3  A    between atoms: C_8  and  N_9
REMARK    4  A    between atoms: N_11  and  C_12
REMARK    5  A    between atoms: C_12  and  C_13
REMARK    6  A    between atoms: C_13  and  N_14
REMARK    7  A    between atoms: C_21  and  C_23
REMARK                            x       y       z     vdW  Elec       q    Type
REMARK                         _______ _______ _______ _____ _____    ______ ____
ROOT
ATOM      1  N   UNL     1       4.398   6.328  16.918  0.00  0.00    +0.000 NA
ATOM      2  C   UNL     1       3.776   5.732  17.887  0.00  0.00    +0.000 C 
ATOM      3  N   UNL     1       3.799   4.390  18.224  0.00  0.00    +0.000 N 
ATOM      4  N   UNL     1       2.936   6.539  18.605  0.00  0.00    +0.000 N 
ATOM      5  C   UNL     1       2.474   7.792  18.218  0.00  0.00    +0.000 C 
ATOM      6  O   UNL     1       2.447   8.253  17.085  0.00  0.00    +0.000 OA
ATOM      7  H   UNL     1       4.236   3.875  17.461  0.00  0.00    +0.000 HD
ATOM      8  H   UNL     1       2.553   6.153  19.458  0.00  0.00    +0.000 HD
ENDROOT
BRANCH   1  14
ATOM      9  C   UNL     1       6.757   5.925  16.379  0.00  0.00    +0.000 A 
ATOM     10  C   UNL     1       7.700   5.319  15.528  0.00  0.00    +0.000 A 
ATOM     11  C   UNL     1       7.293   4.609  14.394  0.00  0.00    +0.000 A 
ATOM     12  C   UNL     1       5.941   4.475  14.101  0.00  0.00    +0.000 A 
ATOM     13  C   UNL     1       4.992   5.074  14.923  0.00  0.00    +0.000 A 
ATOM     14  C   UNL     1       5.368   5.831  16.037  0.00  0.00    +0.000 A 
BRANCH   9  16
ATOM     15  C   UNL     1       7.782   8.042  17.615  0.00  0.00    +0.000 C 
ATOM     16  C   UNL     1       7.168   6.636  17.663  0.00  0.00    +0.000 C 
ENDBRANCH   9  16
ENDBRANCH   1  14
BRANCH   5  17
ATOM     17  C   UNL     1       1.791   8.563  19.280  0.00  0.00    +0.000 A 
ATOM     18  C   UNL     1       1.232   9.816  19.015  0.00  0.00    +0.000 A 
ATOM     19  C   UNL     1       0.604  10.518  20.046  0.00  0.00    +0.000 A 
ATOM     20  C   UNL     1       0.533   9.966  21.328  0.00  0.00    +0.000 A 
ATOM     21  C   UNL     1       1.066   8.701  21.581  0.00  0.00    +0.000 A 
ATOM     22  C   UNL     1       1.689   7.994  20.556  0.00  0.00    +0.000 A 
ENDBRANCH   5  17
BRANCH   3  23
ATOM     23  C   UNL     1       4.200   3.779  19.514  0.00  0.00    +0.000 C 
BRANCH  23  24
ATOM     24  C   UNL     1       3.811   2.278  19.689  0.00  0.00    +0.000 C 
BRANCH  24  25
ATOM     25  N   UNL     1       2.554   1.985  20.436  0.00  0.00    +0.000 NA
ATOM     26  C   UNL     1       1.307   2.057  19.634  0.00  0.00    +0.000 C 
ATOM     27  C   UNL     1       0.882   3.485  19.248  0.00  0.00    +0.000 C 
ATOM     28  O   UNL     1       0.706   4.302  20.410  0.00  0.00    +0.000 OA
ATOM     29  C   UNL     1       1.903   4.335  21.196  0.00  0.00    +0.000 C 
ATOM     30  C   UNL     1       2.363   2.915  21.587  0.00  0.00    +0.000 C 
ENDBRANCH  24  25
ENDBRANCH  23  24
ENDBRANCH   3  23
TORSDOF 6
ENDMDL
MODEL 3
REMARK VINA RESULT:      -7.1      3.225      8.707
REMARK  Name = 
REMARK  7 active torsions:
REMARK  status: ('A' for Active; 'I' for Inactive)
REMARK    1  A    between atoms: C_1  and  C_2
REMARK    2  A    between atoms: C_2  and  C_3
REMARK    3  A    between atoms: C_8  and  N_9
REMARK    4  A    between atoms: N_11  and  C_12
REMARK    5  A    between atoms: C_12  and  C_13
REMARK    6  A    between atoms: C_13  and  N_14
REMARK    7  A    between atoms: C_21  and  C_23
REMARK                            x       y       z     vdW  Elec       q    Type
REMARK                         _______ _______ _______ _____ _____    ______ ____
ROOT
ATOM      1  N   UNL     1       3.783   7.001  17.583  0.00  0.00    +0.000 NA
ATOM      2  C   UNL     1       2.865   6.731  18.457  0.00  0.00    +0.000 C 
ATOM      3  N   UNL     1       2.494   5.496  18.959  0.00  0.00    +0.000 N 
ATOM      4  N   UNL     1       2.131   7.812  18.864  0.00  0.00    +0.000 N 
ATOM      5  C   UNL     1       2.072   9.048  18.227  0.00  0.00    +0.000 C 
ATOM      6  O   UNL     1       2.370   9.298  17.067  0.00  0.00    +0.000 OA
ATOM      7  H   UNL     1       2.924   4.774  18.384  0.00  0.00    +0.000 HD
ATOM      8  H   UNL     1       1.514   7.674  19.652  0.00  0.00    +0.000 HD
ENDROOT
BRANCH   1  14
ATOM      9  C   UNL     1       6.121   6.568  16.981  0.00  0.00    +0.000 A 
ATOM     10  C   UNL     1       7.081   5.657  16.501  0.00  0.00    +0.000 A 
ATOM     11  C   UNL     1       6.712   4.371  16.095  0.00  0.00    +0.000 A 
ATOM     12  C   UNL     1       5.385   3.966  16.179  0.00  0.00    +0.000 A 
ATOM     13  C   UNL     1       4.418   4.852  16.642  0.00  0.00    +0.000 A 
ATOM     14  C   UNL     1       4.748   6.161  17.009  0.00  0.00    +0.000 A 
BRANCH   9  16
ATOM     15  C   UNL     1       7.971   8.279  17.823  0.00  0.00    +0.000 C 
ATOM     16  C   UNL     1       6.508   7.947  17.504  0.00  0.00    +0.000 C 
ENDBRANCH   9  16
ENDBRANCH   1  14
BRANCH   5  17
ATOM     17  C   UNL     1       1.415  10.122  19.004  0.00  0.00    +0.000 A 
ATOM     18  C   UNL     1       1.578  11.466  18.658  0.00  0.00    +0.000 A 
ATOM     19  C   UNL     1       0.950  12.451  19.422  0.00  0.00    +0.000 A 
ATOM     20  C   UNL     1       0.161  12.092  20.518  0.00  0.00    +0.000 A 
ATOM     21  C   UNL     1      -0.024  10.747  20.843  0.00  0.00    +0.000 A 
ATOM     22  C   UNL     1       0.596   9.759  20.081  0.00  0.00    +0.000 A 
ENDBRANCH   5  17
BRANCH   3  23
ATOM     23  C   UNL     1       2.485   5.050  20.373  0.00  0.00    +0.000 C 
BRANCH  23  24
ATOM     24  C   UNL     1       1.386   4.003  20.734  0.00  0.00    +0.000 C 
BRANCH  24  25
ATOM     25  N   UNL     1       1.798   2.570  20.772  0.00  0.00    +0.000 NA
ATOM     26  C   UNL     1       3.248   2.331  20.985  0.00  0.00    +0.000 C 
ATOM     27  C   UNL     1       4.132   2.675  19.773  0.00  0.00    +0.000 C 
ATOM     28  O   UNL     1       3.730   1.935  18.615  0.00  0.00    +0.000 OA
ATOM     29  C   UNL     1       2.351   2.179  18.309  0.00  0.00    +0.000 C 
ATOM     30  C   UNL     1       1.439   1.857  19.511  0.00  0.00    +0.000 C 
ENDBRANCH  24  25
ENDBRANCH  23  24
ENDBRANCH   3  23
TORSDOF 6
ENDMDL
MODEL 4
REMARK VINA RESULT:      -7.0      0.501      1.039
REMARK  Name = 
REMARK  7 active torsions:
REMARK  status: ('A' for Active; 'I' for Inactive)
REMARK    1  A    between atoms: C_1  and  C_2
REMARK    2  A    between atoms: C_2  and  C_3
REMARK    3  A    between atoms: C_8  and  N_9
REMARK    4  A    between atoms: N_11  and  C_12
REMARK    5  A    between atoms: C_12  and  C_13
REMARK    6  A    between atoms: C_13  and  N_14
REMARK    7  A    between atoms: C_21  and  C_23
REMARK                            x       y       z     vdW  Elec       q    Type
REMARK                         _______ _______ _______ _____ _____    ______ ____
ROOT
ATOM      1  N   UNL     1       1.063   9.853  19.436  0.00  0.00    +0.000 NA
ATOM      2  C   UNL     1       1.051   9.305  20.611  0.00  0.00    +0.000 C 
ATOM      3  N   UNL     1       0.825   9.908  21.836  0.00  0.00    +0.000 N 
ATOM      4  N   UNL     1       1.384   7.978  20.624  0.00  0.00    +0.000 N 
ATOM      5  C   UNL     1       2.005   7.279  19.593  0.00  0.00    +0.000 C 
ATOM      6  O   UNL     1       2.649   7.748  18.665  0.00  0.00    +0.000 OA
ATOM      7  H   UNL     1       0.861  10.917  21.709  0.00  0.00    +0.000 HD
ATOM      8  H   UNL     1       1.238   7.479  21.491  0.00  0.00    +0.000 HD
ENDROOT
BRANCH   1  14
ATOM      9  C   UNL     1      -0.492  11.381  18.313  0.00  0.00    +0.000 A 
ATOM     10  C   UNL     1      -0.872  12.708  18.037  0.00  0.00    +0.000 A 
ATOM     11  C   UNL     1      -0.112  13.784  18.505  0.00  0.00    +0.000 A 
ATOM     12  C   UNL     1       1.026  13.557  19.270  0.00  0.00    +0.000 A 
ATOM     13  C   UNL     1       1.425  12.253  19.547  0.00  0.00    +0.000 A 
ATOM     14  C   UNL     1       0.714  11.155  19.052  0.00  0.00    +0.000 A 
BRANCH   9  16
ATOM     15  C   UNL     1      -2.872  10.314  17.802  0.00  0.00    +0.000 C 
ATOM     16  C   UNL     1      -1.344  10.192  17.882  0.00  0.00    +0.000 C 
ENDBRANCH   9  16
ENDBRANCH   1  14
BRANCH   5  17
ATOM     17  C   UNL     1       2.019   5.809  19.753  0.00  0.00    +0.000 A 
ATOM     18  C   UNL     1       2.086   4.963  18.643  0.00  0.00    +0.000 A 
ATOM     19  C   UNL     1       2.088   3.580  18.834  0.00  0.00    +0.000 A 
ATOM     20  C   UNL     1       2.029   3.051  20.127  0.00  0.00    +0.000 A 
ATOM     21  C   UNL     1       1.993   3.899  21.235  0.00  0.00    +0.000 A 
ATOM     22  C   UNL     1       1.996   5.280  21.050  0.00  0.00    +0.000 A 
ENDBRANCH   5  17
BRANCH   3  23
ATOM     23  C   UNL     1      -0.221   9.581  22.835  0.00  0.00    +0.000 C 
BRANCH  23  24
ATOM     24  C   UNL     1      -1.196  10.748  23.185  0.00  0.00    +0.000 C 
BRANCH  24  25
ATOM     25  N   UNL     1      -1.088  11.991  22.367  0.00  0.00    +0.000 NA
ATOM     26  C   UNL     1      -1.018  13.256  23.140  0.00  0.00    +0.000 C 
ATOM     27  C   UNL     1      -2.344  13.669  23.804  0.00  0.00    +0.000 C 
ATOM     28  O   UNL     1      -3.386  13.804  22.832  0.00  0.00    +0.000 OA
ATOM     29  C   UNL     1      -3.558  12.587  22.096  0.00  0.00    +0.000 C 
ATOM     30  C   UNL     1      -2.240  12.139  21.430  0.00  0.00    +0.000 C 
ENDBRANCH  24  25
ENDBRANCH  23  24
ENDBRANCH   3  23
TORSDOF 6
ENDMDL
MODEL 5
REMARK VINA RESULT:      -6.9      3.349      6.975
REMARK  Name = 
REMARK  7 active torsions:
REMARK  status: ('A' for Active; 'I' for Inactive)
REMARK    1  A    between atoms: C_1  and  C_2
REMARK    2  A    between atoms: C_2  and  C_3
REMARK    3  A    between atoms: C_8  and  N_9
REMARK    4  A    between atoms: N_11  and  C_12
REMARK    5  A    between atoms: C_12  and  C_13
REMARK    6  A    between atoms: C_13  and  N_14
REMARK    7  A    between atoms: C_21  and  C_23
REMARK                            x       y       z     vdW  Elec       q    Type
REMARK                         _______ _______ _______ _____ _____    ______ ____
ROOT
ATOM      1  N   UNL     1       2.324   7.701  19.298  0.00  0.00    +0.000 NA
ATOM      2  C   UNL     1       2.825   6.572  19.688  0.00  0.00    +0.000 C 
ATOM      3  N   UNL     1       2.698   5.958  20.923  0.00  0.00    +0.000 N 
ATOM      4  N   UNL     1       3.642   5.965  18.774  0.00  0.00    +0.000 N 
ATOM      5  C   UNL     1       4.205   6.567  17.653  0.00  0.00    +0.000 C 
ATOM      6  O   UNL     1       4.356   7.764  17.453  0.00  0.00    +0.000 OA
ATOM      7  H   UNL     1       2.302   6.630  21.576  0.00  0.00    +0.000 HD
ATOM      8  H   UNL     1       3.928   5.017  18.976  0.00  0.00    +0.000 HD
ENDROOT
BRANCH   1  14
ATOM      9  C   UNL     1       1.056   9.801  19.348  0.00  0.00    +0.000 A 
ATOM     10  C   UNL     1       0.052  10.575  19.959  0.00  0.00    +0.000 A 
ATOM     11  C   UNL     1      -0.616  10.114  21.098  0.00  0.00    +0.000 A 
ATOM     12  C   UNL     1      -0.309   8.869  21.634  0.00  0.00    +0.000 A 
ATOM     13  C   UNL     1       0.687   8.092  21.051  0.00  0.00    +0.000 A 
ATOM     14  C   UNL     1       1.407   8.545  19.941  0.00  0.00    +0.000 A 
BRANCH   9  16
ATOM     15  C   UNL     1       2.364  11.643  17.948  0.00  0.00    +0.000 C 
ATOM     16  C   UNL     1       1.745  10.243  18.062  0.00  0.00    +0.000 C 
ENDBRANCH   9  16
ENDBRANCH   1  14
BRANCH   5  17
ATOM     17  C   UNL     1       4.835   5.635  16.692  0.00  0.00    +0.000 A 
ATOM     18  C   UNL     1       5.031   4.289  17.015  0.00  0.00    +0.000 A 
ATOM     19  C   UNL     1       5.638   3.443  16.085  0.00  0.00    +0.000 A 
ATOM     20  C   UNL     1       6.039   3.940  14.842  0.00  0.00    +0.000 A 
ATOM     21  C   UNL     1       5.814   5.277  14.511  0.00  0.00    +0.000 A 
ATOM     22  C   UNL     1       5.204   6.125  15.433  0.00  0.00    +0.000 A 
ENDBRANCH   5  17
BRANCH   3  23
ATOM     23  C   UNL     1       2.153   4.611  21.221  0.00  0.00    +0.000 C 
BRANCH  23  24
ATOM     24  C   UNL     1       1.064   4.099  20.228  0.00  0.00    +0.000 C 
BRANCH  24  25
ATOM     25  N   UNL     1       0.999   2.628  19.990  0.00  0.00    +0.000 NA
ATOM     26  C   UNL     1       2.186   1.859  20.441  0.00  0.00    +0.000 C 
ATOM     27  C   UNL     1       3.441   2.062  19.574  0.00  0.00    +0.000 C 
ATOM     28  O   UNL     1       3.185   1.716  18.208  0.00  0.00    +0.000 OA
ATOM     29  C   UNL     1       2.091   2.480  17.686  0.00  0.00    +0.000 C 
ATOM     30  C   UNL     1       0.821   2.308  18.544  0.00  0.00    +0.000 C 
ENDBRANCH  24  25
ENDBRANCH  23  24
ENDBRANCH   3  23
TORSDOF 6
ENDMDL
MODEL 6
REMARK VINA RESULT:      -6.8      3.234      9.300
REMARK  Name = 
REMARK  7 active torsions:
REMARK  status: ('A' for Active; 'I' for Inactive)
REMARK    1  A    between atoms: C_1  and  C_2
REMARK    2  A    between atoms: C_2  and  C_3
REMARK    3  A    between atoms: C_8  and  N_9
REMARK    4  A    between atoms: N_11  and  C_12
REMARK    5  A    between atoms: C_12  and  C_13
REMARK    6  A    between atoms: C_13  and  N_14
REMARK    7  A    between atoms: C_21  and  C_23
REMARK                            x       y       z     vdW  Elec       q    Type
REMARK                         _______ _______ _______ _____ _____    ______ ____
ROOT
ATOM      1  N   UNL     1       2.072   5.587  19.342  0.00  0.00    +0.000 NA
ATOM      2  C   UNL     1       2.822   6.617  19.106  0.00  0.00    +0.000 C 
ATOM      3  N   UNL     1       4.076   6.650  18.522  0.00  0.00    +0.000 N 
ATOM      4  N   UNL     1       2.323   7.803  19.574  0.00  0.00    +0.000 N 
ATOM      5  C   UNL     1       1.298   7.951  20.502  0.00  0.00    +0.000 C 
ATOM      6  O   UNL     1       0.891   7.113  21.295  0.00  0.00    +0.000 OA
ATOM      7  H   UNL     1       4.432   5.697  18.473  0.00  0.00    +0.000 HD
ATOM      8  H   UNL     1       2.798   8.645  19.278  0.00  0.00    +0.000 HD
ENDROOT
BRANCH   1  14
ATOM      9  C   UNL     1       1.976   3.197  19.888  0.00  0.00    +0.000 A 
ATOM     10  C   UNL     1       2.043   1.866  19.436  0.00  0.00    +0.000 A 
ATOM     11  C   UNL     1       2.322   1.575  18.097  0.00  0.00    +0.000 A 
ATOM     12  C   UNL     1       2.518   2.604  17.184  0.00  0.00    +0.000 A 
ATOM     13  C   UNL     1       2.465   3.927  17.611  0.00  0.00    +0.000 A 
ATOM     14  C   UNL     1       2.238   4.250  18.953  0.00  0.00    +0.000 A 
BRANCH   9  16
ATOM     15  C   UNL     1       1.212   2.440  22.318  0.00  0.00    +0.000 C 
ATOM     16  C   UNL     1       1.597   3.544  21.324  0.00  0.00    +0.000 C 
ENDBRANCH   9  16
ENDBRANCH   1  14
BRANCH   5  17
ATOM     17  C   UNL     1       0.775   9.327  20.643  0.00  0.00    +0.000 A 
ATOM     18  C   UNL     1       0.849  10.239  19.587  0.00  0.00    +0.000 A 
ATOM     19  C   UNL     1       0.354  11.533  19.762  0.00  0.00    +0.000 A 
ATOM     20  C   UNL     1      -0.216  11.906  20.983  0.00  0.00    +0.000 A 
ATOM     21  C   UNL     1      -0.316  10.983  22.025  0.00  0.00    +0.000 A 
ATOM     22  C   UNL     1       0.172   9.690  21.854  0.00  0.00    +0.000 A 
ENDBRANCH   5  17
BRANCH   3  23
ATOM     23  C   UNL     1       4.498   7.389  17.308  0.00  0.00    +0.000 C 
BRANCH  23  24
ATOM     24  C   UNL     1       5.025   6.502  16.137  0.00  0.00    +0.000 C 
BRANCH  24  25
ATOM     25  N   UNL     1       6.490   6.540  15.862  0.00  0.00    +0.000 NA
ATOM     26  C   UNL     1       7.024   5.386  15.096  0.00  0.00    +0.000 C 
ATOM     27  C   UNL     1       7.090   4.071  15.894  0.00  0.00    +0.000 C 
ATOM     28  O   UNL     1       7.888   4.224  17.073  0.00  0.00    +0.000 OA
ATOM     29  C   UNL     1       7.381   5.281  17.897  0.00  0.00    +0.000 C 
ATOM     30  C   UNL     1       7.289   6.610  17.120  0.00  0.00    +0.000 C 
ENDBRANCH  24  25
ENDBRANCH  23  24
ENDBRANCH   3  23
TORSDOF 6
ENDMDL
MODEL 7
REMARK VINA RESULT:      -6.8      0.564      1.051
REMARK  Name = 
REMARK  7 active torsions:
REMARK  status: ('A' for Active; 'I' for Inactive)
REMARK    1  A    between atoms: C_1  and  C_2
REMARK    2  A    between atoms: C_2  and  C_3
REMARK    3  A    between atoms: C_8  and  N_9
REMARK    4  A    between atoms: N_11  and  C_12
REMARK    5  A    between atoms: C_12  and  C_13
REMARK    6  A    between atoms: C_13  and  N_14
REMARK    7  A    between atoms: C_21  and  C_23
REMARK                            x       y       z     vdW  Elec       q    Type
REMARK                         _______ _______ _______ _____ _____    ______ ____
ROOT
ATOM      1  N   UNL     1       1.202   9.908  19.239  0.00  0.00    +0.000 NA
ATOM      2  C   UNL     1       1.251   9.390  20.426  0.00  0.00    +0.000 C 
ATOM      3  N   UNL     1       1.119  10.028  21.647  0.00  0.00    +0.000 N 
ATOM      4  N   UNL     1       1.550   8.055  20.453  0.00  0.00    +0.000 N 
ATOM      5  C   UNL     1       2.087   7.315  19.404  0.00  0.00    +0.000 C 
ATOM      6  O   UNL     1       2.682   7.743  18.424  0.00  0.00    +0.000 OA
ATOM      7  H   UNL     1       1.172  11.033  21.492  0.00  0.00    +0.000 HD
ATOM      8  H   UNL     1       1.447   7.582  21.341  0.00  0.00    +0.000 HD
ENDROOT
BRANCH   1  14
ATOM      9  C   UNL     1      -0.491  11.515  18.487  0.00  0.00    +0.000 A 
ATOM     10  C   UNL     1      -0.824  12.853  18.202  0.00  0.00    +0.000 A 
ATOM     11  C   UNL     1       0.133  13.868  18.299  0.00  0.00    +0.000 A 
ATOM     12  C   UNL     1       1.430  13.569  18.701  0.00  0.00    +0.000 A 
ATOM     13  C   UNL     1       1.783  12.253  18.979  0.00  0.00    +0.000 A 
ATOM     14  C   UNL     1       0.862  11.209  18.843  0.00  0.00    +0.000 A 
BRANCH   9  16
ATOM     15  C   UNL     1      -2.089   9.879  17.134  0.00  0.00    +0.000 C 
ATOM     16  C   UNL     1      -1.533  10.402  18.465  0.00  0.00    +0.000 C 
ENDBRANCH   9  16
ENDBRANCH   1  14
BRANCH   5  17
ATOM     17  C   UNL     1       2.074   5.849  19.601  0.00  0.00    +0.000 A 
ATOM     18  C   UNL     1       1.897   5.293  20.871  0.00  0.00    +0.000 A 
ATOM     19  C   UNL     1       1.901   3.905  21.019  0.00  0.00    +0.000 A 
ATOM     20  C   UNL     1       2.076   3.082  19.903  0.00  0.00    +0.000 A 
ATOM     21  C   UNL     1       2.222   3.640  18.631  0.00  0.00    +0.000 A 
ATOM     22  C   UNL     1       2.213   5.024  18.478  0.00  0.00    +0.000 A 
ENDBRANCH   5  17
BRANCH   3  23
ATOM     23  C   UNL     1       0.131   9.754  22.719  0.00  0.00    +0.000 C 
BRANCH  23  24
ATOM     24  C   UNL     1      -1.238  10.488  22.566  0.00  0.00    +0.000 C 
BRANCH  24  25
ATOM     25  N   UNL     1      -1.452  11.706  23.400  0.00  0.00    +0.000 NA
ATOM     26  C   UNL     1      -2.871  12.058  23.657  0.00  0.00    +0.000 C 
ATOM     27  C   UNL     1      -3.617  12.623  22.435  0.00  0.00    +0.000 C 
ATOM     28  O   UNL     1      -2.960  13.787  21.923  0.00  0.00    +0.000 OA
ATOM     29  C   UNL     1      -1.598  13.496  21.584  0.00  0.00    +0.000 C 
ATOM     30  C   UNL     1      -0.827  12.914  22.787  0.00  0.00    +0.000 C 
ENDBRANCH  24  25
ENDBRANCH  23  24
ENDBRANCH   3  23
TORSDOF 6
ENDMDL
MODEL 8
REMARK VINA RESULT:      -6.7      3.433      8.526
REMARK  Name = 
REMARK  7 active torsions:
REMARK  status: ('A' for Active; 'I' for Inactive)
REMARK    1  A    between atoms: C_1  and  C_2
REMARK    2  A    between atoms: C_2  and  C_3
REMARK    3  A    between atoms: C_8  and  N_9
REMARK    4  A    between atoms: N_11  and  C_12
REMARK    5  A    between atoms: C_12  and  C_13
REMARK    6  A    between atoms: C_13  and  N_14
REMARK    7  A    between atoms: C_21  and  C_23
REMARK                            x       y       z     vdW  Elec       q    Type
REMARK                         _______ _______ _______ _____ _____    ______ ____
ROOT
ATOM      1  N   UNL     1       4.070   6.486  17.331  0.00  0.00    +0.000 NA
ATOM      2  C   UNL     1       2.924   5.974  17.651  0.00  0.00    +0.000 C 
ATOM      3  N   UNL     1       2.401   4.744  17.287  0.00  0.00    +0.000 N 
ATOM      4  N   UNL     1       2.112   6.804  18.375  0.00  0.00    +0.000 N 
ATOM      5  C   UNL     1       2.267   8.178  18.521  0.00  0.00    +0.000 C 
ATOM      6  O   UNL     1       2.913   8.930  17.804  0.00  0.00    +0.000 OA
ATOM      7  H   UNL     1       2.980   4.356  16.545  0.00  0.00    +0.000 HD
ATOM      8  H   UNL     1       1.279   6.392  18.774  0.00  0.00    +0.000 HD
ENDROOT
BRANCH   1  14
ATOM      9  C   UNL     1       6.275   5.414  17.410  0.00  0.00    +0.000 A 
ATOM     10  C   UNL     1       7.298   4.735  16.721  0.00  0.00    +0.000 A 
ATOM     11  C   UNL     1       7.209   4.509  15.344  0.00  0.00    +0.000 A 
ATOM     12  C   UNL     1       6.093   4.937  14.636  0.00  0.00    +0.000 A 
ATOM     13  C   UNL     1       5.074   5.618  15.295  0.00  0.00    +0.000 A 
ATOM     14  C   UNL     1       5.156   5.903  16.662  0.00  0.00    +0.000 A 
BRANCH   9  16
ATOM     15  C   UNL     1       7.648   5.686  19.669  0.00  0.00    +0.000 C 
ATOM     16  C   UNL     1       6.310   5.604  18.922  0.00  0.00    +0.000 C 
ENDBRANCH   9  16
ENDBRANCH   1  14
BRANCH   5  17
ATOM     17  C   UNL     1       1.414   8.798  19.559  0.00  0.00    +0.000 A 
ATOM     18  C   UNL     1       0.611   9.904  19.266  0.00  0.00    +0.000 A 
ATOM     19  C   UNL     1      -0.173  10.468  20.274  0.00  0.00    +0.000 A 
ATOM     20  C   UNL     1      -0.157   9.924  21.562  0.00  0.00    +0.000 A 
ATOM     21  C   UNL     1       0.623   8.800  21.843  0.00  0.00    +0.000 A 
ATOM     22  C   UNL     1       1.403   8.231  20.839  0.00  0.00    +0.000 A 
ENDBRANCH   5  17
BRANCH   3  23
ATOM     23  C   UNL     1       1.949   3.646  18.175  0.00  0.00    +0.000 C 
BRANCH  23  24
ATOM     24  C   UNL     1       3.071   2.671  18.653  0.00  0.00    +0.000 C 
BRANCH  24  25
ATOM     25  N   UNL     1       3.846   3.069  19.863  0.00  0.00    +0.000 NA
ATOM     26  C   UNL     1       3.839   2.084  20.974  0.00  0.00    +0.000 C 
ATOM     27  C   UNL     1       2.498   1.983  21.723  0.00  0.00    +0.000 C 
ATOM     28  O   UNL     1       2.109   3.253  22.258  0.00  0.00    +0.000 OA
ATOM     29  C   UNL     1       2.025   4.238  21.221  0.00  0.00    +0.000 C 
ATOM     30  C   UNL     1       3.351   4.353  20.441  0.00  0.00    +0.000 C 
ENDBRANCH  24  25
ENDBRANCH  23  24
ENDBRANCH   3  23
TORSDOF 6
ENDMDL
MODEL 9
REMARK VINA RESULT:      -6.7      3.067      9.256
REMARK  Name = 
REMARK  7 active torsions:
REMARK  status: ('A' for Active; 'I' for Inactive)
REMARK    1  A    between atoms: C_1  and  C_2
REMARK    2  A    between atoms: C_2  and  C_3
REMARK    3  A    between atoms: C_8  and  N_9
REMARK    4  A    between atoms: N_11  and  C_12
REMARK    5  A    between atoms: C_12  and  C_13
REMARK    6  A    between atoms: C_13  and  N_14
REMARK    7  A    between atoms: C_21  and  C_23
REMARK                            x       y       z     vdW  Elec       q    Type
REMARK                         _______ _______ _______ _____ _____    ______ ____
ROOT
ATOM      1  N   UNL     1       1.994   5.629  19.428  0.00  0.00    +0.000 NA
ATOM      2  C   UNL     1       2.665   6.706  19.163  0.00  0.00    +0.000 C 
ATOM      3  N   UNL     1       3.864   6.823  18.482  0.00  0.00    +0.000 N 
ATOM      4  N   UNL     1       2.141   7.850  19.700  0.00  0.00    +0.000 N 
ATOM      5  C   UNL     1       1.187   7.918  20.710  0.00  0.00    +0.000 C 
ATOM      6  O   UNL     1       0.892   7.041  21.510  0.00  0.00    +0.000 OA
ATOM      7  H   UNL     1       4.267   5.894  18.379  0.00  0.00    +0.000 HD
ATOM      8  H   UNL     1       2.544   8.725  19.391  0.00  0.00    +0.000 HD
ENDROOT
BRANCH   1  14
ATOM      9  C   UNL     1       2.156   3.234  19.930  0.00  0.00    +0.000 A 
ATOM     10  C   UNL     1       2.256   1.917  19.445  0.00  0.00    +0.000 A 
ATOM     11  C   UNL     1       2.360   1.663  18.074  0.00  0.00    +0.000 A 
ATOM     12  C   UNL     1       2.345   2.714  17.165  0.00  0.00    +0.000 A 
ATOM     13  C   UNL     1       2.256   4.024  17.623  0.00  0.00    +0.000 A 
ATOM     14  C   UNL     1       2.201   4.314  18.990  0.00  0.00    +0.000 A 
BRANCH   9  16
ATOM     15  C   UNL     1       1.238   2.536  22.324  0.00  0.00    +0.000 C 
ATOM     16  C   UNL     1       1.963   3.535  21.412  0.00  0.00    +0.000 C 
ENDBRANCH   9  16
ENDBRANCH   1  14
BRANCH   5  17
ATOM     17  C   UNL     1       0.603   9.259  20.930  0.00  0.00    +0.000 A 
ATOM     18  C   UNL     1       0.637  10.234  19.930  0.00  0.00    +0.000 A 
ATOM     19  C   UNL     1       0.084  11.492  20.179  0.00  0.00    +0.000 A 
ATOM     20  C   UNL     1      -0.503  11.767  21.417  0.00  0.00    +0.000 A 
ATOM     21  C   UNL     1      -0.563  10.781  22.403  0.00  0.00    +0.000 A 
ATOM     22  C   UNL     1      -0.017   9.523  22.158  0.00  0.00    +0.000 A 
ENDBRANCH   5  17
BRANCH   3  23
ATOM     23  C   UNL     1       4.147   7.613  17.259  0.00  0.00    +0.000 C 
BRANCH  23  24
ATOM     24  C   UNL     1       4.989   6.878  16.170  0.00  0.00    +0.000 C 
BRANCH  24  25
ATOM     25  N   UNL     1       5.039   5.389  16.242  0.00  0.00    +0.000 NA
ATOM     26  C   UNL     1       5.845   4.833  17.359  0.00  0.00    +0.000 C 
ATOM     27  C   UNL     1       7.366   4.992  17.184  0.00  0.00    +0.000 C 
ATOM     28  O   UNL     1       7.812   4.378  15.970  0.00  0.00    +0.000 OA
ATOM     29  C   UNL     1       7.122   4.924  14.839  0.00  0.00    +0.000 C 
ATOM     30  C   UNL     1       5.593   4.792  14.992  0.00  0.00    +0.000 C 
ENDBRANCH  24  25
ENDBRANCH  23  24
ENDBRANCH   3  23
TORSDOF 6
ENDMDL
