MODEL 1
REMARK VINA RESULT:      -7.0      0.000      0.000
REMARK  Name = 
REMARK  7 active torsions:
REMARK  status: ('A' for Active; 'I' for Inactive)
REMARK    1  A    between atoms: C_1  and  C_2
REMARK    2  A    between atoms: C_2  and  C_3
REMARK    3  A    between atoms: C_3  and  O_4
REMARK    4  A    between atoms: C_6  and  O_7
REMARK    5  A    between atoms: C_9  and  C_10
REMARK    6  A    between atoms: C_19  and  O_20
REMARK    7  A    between atoms: C_21  and  C_22
REMARK                            x       y       z     vdW  Elec       q    Type
REMARK                         _______ _______ _______ _____ _____    ______ ____
ROOT
ATOM      1  C   UNL     1       0.588   5.670  20.914  0.00  0.00    +0.000 C 
ATOM      2  C   UNL     1       1.479   4.520  20.351  0.00  0.00    +0.000 C 
ATOM      3  C   UNL     1       0.462   3.420  19.887  0.00  0.00    +0.000 C 
ATOM      4  C   UNL     1       0.968   2.336  18.918  0.00  0.00    +0.000 C 
ATOM      5  C   UNL     1       1.870   2.876  17.785  0.00  0.00    +0.000 C 
ATOM      6  C   UNL     1       3.034   3.736  18.366  0.00  0.00    +0.000 C 
ATOM      7  C   UNL     1       3.849   2.755  19.261  0.00  0.00    +0.000 C 
ATOM      8  C   UNL     1       4.067   4.243  17.311  0.00  0.00    +0.000 C 
ATOM      9  C   UNL     1       4.329   5.548  17.064  0.00  0.00    +0.000 C 
ATOM     10  C   UNL     1       3.628   6.657  17.819  0.00  0.00    +0.000 C 
ATOM     11  C   UNL     1       3.100   6.219  19.192  0.00  0.00    +0.000 C 
ATOM     12  C   UNL     1       2.269   4.946  19.070  0.00  0.00    +0.000 C 
ATOM     13  C   UNL     1       5.403   6.008  16.060  0.00  0.00    +0.000 C 
ATOM     14  O   UNL     1       6.150   7.115  16.630  0.00  0.00    +0.000 OA
ATOM     15  C   UNL     1       7.446   6.642  17.032  0.00  0.00    +0.000 C 
ATOM     16  C   UNL     1       7.364   5.125  16.973  0.00  0.00    +0.000 C 
ATOM     17  C   UNL     1       6.467   4.940  15.740  0.00  0.00    +0.000 C 
ATOM     18  C   UNL     1       7.233   5.244  14.432  0.00  0.00    +0.000 C 
ATOM     19  C   UNL     1       5.855   3.557  15.562  0.00  0.00    +0.000 C 
ATOM     20  C   UNL     1       4.927   3.153  16.686  0.00  0.00    +0.000 C 
ENDROOT
BRANCH   4  21
ATOM     21  O   UNL     1      -0.146   1.644  18.337  0.00  0.00    +0.000 OA
ATOM     22  H   UNL     1      -0.097   0.710  18.600  0.00  0.00    +0.000 HD
ENDBRANCH   4  21
BRANCH  16  23
ATOM     23  O   UNL     1       8.624   4.491  16.889  0.00  0.00    +0.000 OA
ATOM     24  H   UNL     1       9.224   4.972  17.487  0.00  0.00    +0.000 HD
ENDBRANCH  16  23
BRANCH   2  25
ATOM     25  C   UNL     1       2.419   4.189  21.542  0.00  0.00    +0.000 C 
BRANCH  25  26
ATOM     26  O   UNL     1       1.993   3.041  22.259  0.00  0.00    +0.000 OA
ATOM     27  H   UNL     1       1.093   2.832  21.943  0.00  0.00    +0.000 HD
ENDBRANCH  25  26
ENDBRANCH   2  25
TORSDOF 4
ENDMDL
MODEL 2
REMARK VINA RESULT:      -6.7      4.218      6.859
REMARK  Name = 
REMARK  7 active torsions:
REMARK  status: ('A' for Active; 'I' for Inactive)
REMARK    1  A    between atoms: C_1  and  C_2
REMARK    2  A    between atoms: C_2  and  C_3
REMARK    3  A    between atoms: C_3  and  O_4
REMARK    4  A    between atoms: C_6  and  O_7
REMARK    5  A    between atoms: C_9  and  C_10
REMARK    6  A    between atoms: C_19  and  O_20
REMARK    7  A    between atoms: C_21  and  C_22
REMARK                            x       y       z     vdW  Elec       q    Type
REMARK                         _______ _______ _______ _____ _____    ______ ____
ROOT
ATOM      1  C   UNL     1      -0.677  11.784  21.219  0.00  0.00    +0.000 C 
ATOM      2  C   UNL     1      -0.183  11.185  19.866  0.00  0.00    +0.000 C 
ATOM      3  C   UNL     1       0.680  12.323  19.219  0.00  0.00    +0.000 C 
ATOM      4  C   UNL     1       1.647  11.935  18.086  0.00  0.00    +0.000 C 
ATOM      5  C   UNL     1       2.425  10.625  18.343  0.00  0.00    +0.000 C 
ATOM      6  C   UNL     1       1.451   9.464  18.707  0.00  0.00    +0.000 C 
ATOM      7  C   UNL     1       0.542   9.295  17.453  0.00  0.00    +0.000 C 
ATOM      8  C   UNL     1       2.127   8.068  18.883  0.00  0.00    +0.000 C 
ATOM      9  C   UNL     1       2.100   7.344  20.027  0.00  0.00    +0.000 C 
ATOM     10  C   UNL     1       1.382   7.839  21.265  0.00  0.00    +0.000 C 
ATOM     11  C   UNL     1       0.266   8.847  20.958  0.00  0.00    +0.000 C 
ATOM     12  C   UNL     1       0.782   9.970  20.065  0.00  0.00    +0.000 C 
ATOM     13  C   UNL     1       2.724   5.941  20.141  0.00  0.00    +0.000 C 
ATOM     14  O   UNL     1       1.826   5.075  20.883  0.00  0.00    +0.000 OA
ATOM     15  C   UNL     1       1.192   4.169  19.966  0.00  0.00    +0.000 C 
ATOM     16  C   UNL     1       1.500   4.710  18.578  0.00  0.00    +0.000 C 
ATOM     17  C   UNL     1       2.930   5.229  18.790  0.00  0.00    +0.000 C 
ATOM     18  C   UNL     1       3.946   4.068  18.884  0.00  0.00    +0.000 C 
ATOM     19  C   UNL     1       3.462   6.173  17.720  0.00  0.00    +0.000 C 
ATOM     20  C   UNL     1       2.678   7.461  17.600  0.00  0.00    +0.000 C 
ENDROOT
BRANCH   4  21
ATOM     21  O   UNL     1       2.583  12.998  17.861  0.00  0.00    +0.000 OA
ATOM     22  H   UNL     1       2.270  13.788  18.332  0.00  0.00    +0.000 HD
ENDBRANCH   4  21
BRANCH  16  23
ATOM     23  O   UNL     1       1.365   3.750  17.551  0.00  0.00    +0.000 OA
ATOM     24  H   UNL     1       1.449   4.225  16.705  0.00  0.00    +0.000 HD
ENDBRANCH  16  23
BRANCH   2  25
ATOM     25  C   UNL     1      -1.505  10.779  19.159  0.00  0.00    +0.000 C 
BRANCH  25  26
ATOM     26  O   UNL     1      -1.938  11.759  18.229  0.00  0.00    +0.000 OA
ATOM     27  H   UNL     1      -1.141  12.238  17.936  0.00  0.00    +0.000 HD
ENDBRANCH  25  26
ENDBRANCH   2  25
TORSDOF 4
ENDMDL
MODEL 3
REMARK VINA RESULT:      -6.3      8.125     11.721
REMARK  Name = 
REMARK  7 active torsions:
REMARK  status: ('A' for Active; 'I' for Inactive)
REMARK    1  A    between atoms: C_1  and  C_2
REMARK    2  A    between atoms: C_2  and  C_3
REMARK    3  A    between atoms: C_3  and  O_4
REMARK    4  A    between atoms: C_6  and  O_7
REMARK    5  A    between atoms: C_9  and  C_10
REMARK    6  A    between atoms: C_19  and  O_20
REMARK    7  A    between atoms: C_21  and  C_22
REMARK                            x       y       z     vdW  Elec       q    Type
REMARK                         _______ _______ _______ _____ _____    ______ ____
ROOT
ATOM      1  C   UNL     1       0.902   9.614  17.938  0.00  0.00    +0.000 C 
ATOM      2  C   UNL     1       0.266  10.498  19.055  0.00  0.00    +0.000 C 
ATOM      3  C   UNL     1       1.213  11.743  19.164  0.00  0.00    +0.000 C 
ATOM      4  C   UNL     1       0.670  13.000  19.869  0.00  0.00    +0.000 C 
ATOM      5  C   UNL     1      -0.789  13.349  19.496  0.00  0.00    +0.000 C 
ATOM      6  C   UNL     1      -1.721  12.115  19.692  0.00  0.00    +0.000 C 
ATOM      7  C   UNL     1      -1.635  11.784  21.212  0.00  0.00    +0.000 C 
ATOM      8  C   UNL     1      -3.238  12.391  19.445  0.00  0.00    +0.000 C 
ATOM      9  C   UNL     1      -3.985  11.766  18.504  0.00  0.00    +0.000 C 
ATOM     10  C   UNL     1      -3.396  10.710  17.593  0.00  0.00    +0.000 C 
ATOM     11  C   UNL     1      -2.157  10.023  18.181  0.00  0.00    +0.000 C 
ATOM     12  C   UNL     1      -1.138  11.055  18.652  0.00  0.00    +0.000 C 
ATOM     13  C   UNL     1      -5.495  12.019  18.334  0.00  0.00    +0.000 C 
ATOM     14  O   UNL     1      -6.173  10.753  18.118  0.00  0.00    +0.000 OA
ATOM     15  C   UNL     1      -6.878  10.395  19.318  0.00  0.00    +0.000 C 
ATOM     16  C   UNL     1      -6.360  11.337  20.393  0.00  0.00    +0.000 C 
ATOM     17  C   UNL     1      -6.178  12.624  19.576  0.00  0.00    +0.000 C 
ATOM     18  C   UNL     1      -7.537  13.280  19.241  0.00  0.00    +0.000 C 
ATOM     19  C   UNL     1      -5.330  13.711  20.224  0.00  0.00    +0.000 C 
ATOM     20  C   UNL     1      -3.898  13.296  20.476  0.00  0.00    +0.000 C 
ENDROOT
BRANCH   4  21
ATOM     21  O   UNL     1       1.509  14.124  19.573  0.00  0.00    +0.000 OA
ATOM     22  H   UNL     1       2.275  14.100  20.170  0.00  0.00    +0.000 HD
ENDBRANCH   4  21
BRANCH  16  23
ATOM     23  O   UNL     1      -7.225  11.459  21.505  0.00  0.00    +0.000 OA
ATOM     24  H   UNL     1      -7.359  10.562  21.860  0.00  0.00    +0.000 HD
ENDBRANCH  16  23
BRANCH   2  25
ATOM     25  C   UNL     1       0.191   9.530  20.268  0.00  0.00    +0.000 C 
BRANCH  25  26
ATOM     26  O   UNL     1       1.318   8.672  20.339  0.00  0.00    +0.000 OA
ATOM     27  H   UNL     1       1.252   8.059  19.583  0.00  0.00    +0.000 HD
ENDBRANCH  25  26
ENDBRANCH   2  25
TORSDOF 4
ENDMDL
MODEL 4
REMARK VINA RESULT:      -6.0      9.218     11.750
REMARK  Name = 
REMARK  7 active torsions:
REMARK  status: ('A' for Active; 'I' for Inactive)
REMARK    1  A    between atoms: C_1  and  C_2
REMARK    2  A    between atoms: C_2  and  C_3
REMARK    3  A    between atoms: C_3  and  O_4
REMARK    4  A    between atoms: C_6  and  O_7
REMARK    5  A    between atoms: C_9  and  C_10
REMARK    6  A    between atoms: C_19  and  O_20
REMARK    7  A    between atoms: C_21  and  C_22
REMARK                            x       y       z     vdW  Elec       q    Type
REMARK                         _______ _______ _______ _____ _____    ______ ____
ROOT
ATOM      1  C   UNL     1       5.970  13.488  25.360  0.00  0.00    +0.000 C 
ATOM      2  C   UNL     1       6.757  14.415  24.382  0.00  0.00    +0.000 C 
ATOM      3  C   UNL     1       7.513  15.424  25.314  0.00  0.00    +0.000 C 
ATOM      4  C   UNL     1       8.694  16.209  24.714  0.00  0.00    +0.000 C 
ATOM      5  C   UNL     1       9.625  15.360  23.819  0.00  0.00    +0.000 C 
ATOM      6  C   UNL     1       8.807  14.603  22.729  0.00  0.00    +0.000 C 
ATOM      7  C   UNL     1       8.142  15.725  21.876  0.00  0.00    +0.000 C 
ATOM      8  C   UNL     1       9.666  13.798  21.703  0.00  0.00    +0.000 C 
ATOM      9  C   UNL     1       9.580  12.459  21.519  0.00  0.00    +0.000 C 
ATOM     10  C   UNL     1       8.609  11.609  22.310  0.00  0.00    +0.000 C 
ATOM     11  C   UNL     1       7.405  12.396  22.844  0.00  0.00    +0.000 C 
ATOM     12  C   UNL     1       7.863  13.646  23.588  0.00  0.00    +0.000 C 
ATOM     13  C   UNL     1      10.398  11.710  20.451  0.00  0.00    +0.000 C 
ATOM     14  O   UNL     1       9.548  10.734  19.792  0.00  0.00    +0.000 OA
ATOM     15  C   UNL     1       9.219  11.217  18.480  0.00  0.00    +0.000 C 
ATOM     16  C   UNL     1       9.645  12.677  18.462  0.00  0.00    +0.000 C 
ATOM     17  C   UNL     1      10.922  12.607  19.313  0.00  0.00    +0.000 C 
ATOM     18  C   UNL     1      12.086  11.951  18.534  0.00  0.00    +0.000 C 
ATOM     19  C   UNL     1      11.453  13.937  19.830  0.00  0.00    +0.000 C 
ATOM     20  C   UNL     1      10.498  14.654  20.759  0.00  0.00    +0.000 C 
ENDROOT
BRANCH   4  21
ATOM     21  O   UNL     1       9.469  16.801  25.766  0.00  0.00    +0.000 OA
ATOM     22  H   UNL     1       8.958  16.747  26.590  0.00  0.00    +0.000 HD
ENDBRANCH   4  21
BRANCH  16  23
ATOM     23  O   UNL     1       9.828  13.200  17.162  0.00  0.00    +0.000 OA
ATOM     24  H   UNL     1       9.880  12.439  16.555  0.00  0.00    +0.000 HD
ENDBRANCH  16  23
BRANCH   2  25
ATOM     25  C   UNL     1       5.643  14.972  23.454  0.00  0.00    +0.000 C 
BRANCH  25  26
ATOM     26  O   UNL     1       4.485  14.153  23.455  0.00  0.00    +0.000 OA
ATOM     27  H   UNL     1       3.749  14.708  23.136  0.00  0.00    +0.000 HD
ENDBRANCH  25  26
ENDBRANCH   2  25
TORSDOF 4
ENDMDL
MODEL 5
REMARK VINA RESULT:      -5.7      8.888     11.403
REMARK  Name = 
REMARK  7 active torsions:
REMARK  status: ('A' for Active; 'I' for Inactive)
REMARK    1  A    between atoms: C_1  and  C_2
REMARK    2  A    between atoms: C_2  and  C_3
REMARK    3  A    between atoms: C_3  and  O_4
REMARK    4  A    between atoms: C_6  and  O_7
REMARK    5  A    between atoms: C_9  and  C_10
REMARK    6  A    between atoms: C_19  and  O_20
REMARK    7  A    between atoms: C_21  and  C_22
REMARK                            x       y       z     vdW  Elec       q    Type
REMARK                         _______ _______ _______ _____ _____    ______ ____
ROOT
ATOM      1  C   UNL     1       7.736  12.291  25.739  0.00  0.00    +0.000 C 
ATOM      2  C   UNL     1       7.604  13.383  24.633  0.00  0.00    +0.000 C 
ATOM      3  C   UNL     1       8.122  14.700  25.310  0.00  0.00    +0.000 C 
ATOM      4  C   UNL     1       8.514  15.873  24.393  0.00  0.00    +0.000 C 
ATOM      5  C   UNL     1       9.315  15.453  23.140  0.00  0.00    +0.000 C 
ATOM      6  C   UNL     1       8.575  14.321  22.363  0.00  0.00    +0.000 C 
ATOM      7  C   UNL     1       7.219  14.953  21.929  0.00  0.00    +0.000 C 
ATOM      8  C   UNL     1       9.248  13.896  21.020  0.00  0.00    +0.000 C 
ATOM      9  C   UNL     1       9.701  12.648  20.753  0.00  0.00    +0.000 C 
ATOM     10  C   UNL     1       9.581  11.526  21.762  0.00  0.00    +0.000 C 
ATOM     11  C   UNL     1       8.450  11.740  22.777  0.00  0.00    +0.000 C 
ATOM     12  C   UNL     1       8.550  13.121  23.415  0.00  0.00    +0.000 C 
ATOM     13  C   UNL     1      10.301  12.252  19.392  0.00  0.00    +0.000 C 
ATOM     14  O   UNL     1       9.793  10.948  19.005  0.00  0.00    +0.000 OA
ATOM     15  C   UNL     1       8.821  11.120  17.960  0.00  0.00    +0.000 C 
ATOM     16  C   UNL     1       8.517  12.610  17.926  0.00  0.00    +0.000 C 
ATOM     17  C   UNL     1       9.907  13.187  18.232  0.00  0.00    +0.000 C 
ATOM     18  C   UNL     1      10.855  13.053  17.018  0.00  0.00    +0.000 C 
ATOM     19  C   UNL     1       9.945  14.654  18.640  0.00  0.00    +0.000 C 
ATOM     20  C   UNL     1       9.197  14.948  19.921  0.00  0.00    +0.000 C 
ENDROOT
BRANCH   4  21
ATOM     21  O   UNL     1       9.277  16.835  25.134  0.00  0.00    +0.000 OA
ATOM     22  H   UNL     1       8.865  17.707  25.020  0.00  0.00    +0.000 HD
ENDBRANCH   4  21
BRANCH  16  23
ATOM     23  O   UNL     1       7.950  13.046  16.708  0.00  0.00    +0.000 OA
ATOM     24  H   UNL     1       7.108  13.484  16.928  0.00  0.00    +0.000 HD
ENDBRANCH  16  23
BRANCH   2  25
ATOM     25  C   UNL     1       6.103  13.306  24.242  0.00  0.00    +0.000 C 
BRANCH  25  26
ATOM     26  O   UNL     1       5.511  12.075  24.626  0.00  0.00    +0.000 OA
ATOM     27  H   UNL     1       5.241  11.626  23.804  0.00  0.00    +0.000 HD
ENDBRANCH  25  26
ENDBRANCH   2  25
TORSDOF 4
ENDMDL
MODEL 6
REMARK VINA RESULT:      -5.6      9.600     12.331
REMARK  Name = 
REMARK  7 active torsions:
REMARK  status: ('A' for Active; 'I' for Inactive)
REMARK    1  A    between atoms: C_1  and  C_2
REMARK    2  A    between atoms: C_2  and  C_3
REMARK    3  A    between atoms: C_3  and  O_4
REMARK    4  A    between atoms: C_6  and  O_7
REMARK    5  A    between atoms: C_9  and  C_10
REMARK    6  A    between atoms: C_19  and  O_20
REMARK    7  A    between atoms: C_21  and  C_22
REMARK                            x       y       z     vdW  Elec       q    Type
REMARK                         _______ _______ _______ _____ _____    ______ ____
ROOT
ATOM      1  C   UNL     1      -7.351  14.132  24.125  0.00  0.00    +0.000 C 
ATOM      2  C   UNL     1      -6.825  13.687  22.726  0.00  0.00    +0.000 C 
ATOM      3  C   UNL     1      -7.320  14.802  21.741  0.00  0.00    +0.000 C 
ATOM      4  C   UNL     1      -6.641  14.899  20.364  0.00  0.00    +0.000 C 
ATOM      5  C   UNL     1      -5.104  14.736  20.406  0.00  0.00    +0.000 C 
ATOM      6  C   UNL     1      -4.707  13.435  21.169  0.00  0.00    +0.000 C 
ATOM      7  C   UNL     1      -5.333  12.275  20.338  0.00  0.00    +0.000 C 
ATOM      8  C   UNL     1      -3.178  13.120  21.178  0.00  0.00    +0.000 C 
ATOM      9  C   UNL     1      -2.425  13.020  22.299  0.00  0.00    +0.000 C 
ATOM     10  C   UNL     1      -3.023  13.202  23.678  0.00  0.00    +0.000 C 
ATOM     11  C   UNL     1      -4.530  12.920  23.729  0.00  0.00    +0.000 C 
ATOM     12  C   UNL     1      -5.263  13.697  22.641  0.00  0.00    +0.000 C 
ATOM     13  C   UNL     1      -0.932  12.642  22.270  0.00  0.00    +0.000 C 
ATOM     14  O   UNL     1      -0.654  11.699  23.338  0.00  0.00    +0.000 OA
ATOM     15  C   UNL     1      -0.480  10.391  22.768  0.00  0.00    +0.000 C 
ATOM     16  C   UNL     1      -0.966  10.504  21.332  0.00  0.00    +0.000 C 
ATOM     17  C   UNL     1      -0.487  11.921  20.983  0.00  0.00    +0.000 C 
ATOM     18  C   UNL     1       1.044  11.968  20.780  0.00  0.00    +0.000 C 
ATOM     19  C   UNL     1      -1.101  12.544  19.736  0.00  0.00    +0.000 C 
ATOM     20  C   UNL     1      -2.599  12.733  19.824  0.00  0.00    +0.000 C 
ENDROOT
BRANCH   4  21
ATOM     21  O   UNL     1      -6.959  16.156  19.751  0.00  0.00    +0.000 OA
ATOM     22  H   UNL     1      -6.528  16.863  20.259  0.00  0.00    +0.000 HD
ENDBRANCH   4  21
BRANCH  16  23
ATOM     23  O   UNL     1      -0.471   9.487  20.484  0.00  0.00    +0.000 OA
ATOM     24  H   UNL     1      -1.179   8.824  20.393  0.00  0.00    +0.000 HD
ENDBRANCH  16  23
BRANCH   2  25
ATOM     25  C   UNL     1      -7.415  12.259  22.567  0.00  0.00    +0.000 C 
BRANCH  25  26
ATOM     26  O   UNL     1      -7.916  11.747  23.791  0.00  0.00    +0.000 OA
ATOM     27  H   UNL     1      -7.440  12.211  24.505  0.00  0.00    +0.000 HD
ENDBRANCH  25  26
ENDBRANCH   2  25
TORSDOF 4
ENDMDL
MODEL 7
REMARK VINA RESULT:      -5.6     10.058     12.046
REMARK  Name = 
REMARK  7 active torsions:
REMARK  status: ('A' for Active; 'I' for Inactive)
REMARK    1  A    between atoms: C_1  and  C_2
REMARK    2  A    between atoms: C_2  and  C_3
REMARK    3  A    between atoms: C_3  and  O_4
REMARK    4  A    between atoms: C_6  and  O_7
REMARK    5  A    between atoms: C_9  and  C_10
REMARK    6  A    between atoms: C_19  and  O_20
REMARK    7  A    between atoms: C_21  and  C_22
REMARK                            x       y       z     vdW  Elec       q    Type
REMARK                         _______ _______ _______ _____ _____    ______ ____
ROOT
ATOM      1  C   UNL     1       6.994  11.862  25.106  0.00  0.00    +0.000 C 
ATOM      2  C   UNL     1       7.289  13.235  24.428  0.00  0.00    +0.000 C 
ATOM      3  C   UNL     1       7.798  14.153  25.594  0.00  0.00    +0.000 C 
ATOM      4  C   UNL     1       8.560  15.436  25.218  0.00  0.00    +0.000 C 
ATOM      5  C   UNL     1       9.582  15.250  24.073  0.00  0.00    +0.000 C 
ATOM      6  C   UNL     1       8.910  14.580  22.835  0.00  0.00    +0.000 C 
ATOM      7  C   UNL     1       7.802  15.581  22.389  0.00  0.00    +0.000 C 
ATOM      8  C   UNL     1       9.831  14.443  21.582  0.00  0.00    +0.000 C 
ATOM      9  C   UNL     1      10.162  13.264  21.002  0.00  0.00    +0.000 C 
ATOM     10  C   UNL     1       9.644  11.944  21.532  0.00  0.00    +0.000 C 
ATOM     11  C   UNL     1       8.337  12.078  22.325  0.00  0.00    +0.000 C 
ATOM     12  C   UNL     1       8.462  13.155  23.397  0.00  0.00    +0.000 C 
ATOM     13  C   UNL     1      11.020  13.174  19.727  0.00  0.00    +0.000 C 
ATOM     14  O   UNL     1      10.452  12.180  18.835  0.00  0.00    +0.000 OA
ATOM     15  C   UNL     1       9.801  12.853  17.745  0.00  0.00    +0.000 C 
ATOM     16  C   UNL     1       9.721  14.314  18.157  0.00  0.00    +0.000 C 
ATOM     17  C   UNL     1      11.057  14.472  18.897  0.00  0.00    +0.000 C 
ATOM     18  C   UNL     1      12.249  14.509  17.913  0.00  0.00    +0.000 C 
ATOM     19  C   UNL     1      11.192  15.709  19.774  0.00  0.00    +0.000 C 
ATOM     20  C   UNL     1      10.197  15.760  20.912  0.00  0.00    +0.000 C 
ENDROOT
BRANCH   4  21
ATOM     21  O   UNL     1       9.240  15.954  26.370  0.00  0.00    +0.000 OA
ATOM     22  H   UNL     1      10.196  15.915  26.205  0.00  0.00    +0.000 HD
ENDBRANCH   4  21
BRANCH  16  23
ATOM     23  O   UNL     1       9.537  15.201  17.071  0.00  0.00    +0.000 OA
ATOM     24  H   UNL     1       9.356  16.080  17.451  0.00  0.00    +0.000 HD
ENDBRANCH  16  23
BRANCH   2  25
ATOM     25  C   UNL     1       5.935  13.593  23.756  0.00  0.00    +0.000 C 
BRANCH  25  26
ATOM     26  O   UNL     1       4.926  13.889  24.707  0.00  0.00    +0.000 OA
ATOM     27  H   UNL     1       5.308  13.708  25.587  0.00  0.00    +0.000 HD
ENDBRANCH  25  26
ENDBRANCH   2  25
TORSDOF 4
ENDMDL
MODEL 8
REMARK VINA RESULT:      -5.6      9.000     12.499
REMARK  Name = 
REMARK  7 active torsions:
REMARK  status: ('A' for Active; 'I' for Inactive)
REMARK    1  A    between atoms: C_1  and  C_2
REMARK    2  A    between atoms: C_2  and  C_3
REMARK    3  A    between atoms: C_3  and  O_4
REMARK    4  A    between atoms: C_6  and  O_7
REMARK    5  A    between atoms: C_9  and  C_10
REMARK    6  A    between atoms: C_19  and  O_20
REMARK    7  A    between atoms: C_21  and  C_22
REMARK                            x       y       z     vdW  Elec       q    Type
REMARK                         _______ _______ _______ _____ _____    ______ ____
ROOT
ATOM      1  C   UNL     1       0.688   9.637  20.829  0.00  0.00    +0.000 C 
ATOM      2  C   UNL     1       0.106  10.978  20.285  0.00  0.00    +0.000 C 
ATOM      3  C   UNL     1      -0.380  10.640  18.832  0.00  0.00    +0.000 C 
ATOM      4  C   UNL     1      -1.368  11.612  18.161  0.00  0.00    +0.000 C 
ATOM      5  C   UNL     1      -2.489  12.118  19.098  0.00  0.00    +0.000 C 
ATOM      6  C   UNL     1      -1.889  12.703  20.413  0.00  0.00    +0.000 C 
ATOM      7  C   UNL     1      -1.010  13.905  19.952  0.00  0.00    +0.000 C 
ATOM      8  C   UNL     1      -2.932  13.340  21.384  0.00  0.00    +0.000 C 
ATOM      9  C   UNL     1      -3.155  12.917  22.651  0.00  0.00    +0.000 C 
ATOM     10  C   UNL     1      -2.381  11.762  23.251  0.00  0.00    +0.000 C 
ATOM     11  C   UNL     1      -1.018  11.532  22.585  0.00  0.00    +0.000 C 
ATOM     12  C   UNL     1      -1.164  11.443  21.070  0.00  0.00    +0.000 C 
ATOM     13  C   UNL     1      -4.146  13.613  23.601  0.00  0.00    +0.000 C 
ATOM     14  O   UNL     1      -3.555  13.713  24.923  0.00  0.00    +0.000 OA
ATOM     15  C   UNL     1      -3.158  15.076  25.151  0.00  0.00    +0.000 C 
ATOM     16  C   UNL     1      -3.245  15.759  23.795  0.00  0.00    +0.000 C 
ATOM     17  C   UNL     1      -4.483  15.065  23.210  0.00  0.00    +0.000 C 
ATOM     18  C   UNL     1      -5.783  15.569  23.877  0.00  0.00    +0.000 C 
ATOM     19  C   UNL     1      -4.688  15.221  21.709  0.00  0.00    +0.000 C 
ATOM     20  C   UNL     1      -3.574  14.624  20.877  0.00  0.00    +0.000 C 
ENDROOT
BRANCH   4  21
ATOM     21  O   UNL     1      -1.964  10.986  17.017  0.00  0.00    +0.000 OA
ATOM     22  H   UNL     1      -1.823  11.560  16.245  0.00  0.00    +0.000 HD
ENDBRANCH   4  21
BRANCH  16  23
ATOM     23  O   UNL     1      -3.337  17.167  23.874  0.00  0.00    +0.000 OA
ATOM     24  H   UNL     1      -3.825  17.374  24.691  0.00  0.00    +0.000 HD
ENDBRANCH  16  23
BRANCH   2  25
ATOM     25  C   UNL     1       1.293  11.966  20.445  0.00  0.00    +0.000 C 
BRANCH  25  26
ATOM     26  O   UNL     1       1.975  12.189  19.221  0.00  0.00    +0.000 OA
ATOM     27  H   UNL     1       2.293  11.318  18.915  0.00  0.00    +0.000 HD
ENDBRANCH  25  26
ENDBRANCH   2  25
TORSDOF 4
ENDMDL
MODEL 9
REMARK VINA RESULT:      -5.5      9.413     12.725
REMARK  Name = 
REMARK  7 active torsions:
REMARK  status: ('A' for Active; 'I' for Inactive)
REMARK    1  A    between atoms: C_1  and  C_2
REMARK    2  A    between atoms: C_2  and  C_3
REMARK    3  A    between atoms: C_3  and  O_4
REMARK    4  A    between atoms: C_6  and  O_7
REMARK    5  A    between atoms: C_9  and  C_10
REMARK    6  A    between atoms: C_19  and  O_20
REMARK    7  A    between atoms: C_21  and  C_22
REMARK                            x       y       z     vdW  Elec       q    Type
REMARK                         _______ _______ _______ _____ _____    ______ ____
ROOT
ATOM      1  C   UNL     1       9.695  10.494  19.005  0.00  0.00    +0.000 C 
ATOM      2  C   UNL     1       9.973  11.962  19.455  0.00  0.00    +0.000 C 
ATOM      3  C   UNL     1       9.640  12.834  18.195  0.00  0.00    +0.000 C 
ATOM      4  C   UNL     1       9.410  14.341  18.405  0.00  0.00    +0.000 C 
ATOM      5  C   UNL     1       8.556  14.681  19.648  0.00  0.00    +0.000 C 
ATOM      6  C   UNL     1       9.132  13.991  20.921  0.00  0.00    +0.000 C 
ATOM      7  C   UNL     1      10.561  14.589  21.090  0.00  0.00    +0.000 C 
ATOM      8  C   UNL     1       8.404  14.355  22.254  0.00  0.00    +0.000 C 
ATOM      9  C   UNL     1       7.784  13.457  23.056  0.00  0.00    +0.000 C 
ATOM     10  C   UNL     1       7.753  11.981  22.722  0.00  0.00    +0.000 C 
ATOM     11  C   UNL     1       8.905  11.539  21.810  0.00  0.00    +0.000 C 
ATOM     12  C   UNL     1       8.997  12.438  20.581  0.00  0.00    +0.000 C 
ATOM     13  C   UNL     1       7.133  13.846  24.396  0.00  0.00    +0.000 C 
ATOM     14  O   UNL     1       7.457  12.845  25.396  0.00  0.00    +0.000 OA
ATOM     15  C   UNL     1       8.441  13.387  26.293  0.00  0.00    +0.000 C 
ATOM     16  C   UNL     1       8.945  14.657  25.627  0.00  0.00    +0.000 C 
ATOM     17  C   UNL     1       7.647  15.173  24.987  0.00  0.00    +0.000 C 
ATOM     18  C   UNL     1       6.687  15.758  26.047  0.00  0.00    +0.000 C 
ATOM     19  C   UNL     1       7.811  16.249  23.922  0.00  0.00    +0.000 C 
ATOM     20  C   UNL     1       8.596  15.794  22.712  0.00  0.00    +0.000 C 
ENDROOT
BRANCH   4  21
ATOM     21  O   UNL     1       8.787  14.905  17.243  0.00  0.00    +0.000 OA
ATOM     22  H   UNL     1       8.041  14.336  16.989  0.00  0.00    +0.000 HD
ENDBRANCH   4  21
BRANCH  16  23
ATOM     23  O   UNL     1       9.564  15.560  26.521  0.00  0.00    +0.000 OA
ATOM     24  H   UNL     1      10.506  15.600  26.277  0.00  0.00    +0.000 HD
ENDBRANCH  16  23
BRANCH   2  25
ATOM     25  C   UNL     1      11.448  11.907  19.937  0.00  0.00    +0.000 C 
BRANCH  25  26
ATOM     26  O   UNL     1      12.333  11.498  18.907  0.00  0.00    +0.000 OA
ATOM     27  H   UNL     1      11.778  11.211  18.158  0.00  0.00    +0.000 HD
ENDBRANCH  25  26
ENDBRANCH   2  25
TORSDOF 4
ENDMDL
