MODEL 1
REMARK VINA RESULT:      -7.6      0.000      0.000
REMARK  Name = 
REMARK  7 active torsions:
REMARK  status: ('A' for Active; 'I' for Inactive)
REMARK    1  A    between atoms: C_1  and  O_2
REMARK    2  A    between atoms: O_2  and  C_3
REMARK    3  A    between atoms: C_5  and  O_6
REMARK    4  A    between atoms: O_6  and  C_7
REMARK    5  A    between atoms: C_8  and  C_9
REMARK    6  A    between atoms: C_14  and  N_15
REMARK    7  A    between atoms: C_25  and  C_26
REMARK                            x       y       z     vdW  Elec       q    Type
REMARK                         _______ _______ _______ _____ _____    ______ ____
ROOT
ATOM      1  C   UNL     1       1.914   7.688  19.670  0.00  0.00    +0.000 A 
ATOM      2  C   UNL     1       1.913   8.689  18.725  0.00  0.00    +0.000 A 
ATOM      3  N   UNL     1       1.164   9.709  19.257  0.00  0.00    +0.000 N 
ATOM      4  C   UNL     1       0.849  10.944  18.716  0.00  0.00    +0.000 A 
ATOM      5  C   UNL     1       0.089  11.791  19.428  0.00  0.00    +0.000 A 
ATOM      6  C   UNL     1      -0.409  11.407  20.759  0.00  0.00    +0.000 A 
ATOM      7  C   UNL     1      -0.061  10.193  21.252  0.00  0.00    +0.000 A 
ATOM      8  C   UNL     1       0.747   9.295  20.503  0.00  0.00    +0.000 A 
ATOM      9  N   UNL     1       1.190   8.084  20.780  0.00  0.00    +0.000 NA
ENDROOT
BRANCH   1  13
ATOM     10  C   UNL     1       3.595   3.743  19.585  0.00  0.00    +0.000 A 
ATOM     11  C   UNL     1       4.057   4.711  18.693  0.00  0.00    +0.000 A 
ATOM     12  C   UNL     1       3.561   6.019  18.689  0.00  0.00    +0.000 A 
ATOM     13  C   UNL     1       2.534   6.372  19.590  0.00  0.00    +0.000 A 
ATOM     14  C   UNL     1       2.045   5.372  20.467  0.00  0.00    +0.000 A 
ATOM     15  C   UNL     1       2.565   4.072  20.469  0.00  0.00    +0.000 A 
BRANCH  10  17
ATOM     16  C   UNL     1       3.654   1.622  18.549  0.00  0.00    +0.000 C 
ATOM     17  O   UNL     1       4.108   2.471  19.605  0.00  0.00    +0.000 OA
ENDBRANCH  10  17
BRANCH  12  18
ATOM     18  O   UNL     1       4.096   6.967  17.848  0.00  0.00    +0.000 OA
ATOM     19  C   UNL     1       4.806   6.502  16.700  0.00  0.00    +0.000 C 
ENDBRANCH  12  18
BRANCH  15  20
ATOM     20  C   UNL     1       2.055   3.120  21.411  0.00  0.00    +0.000 C 
ATOM     21  N   UNL     1       1.628   2.376  22.197  0.00  0.00    +0.000 NA
ENDBRANCH  15  20
ENDBRANCH   1  13
BRANCH   6  22
ATOM     22  N   UNL     1      -1.193  12.325  21.462  0.00  0.00    +0.000 N 
ATOM     23  C   UNL     1      -1.295  12.412  22.933  0.00  0.00    +0.000 C 
ATOM     24  C   UNL     1      -2.766  12.310  23.360  0.00  0.00    +0.000 C 
ATOM     25  O   UNL     1      -3.570  13.319  22.726  0.00  0.00    +0.000 OA
ATOM     26  C   UNL     1      -3.484  13.201  21.296  0.00  0.00    +0.000 C 
ATOM     27  C   UNL     1      -2.036  13.348  20.804  0.00  0.00    +0.000 C 
ENDBRANCH   6  22
TORSDOF 5
ENDMDL
MODEL 2
REMARK VINA RESULT:      -7.6      2.374      3.597
REMARK  Name = 
REMARK  7 active torsions:
REMARK  status: ('A' for Active; 'I' for Inactive)
REMARK    1  A    between atoms: C_1  and  O_2
REMARK    2  A    between atoms: O_2  and  C_3
REMARK    3  A    between atoms: C_5  and  O_6
REMARK    4  A    between atoms: O_6  and  C_7
REMARK    5  A    between atoms: C_8  and  C_9
REMARK    6  A    between atoms: C_14  and  N_15
REMARK    7  A    between atoms: C_25  and  C_26
REMARK                            x       y       z     vdW  Elec       q    Type
REMARK                         _______ _______ _______ _____ _____    ______ ____
ROOT
ATOM      1  C   UNL     1       2.529   7.045  18.951  0.00  0.00    +0.000 A 
ATOM      2  C   UNL     1       2.181   6.957  20.279  0.00  0.00    +0.000 A 
ATOM      3  N   UNL     1       1.483   8.106  20.562  0.00  0.00    +0.000 N 
ATOM      4  C   UNL     1       0.912   8.517  21.755  0.00  0.00    +0.000 A 
ATOM      5  C   UNL     1       0.273   9.696  21.796  0.00  0.00    +0.000 A 
ATOM      6  C   UNL     1       0.191  10.544  20.595  0.00  0.00    +0.000 A 
ATOM      7  C   UNL     1       0.754  10.091  19.447  0.00  0.00    +0.000 A 
ATOM      8  C   UNL     1       1.428   8.840  19.397  0.00  0.00    +0.000 A 
ATOM      9  N   UNL     1       2.043   8.221  18.409  0.00  0.00    +0.000 NA
ENDROOT
BRANCH   1  13
ATOM     10  C   UNL     1       4.993   4.410  16.629  0.00  0.00    +0.000 A 
ATOM     11  C   UNL     1       3.719   3.998  17.023  0.00  0.00    +0.000 A 
ATOM     12  C   UNL     1       2.864   4.822  17.762  0.00  0.00    +0.000 A 
ATOM     13  C   UNL     1       3.308   6.101  18.158  0.00  0.00    +0.000 A 
ATOM     14  C   UNL     1       4.617   6.497  17.785  0.00  0.00    +0.000 A 
ATOM     15  C   UNL     1       5.453   5.666  17.030  0.00  0.00    +0.000 A 
BRANCH  10  17
ATOM     16  C   UNL     1       5.809   3.890  14.476  0.00  0.00    +0.000 C 
ATOM     17  O   UNL     1       5.814   3.609  15.877  0.00  0.00    +0.000 OA
ENDBRANCH  10  17
BRANCH  12  18
ATOM     18  O   UNL     1       1.586   4.412  18.065  0.00  0.00    +0.000 OA
ATOM     19  C   UNL     1       1.382   3.019  18.299  0.00  0.00    +0.000 C 
ENDBRANCH  12  18
BRANCH  15  20
ATOM     20  C   UNL     1       6.750   6.143  16.650  0.00  0.00    +0.000 C 
ATOM     21  N   UNL     1       7.790   6.535  16.306  0.00  0.00    +0.000 NA
ENDBRANCH  15  20
ENDBRANCH   1  13
BRANCH   6  22
ATOM     22  N   UNL     1      -0.488  11.761  20.689  0.00  0.00    +0.000 N 
ATOM     23  C   UNL     1      -0.568  12.603  21.899  0.00  0.00    +0.000 C 
ATOM     24  C   UNL     1      -2.038  12.875  22.249  0.00  0.00    +0.000 C 
ATOM     25  O   UNL     1      -2.738  13.481  21.150  0.00  0.00    +0.000 OA
ATOM     26  C   UNL     1      -2.677  12.634  19.990  0.00  0.00    +0.000 C 
ATOM     27  C   UNL     1      -1.226  12.371  19.560  0.00  0.00    +0.000 C 
ENDBRANCH   6  22
TORSDOF 5
ENDMDL
MODEL 3
REMARK VINA RESULT:      -7.5      2.501      3.857
REMARK  Name = 
REMARK  7 active torsions:
REMARK  status: ('A' for Active; 'I' for Inactive)
REMARK    1  A    between atoms: C_1  and  O_2
REMARK    2  A    between atoms: O_2  and  C_3
REMARK    3  A    between atoms: C_5  and  O_6
REMARK    4  A    between atoms: O_6  and  C_7
REMARK    5  A    between atoms: C_8  and  C_9
REMARK    6  A    between atoms: C_14  and  N_15
REMARK    7  A    between atoms: C_25  and  C_26
REMARK                            x       y       z     vdW  Elec       q    Type
REMARK                         _______ _______ _______ _____ _____    ______ ____
ROOT
ATOM      1  C   UNL     1       2.496   7.084  18.873  0.00  0.00    +0.000 A 
ATOM      2  C   UNL     1       2.123   7.001  20.195  0.00  0.00    +0.000 A 
ATOM      3  N   UNL     1       1.442   8.162  20.468  0.00  0.00    +0.000 N 
ATOM      4  C   UNL     1       0.857   8.582  21.650  0.00  0.00    +0.000 A 
ATOM      5  C   UNL     1       0.239   9.773  21.682  0.00  0.00    +0.000 A 
ATOM      6  C   UNL     1       0.194  10.623  20.481  0.00  0.00    +0.000 A 
ATOM      7  C   UNL     1       0.768  10.161  19.343  0.00  0.00    +0.000 A 
ATOM      8  C   UNL     1       1.420   8.899  19.303  0.00  0.00    +0.000 A 
ATOM      9  N   UNL     1       2.041   8.270  18.324  0.00  0.00    +0.000 NA
ENDROOT
BRANCH   1  13
ATOM     10  C   UNL     1       4.951   4.408  16.589  0.00  0.00    +0.000 A 
ATOM     11  C   UNL     1       3.668   4.014  16.970  0.00  0.00    +0.000 A 
ATOM     12  C   UNL     1       2.815   4.852  17.697  0.00  0.00    +0.000 A 
ATOM     13  C   UNL     1       3.272   6.127  18.093  0.00  0.00    +0.000 A 
ATOM     14  C   UNL     1       4.590   6.504  17.733  0.00  0.00    +0.000 A 
ATOM     15  C   UNL     1       5.423   5.659  16.991  0.00  0.00    +0.000 A 
BRANCH  10  17
ATOM     16  C   UNL     1       5.790   3.874  14.449  0.00  0.00    +0.000 C 
ATOM     17  O   UNL     1       5.770   3.593  15.850  0.00  0.00    +0.000 OA
ENDBRANCH  10  17
BRANCH  12  18
ATOM     18  O   UNL     1       1.528   4.461  17.986  0.00  0.00    +0.000 OA
ATOM     19  C   UNL     1       1.357   3.210  18.654  0.00  0.00    +0.000 C 
ENDBRANCH  12  18
BRANCH  15  20
ATOM     20  C   UNL     1       6.730   6.117  16.625  0.00  0.00    +0.000 C 
ATOM     21  N   UNL     1       7.775   6.519  16.308  0.00  0.00    +0.000 NA
ENDBRANCH  15  20
ENDBRANCH   1  13
BRANCH   6  22
ATOM     22  N   UNL     1      -0.464  11.852  20.565  0.00  0.00    +0.000 N 
ATOM     23  C   UNL     1      -0.957  12.637  19.414  0.00  0.00    +0.000 C 
ATOM     24  C   UNL     1      -0.370  14.055  19.462  0.00  0.00    +0.000 C 
ATOM     25  O   UNL     1      -0.675  14.711  20.704  0.00  0.00    +0.000 OA
ATOM     26  C   UNL     1      -0.162  13.950  21.810  0.00  0.00    +0.000 C 
ATOM     27  C   UNL     1      -0.757  12.534  21.845  0.00  0.00    +0.000 C 
ENDBRANCH   6  22
TORSDOF 5
ENDMDL
MODEL 4
REMARK VINA RESULT:      -7.4      2.336      3.676
REMARK  Name = 
REMARK  7 active torsions:
REMARK  status: ('A' for Active; 'I' for Inactive)
REMARK    1  A    between atoms: C_1  and  O_2
REMARK    2  A    between atoms: O_2  and  C_3
REMARK    3  A    between atoms: C_5  and  O_6
REMARK    4  A    between atoms: O_6  and  C_7
REMARK    5  A    between atoms: C_8  and  C_9
REMARK    6  A    between atoms: C_14  and  N_15
REMARK    7  A    between atoms: C_25  and  C_26
REMARK                            x       y       z     vdW  Elec       q    Type
REMARK                         _______ _______ _______ _____ _____    ______ ____
ROOT
ATOM      1  C   UNL     1       2.366   7.551  18.695  0.00  0.00    +0.000 A 
ATOM      2  C   UNL     1       1.962   7.632  20.008  0.00  0.00    +0.000 A 
ATOM      3  N   UNL     1       1.182   8.760  20.094  0.00  0.00    +0.000 N 
ATOM      4  C   UNL     1       0.531   9.299  21.190  0.00  0.00    +0.000 A 
ATOM      5  C   UNL     1      -0.181  10.426  21.034  0.00  0.00    +0.000 A 
ATOM      6  C   UNL     1      -0.259  11.083  19.719  0.00  0.00    +0.000 A 
ATOM      7  C   UNL     1       0.384  10.508  18.672  0.00  0.00    +0.000 A 
ATOM      8  C   UNL     1       1.136   9.313  18.832  0.00  0.00    +0.000 A 
ATOM      9  N   UNL     1       1.834   8.601  17.969  0.00  0.00    +0.000 NA
ENDROOT
BRANCH   1  13
ATOM     10  C   UNL     1       5.098   4.778  16.893  0.00  0.00    +0.000 A 
ATOM     11  C   UNL     1       3.806   4.363  17.221  0.00  0.00    +0.000 A 
ATOM     12  C   UNL     1       2.867   5.228  17.791  0.00  0.00    +0.000 A 
ATOM     13  C   UNL     1       3.238   6.558  18.079  0.00  0.00    +0.000 A 
ATOM     14  C   UNL     1       4.563   6.961  17.777  0.00  0.00    +0.000 A 
ATOM     15  C   UNL     1       5.485   6.086  17.191  0.00  0.00    +0.000 A 
BRANCH  10  17
ATOM     16  C   UNL     1       5.935   3.874  14.879  0.00  0.00    +0.000 C 
ATOM     17  O   UNL     1       6.004   3.933  16.305  0.00  0.00    +0.000 OA
ENDBRANCH  10  17
BRANCH  12  18
ATOM     18  O   UNL     1       1.579   4.805  18.027  0.00  0.00    +0.000 OA
ATOM     19  C   UNL     1       1.393   3.436  18.387  0.00  0.00    +0.000 C 
ENDBRANCH  12  18
BRANCH  15  20
ATOM     20  C   UNL     1       6.796   6.568  16.873  0.00  0.00    +0.000 C 
ATOM     21  N   UNL     1       7.855   6.950  16.577  0.00  0.00    +0.000 NA
ENDBRANCH  15  20
ENDBRANCH   1  13
BRANCH   6  22
ATOM     22  N   UNL     1      -1.016  12.252  19.608  0.00  0.00    +0.000 N 
ATOM     23  C   UNL     1      -0.478  13.589  19.284  0.00  0.00    +0.000 C 
ATOM     24  C   UNL     1      -0.888  14.593  20.372  0.00  0.00    +0.000 C 
ATOM     25  O   UNL     1      -2.316  14.635  20.539  0.00  0.00    +0.000 OA
ATOM     26  C   UNL     1      -2.817  13.332  20.884  0.00  0.00    +0.000 C 
ATOM     27  C   UNL     1      -2.482  12.295  19.802  0.00  0.00    +0.000 C 
ENDBRANCH   6  22
TORSDOF 5
ENDMDL
MODEL 5
REMARK VINA RESULT:      -7.3      2.558      9.215
REMARK  Name = 
REMARK  7 active torsions:
REMARK  status: ('A' for Active; 'I' for Inactive)
REMARK    1  A    between atoms: C_1  and  O_2
REMARK    2  A    between atoms: O_2  and  C_3
REMARK    3  A    between atoms: C_5  and  O_6
REMARK    4  A    between atoms: O_6  and  C_7
REMARK    5  A    between atoms: C_8  and  C_9
REMARK    6  A    between atoms: C_14  and  N_15
REMARK    7  A    between atoms: C_25  and  C_26
REMARK                            x       y       z     vdW  Elec       q    Type
REMARK                         _______ _______ _______ _____ _____    ______ ____
ROOT
ATOM      1  C   UNL     1       1.081   9.210  19.164  0.00  0.00    +0.000 A 
ATOM      2  C   UNL     1       1.319   8.055  19.874  0.00  0.00    +0.000 A 
ATOM      3  N   UNL     1       2.354   7.423  19.231  0.00  0.00    +0.000 N 
ATOM      4  C   UNL     1       2.979   6.225  19.534  0.00  0.00    +0.000 A 
ATOM      5  C   UNL     1       3.982   5.799  18.750  0.00  0.00    +0.000 A 
ATOM      6  C   UNL     1       4.403   6.588  17.581  0.00  0.00    +0.000 A 
ATOM      7  C   UNL     1       3.771   7.762  17.334  0.00  0.00    +0.000 A 
ATOM      8  C   UNL     1       2.711   8.220  18.164  0.00  0.00    +0.000 A 
ATOM      9  N   UNL     1       1.965   9.306  18.104  0.00  0.00    +0.000 NA
ENDROOT
BRANCH   1  13
ATOM     10  C   UNL     1      -1.808  12.253  20.054  0.00  0.00    +0.000 A 
ATOM     11  C   UNL     1      -1.908  11.531  18.864  0.00  0.00    +0.000 A 
ATOM     12  C   UNL     1      -1.008  10.514  18.531  0.00  0.00    +0.000 A 
ATOM     13  C   UNL     1       0.062  10.224  19.404  0.00  0.00    +0.000 A 
ATOM     14  C   UNL     1       0.177  10.987  20.593  0.00  0.00    +0.000 A 
ATOM     15  C   UNL     1      -0.744  11.991  20.918  0.00  0.00    +0.000 A 
BRANCH  10  17
ATOM     16  C   UNL     1      -4.067  12.782  20.491  0.00  0.00    +0.000 C 
ATOM     17  O   UNL     1      -2.713  13.228  20.389  0.00  0.00    +0.000 OA
ENDBRANCH  10  17
BRANCH  12  18
ATOM     18  O   UNL     1      -1.184   9.770  17.387  0.00  0.00    +0.000 OA
ATOM     19  C   UNL     1      -2.315  10.078  16.572  0.00  0.00    +0.000 C 
ENDBRANCH  12  18
BRANCH  15  20
ATOM     20  C   UNL     1      -0.594  12.697  22.156  0.00  0.00    +0.000 C 
ATOM     21  N   UNL     1      -0.500  13.295  23.150  0.00  0.00    +0.000 NA
ENDBRANCH  15  20
ENDBRANCH   1  13
BRANCH   6  22
ATOM     22  N   UNL     1       5.454   6.102  16.799  0.00  0.00    +0.000 N 
ATOM     23  C   UNL     1       5.307   5.449  15.483  0.00  0.00    +0.000 C 
ATOM     24  C   UNL     1       5.984   4.071  15.507  0.00  0.00    +0.000 C 
ATOM     25  O   UNL     1       7.368   4.170  15.884  0.00  0.00    +0.000 OA
ATOM     26  C   UNL     1       7.490   4.780  17.180  0.00  0.00    +0.000 C 
ATOM     27  C   UNL     1       6.875   6.187  17.201  0.00  0.00    +0.000 C 
ENDBRANCH   6  22
TORSDOF 5
ENDMDL
MODEL 6
REMARK VINA RESULT:      -7.3      0.640      1.216
REMARK  Name = 
REMARK  7 active torsions:
REMARK  status: ('A' for Active; 'I' for Inactive)
REMARK    1  A    between atoms: C_1  and  O_2
REMARK    2  A    between atoms: O_2  and  C_3
REMARK    3  A    between atoms: C_5  and  O_6
REMARK    4  A    between atoms: O_6  and  C_7
REMARK    5  A    between atoms: C_8  and  C_9
REMARK    6  A    between atoms: C_14  and  N_15
REMARK    7  A    between atoms: C_25  and  C_26
REMARK                            x       y       z     vdW  Elec       q    Type
REMARK                         _______ _______ _______ _____ _____    ______ ____
ROOT
ATOM      1  C   UNL     1       1.843   7.798  19.671  0.00  0.00    +0.000 A 
ATOM      2  C   UNL     1       1.843   8.794  18.722  0.00  0.00    +0.000 A 
ATOM      3  N   UNL     1       1.088   9.815  19.246  0.00  0.00    +0.000 N 
ATOM      4  C   UNL     1       0.770  11.046  18.698  0.00  0.00    +0.000 A 
ATOM      5  C   UNL     1       0.004  11.893  19.403  0.00  0.00    +0.000 A 
ATOM      6  C   UNL     1      -0.499  11.513  20.733  0.00  0.00    +0.000 A 
ATOM      7  C   UNL     1      -0.148  10.302  21.234  0.00  0.00    +0.000 A 
ATOM      8  C   UNL     1       0.667   9.404  20.492  0.00  0.00    +0.000 A 
ATOM      9  N   UNL     1       1.113   8.196  20.777  0.00  0.00    +0.000 NA
ENDROOT
BRANCH   1  13
ATOM     10  C   UNL     1       3.541   3.859  19.613  0.00  0.00    +0.000 A 
ATOM     11  C   UNL     1       3.996   4.822  18.712  0.00  0.00    +0.000 A 
ATOM     12  C   UNL     1       3.495   6.128  18.698  0.00  0.00    +0.000 A 
ATOM     13  C   UNL     1       2.469   6.484  19.600  0.00  0.00    +0.000 A 
ATOM     14  C   UNL     1       1.987   5.489  20.487  0.00  0.00    +0.000 A 
ATOM     15  C   UNL     1       2.513   4.191  20.498  0.00  0.00    +0.000 A 
BRANCH  10  17
ATOM     16  C   UNL     1       3.604   1.730  18.596  0.00  0.00    +0.000 C 
ATOM     17  O   UNL     1       4.060   2.590  19.642  0.00  0.00    +0.000 OA
ENDBRANCH  10  17
BRANCH  12  18
ATOM     18  O   UNL     1       4.023   7.072  17.848  0.00  0.00    +0.000 OA
ATOM     19  C   UNL     1       4.760   6.600  16.720  0.00  0.00    +0.000 C 
ENDBRANCH  12  18
BRANCH  15  20
ATOM     20  C   UNL     1       2.010   3.245  21.448  0.00  0.00    +0.000 C 
ATOM     21  N   UNL     1       1.636   2.461  22.222  0.00  0.00    +0.000 NA
ENDBRANCH  15  20
ENDBRANCH   1  13
BRANCH   6  22
ATOM     22  N   UNL     1      -1.290  12.431  21.428  0.00  0.00    +0.000 N 
ATOM     23  C   UNL     1      -2.276  13.344  20.816  0.00  0.00    +0.000 C 
ATOM     24  C   UNL     1      -1.964  14.793  21.217  0.00  0.00    +0.000 C 
ATOM     25  O   UNL     1      -1.931  14.949  22.646  0.00  0.00    +0.000 OA
ATOM     26  C   UNL     1      -0.944  14.076  23.222  0.00  0.00    +0.000 C 
ATOM     27  C   UNL     1      -1.237  12.604  22.897  0.00  0.00    +0.000 C 
ENDBRANCH   6  22
TORSDOF 5
ENDMDL
MODEL 7
REMARK VINA RESULT:      -7.3      2.132      9.180
REMARK  Name = 
REMARK  7 active torsions:
REMARK  status: ('A' for Active; 'I' for Inactive)
REMARK    1  A    between atoms: C_1  and  O_2
REMARK    2  A    between atoms: O_2  and  C_3
REMARK    3  A    between atoms: C_5  and  O_6
REMARK    4  A    between atoms: O_6  and  C_7
REMARK    5  A    between atoms: C_8  and  C_9
REMARK    6  A    between atoms: C_14  and  N_15
REMARK    7  A    between atoms: C_25  and  C_26
REMARK                            x       y       z     vdW  Elec       q    Type
REMARK                         _______ _______ _______ _____ _____    ______ ____
ROOT
ATOM      1  C   UNL     1      -0.076  11.221  21.330  0.00  0.00    +0.000 A 
ATOM      2  C   UNL     1       0.253  11.291  19.996  0.00  0.00    +0.000 A 
ATOM      3  N   UNL     1       0.871  10.101  19.697  0.00  0.00    +0.000 N 
ATOM      4  C   UNL     1       1.397   9.660  18.494  0.00  0.00    +0.000 A 
ATOM      5  C   UNL     1       1.962   8.444  18.439  0.00  0.00    +0.000 A 
ATOM      6  C   UNL     1       2.031   7.598  19.642  0.00  0.00    +0.000 A 
ATOM      7  C   UNL     1       1.489   8.068  20.793  0.00  0.00    +0.000 A 
ATOM      8  C   UNL     1       0.885   9.353  20.855  0.00  0.00    +0.000 A 
ATOM      9  N   UNL     1       0.315  10.001  21.852  0.00  0.00    +0.000 NA
ENDROOT
BRANCH   1  13
ATOM     10  C   UNL     1      -2.123  14.061  23.809  0.00  0.00    +0.000 A 
ATOM     11  C   UNL     1      -0.889  14.394  23.248  0.00  0.00    +0.000 A 
ATOM     12  C   UNL     1      -0.186  13.517  22.416  0.00  0.00    +0.000 A 
ATOM     13  C   UNL     1      -0.718  12.236  22.156  0.00  0.00    +0.000 A 
ATOM     14  C   UNL     1      -1.953  11.892  22.758  0.00  0.00    +0.000 A 
ATOM     15  C   UNL     1      -2.652  12.790  23.576  0.00  0.00    +0.000 A 
BRANCH  10  17
ATOM     16  C   UNL     1      -2.057  15.550  25.640  0.00  0.00    +0.000 C 
ATOM     17  O   UNL     1      -2.821  14.938  24.598  0.00  0.00    +0.000 OA
ENDBRANCH  10  17
BRANCH  12  18
ATOM     18  O   UNL     1       0.989  13.910  21.818  0.00  0.00    +0.000 OA
ATOM     19  C   UNL     1       1.278  15.308  21.793  0.00  0.00    +0.000 C 
ENDBRANCH  12  18
BRANCH  15  20
ATOM     20  C   UNL     1      -3.916  12.395  24.121  0.00  0.00    +0.000 C 
ATOM     21  N   UNL     1      -4.929  12.038  24.568  0.00  0.00    +0.000 NA
ENDBRANCH  15  20
ENDBRANCH   1  13
BRANCH   6  22
ATOM     22  N   UNL     1       2.627   6.339  19.532  0.00  0.00    +0.000 N 
ATOM     23  C   UNL     1       3.669   5.970  18.553  0.00  0.00    +0.000 C 
ATOM     24  C   UNL     1       3.216   4.744  17.746  0.00  0.00    +0.000 C 
ATOM     25  O   UNL     1       2.897   3.636  18.606  0.00  0.00    +0.000 OA
ATOM     26  C   UNL     1       1.861   4.004  19.531  0.00  0.00    +0.000 C 
ATOM     27  C   UNL     1       2.281   5.195  20.405  0.00  0.00    +0.000 C 
ENDBRANCH   6  22
TORSDOF 5
ENDMDL
MODEL 8
REMARK VINA RESULT:      -7.2      2.713      9.280
REMARK  Name = 
REMARK  7 active torsions:
REMARK  status: ('A' for Active; 'I' for Inactive)
REMARK    1  A    between atoms: C_1  and  O_2
REMARK    2  A    between atoms: O_2  and  C_3
REMARK    3  A    between atoms: C_5  and  O_6
REMARK    4  A    between atoms: O_6  and  C_7
REMARK    5  A    between atoms: C_8  and  C_9
REMARK    6  A    between atoms: C_14  and  N_15
REMARK    7  A    between atoms: C_25  and  C_26
REMARK                            x       y       z     vdW  Elec       q    Type
REMARK                         _______ _______ _______ _____ _____    ______ ____
ROOT
ATOM      1  C   UNL     1       1.069   9.022  19.261  0.00  0.00    +0.000 A 
ATOM      2  C   UNL     1       1.350   7.870  19.958  0.00  0.00    +0.000 A 
ATOM      3  N   UNL     1       2.401   7.279  19.300  0.00  0.00    +0.000 N 
ATOM      4  C   UNL     1       3.067   6.099  19.586  0.00  0.00    +0.000 A 
ATOM      5  C   UNL     1       4.077   5.714  18.789  0.00  0.00    +0.000 A 
ATOM      6  C   UNL     1       4.462   6.528  17.625  0.00  0.00    +0.000 A 
ATOM      7  C   UNL     1       3.789   7.683  17.395  0.00  0.00    +0.000 A 
ATOM      8  C   UNL     1       2.722   8.097  18.238  0.00  0.00    +0.000 A 
ATOM      9  N   UNL     1       1.940   9.158  18.195  0.00  0.00    +0.000 NA
ENDROOT
BRANCH   1  13
ATOM     10  C   UNL     1      -2.111  11.845  19.828  0.00  0.00    +0.000 A 
ATOM     11  C   UNL     1      -1.201  11.612  20.859  0.00  0.00    +0.000 A 
ATOM     12  C   UNL     1      -0.133  10.720  20.724  0.00  0.00    +0.000 A 
ATOM     13  C   UNL     1       0.018  10.000  19.520  0.00  0.00    +0.000 A 
ATOM     14  C   UNL     1      -0.932  10.215  18.492  0.00  0.00    +0.000 A 
ATOM     15  C   UNL     1      -1.986  11.125  18.638  0.00  0.00    +0.000 A 
BRANCH  10  17
ATOM     16  C   UNL     1      -3.698  12.837  21.267  0.00  0.00    +0.000 C 
ATOM     17  O   UNL     1      -3.138  12.746  19.956  0.00  0.00    +0.000 OA
ENDBRANCH  10  17
BRANCH  12  18
ATOM     18  O   UNL     1       0.790  10.575  21.734  0.00  0.00    +0.000 OA
ATOM     19  C   UNL     1       0.412   9.783  22.860  0.00  0.00    +0.000 C 
ENDBRANCH  12  18
BRANCH  15  20
ATOM     20  C   UNL     1      -2.888  11.327  17.543  0.00  0.00    +0.000 C 
ATOM     21  N   UNL     1      -3.611  11.528  16.654  0.00  0.00    +0.000 NA
ENDBRANCH  15  20
ENDBRANCH   1  13
BRANCH   6  22
ATOM     22  N   UNL     1       5.521   6.086  16.829  0.00  0.00    +0.000 N 
ATOM     23  C   UNL     1       5.397   5.570  15.451  0.00  0.00    +0.000 C 
ATOM     24  C   UNL     1       6.028   4.174  15.358  0.00  0.00    +0.000 C 
ATOM     25  O   UNL     1       7.402   4.187  15.783  0.00  0.00    +0.000 OA
ATOM     26  C   UNL     1       7.501   4.662  17.136  0.00  0.00    +0.000 C 
ATOM     27  C   UNL     1       6.931   6.081  17.279  0.00  0.00    +0.000 C 
ENDBRANCH   6  22
TORSDOF 5
ENDMDL
MODEL 9
REMARK VINA RESULT:      -7.2      2.124      9.018
REMARK  Name = 
REMARK  7 active torsions:
REMARK  status: ('A' for Active; 'I' for Inactive)
REMARK    1  A    between atoms: C_1  and  O_2
REMARK    2  A    between atoms: O_2  and  C_3
REMARK    3  A    between atoms: C_5  and  O_6
REMARK    4  A    between atoms: O_6  and  C_7
REMARK    5  A    between atoms: C_8  and  C_9
REMARK    6  A    between atoms: C_14  and  N_15
REMARK    7  A    between atoms: C_25  and  C_26
REMARK                            x       y       z     vdW  Elec       q    Type
REMARK                         _______ _______ _______ _____ _____    ______ ____
ROOT
ATOM      1  C   UNL     1       0.432  10.851  20.678  0.00  0.00    +0.000 A 
ATOM      2  C   UNL     1       0.722  10.842  19.333  0.00  0.00    +0.000 A 
ATOM      3  N   UNL     1       1.286   9.617  19.076  0.00  0.00    +0.000 N 
ATOM      4  C   UNL     1       1.758   9.097  17.883  0.00  0.00    +0.000 A 
ATOM      5  C   UNL     1       2.276   7.859  17.873  0.00  0.00    +0.000 A 
ATOM      6  C   UNL     1       2.351   7.071  19.115  0.00  0.00    +0.000 A 
ATOM      7  C   UNL     1       1.862   7.618  20.256  0.00  0.00    +0.000 A 
ATOM      8  C   UNL     1       1.308   8.927  20.270  0.00  0.00    +0.000 A 
ATOM      9  N   UNL     1       0.793   9.645  21.249  0.00  0.00    +0.000 NA
ENDROOT
BRANCH   1  13
ATOM     10  C   UNL     1      -1.426  13.884  23.076  0.00  0.00    +0.000 A 
ATOM     11  C   UNL     1      -0.229  14.162  22.414  0.00  0.00    +0.000 A 
ATOM     12  C   UNL     1       0.410  13.220  21.602  0.00  0.00    +0.000 A 
ATOM     13  C   UNL     1      -0.147  11.930  21.469  0.00  0.00    +0.000 A 
ATOM     14  C   UNL     1      -1.342  11.645  22.174  0.00  0.00    +0.000 A 
ATOM     15  C   UNL     1      -1.978  12.607  22.969  0.00  0.00    +0.000 A 
BRANCH  10  17
ATOM     16  C   UNL     1      -1.345  15.238  25.008  0.00  0.00    +0.000 C 
ATOM     17  O   UNL     1      -2.064  14.823  23.845  0.00  0.00    +0.000 OA
ENDBRANCH  10  17
BRANCH  12  18
ATOM     18  O   UNL     1       1.546  13.555  20.903  0.00  0.00    +0.000 OA
ATOM     19  C   UNL     1       1.464  14.667  20.010  0.00  0.00    +0.000 C 
ENDBRANCH  12  18
BRANCH  15  20
ATOM     20  C   UNL     1      -3.207  12.267  23.622  0.00  0.00    +0.000 C 
ATOM     21  N   UNL     1      -4.199  12.018  24.179  0.00  0.00    +0.000 NA
ENDBRANCH  15  20
ENDBRANCH   1  13
BRANCH   6  22
ATOM     22  N   UNL     1       2.896   5.787  19.052  0.00  0.00    +0.000 N 
ATOM     23  C   UNL     1       4.257   5.414  19.490  0.00  0.00    +0.000 C 
ATOM     24  C   UNL     1       5.006   4.729  18.338  0.00  0.00    +0.000 C 
ATOM     25  O   UNL     1       4.287   3.583  17.850  0.00  0.00    +0.000 OA
ATOM     26  C   UNL     1       2.978   3.969  17.399  0.00  0.00    +0.000 C 
ATOM     27  C   UNL     1       2.161   4.614  18.529  0.00  0.00    +0.000 C 
ENDBRANCH   6  22
TORSDOF 5
ENDMDL
