MODEL 1
REMARK VINA RESULT:      -8.6      0.000      0.000
REMARK  Name = 
REMARK  9 active torsions:
REMARK  status: ('A' for Active; 'I' for Inactive)
REMARK    1  A    between atoms: C_2  and  O_3
REMARK    2  A    between atoms: C_2  and  C_4
REMARK    3  A    between atoms: C_4  and  C_5
REMARK    4  A    between atoms: C_5  and  C_6
REMARK    5  A    between atoms: C_6  and  N_7
REMARK    6  A    between atoms: C_8  and  C_10
REMARK    7  A    between atoms: C_15  and  N_16
REMARK    8  A    between atoms: C_17  and  C_19
REMARK    9  A    between atoms: C_20  and  C_21
REMARK                            x       y       z     vdW  Elec       q    Type
REMARK                         _______ _______ _______ _____ _____    ______ ____
ROOT
ATOM      1  C   UNL     1       5.738   4.658  17.115  0.00  0.00    +0.000 A 
ATOM      2  C   UNL     1       4.988   3.855  16.228  0.00  0.00    +0.000 A 
ATOM      3  C   UNL     1       5.362   3.710  14.893  0.00  0.00    +0.000 A 
ATOM      4  C   UNL     1       6.496   4.357  14.432  0.00  0.00    +0.000 A 
ATOM      5  C   UNL     1       7.248   5.150  15.302  0.00  0.00    +0.000 A 
ATOM      6  C   UNL     1       6.876   5.347  16.647  0.00  0.00    +0.000 A 
ENDROOT
BRANCH   1   8
ATOM      7  N   UNL     1       3.828   5.093  18.596  0.00  0.00    +0.000 N 
ATOM      8  C   UNL     1       5.168   4.780  18.484  0.00  0.00    +0.000 C 
ATOM      9  O   UNL     1       5.899   4.644  19.461  0.00  0.00    +0.000 OA
ATOM     10  H   UNL     1       3.345   5.485  17.795  0.00  0.00    +0.000 HD
BRANCH   7  11
ATOM     11  C   UNL     1       3.217   5.243  19.906  0.00  0.00    +0.000 C 
BRANCH  11  12
ATOM     12  C   UNL     1       2.582   3.947  20.418  0.00  0.00    +0.000 C 
BRANCH  12  13
ATOM     13  C   UNL     1       1.164   3.707  19.908  0.00  0.00    +0.000 C 
BRANCH  13  15
ATOM     14  O   UNL     1       1.227   3.627  17.507  0.00  0.00    +0.000 OA
ATOM     15  C   UNL     1       1.162   3.022  18.568  0.00  0.00    +0.000 C 
BRANCH  15  16
ATOM     16  O   UNL     1       1.146   1.675  18.642  0.00  0.00    +0.000 OA
ATOM     17  H   UNL     1       0.464   1.310  19.239  0.00  0.00    +0.000 HD
ENDBRANCH  15  16
ENDBRANCH  13  15
ENDBRANCH  12  13
ENDBRANCH  11  12
ENDBRANCH   7  11
ENDBRANCH   1   8
BRANCH   6  18
ATOM     18  N   UNL     1       7.633   6.220  17.484  0.00  0.00    +0.000 N 
ATOM     19  C   UNL     1       7.473   7.591  17.549  0.00  0.00    +0.000 C 
ATOM     20  O   UNL     1       6.556   8.231  17.047  0.00  0.00    +0.000 OA
ATOM     21  H   UNL     1       8.246   5.790  18.167  0.00  0.00    +0.000 HD
BRANCH  19  22
ATOM     22  C   UNL     1       8.533   8.295  18.322  0.00  0.00    +0.000 C 
ATOM     23  C   UNL     1       8.518   9.640  18.286  0.00  0.00    +0.000 C 
BRANCH  23  24
ATOM     24  C   UNL     1       9.483  10.556  18.906  0.00  0.00    +0.000 A 
ATOM     25  C   UNL     1      10.426  11.185  18.075  0.00  0.00    +0.000 A 
ATOM     26  C   UNL     1      11.326  12.118  18.591  0.00  0.00    +0.000 A 
ATOM     27  C   UNL     1      11.289  12.440  19.945  0.00  0.00    +0.000 A 
ATOM     28  C   UNL     1      10.355  11.826  20.779  0.00  0.00    +0.000 A 
ATOM     29  C   UNL     1       9.455  10.890  20.262  0.00  0.00    +0.000 A 
ENDBRANCH  23  24
ENDBRANCH  19  22
ENDBRANCH   6  18
TORSDOF 9
ENDMDL
MODEL 2
REMARK VINA RESULT:      -8.4      0.967      1.217
REMARK  Name = 
REMARK  9 active torsions:
REMARK  status: ('A' for Active; 'I' for Inactive)
REMARK    1  A    between atoms: C_2  and  O_3
REMARK    2  A    between atoms: C_2  and  C_4
REMARK    3  A    between atoms: C_4  and  C_5
REMARK    4  A    between atoms: C_5  and  C_6
REMARK    5  A    between atoms: C_6  and  N_7
REMARK    6  A    between atoms: C_8  and  C_10
REMARK    7  A    between atoms: C_15  and  N_16
REMARK    8  A    between atoms: C_17  and  C_19
REMARK    9  A    between atoms: C_20  and  C_21
REMARK                            x       y       z     vdW  Elec       q    Type
REMARK                         _______ _______ _______ _____ _____    ______ ____
ROOT
ATOM      1  C   UNL     1       5.968   4.516  16.652  0.00  0.00    +0.000 A 
ATOM      2  C   UNL     1       5.298   3.748  15.676  0.00  0.00    +0.000 A 
ATOM      3  C   UNL     1       5.694   3.774  14.339  0.00  0.00    +0.000 A 
ATOM      4  C   UNL     1       6.771   4.560  13.966  0.00  0.00    +0.000 A 
ATOM      5  C   UNL     1       7.444   5.320  14.925  0.00  0.00    +0.000 A 
ATOM      6  C   UNL     1       7.046   5.344  16.276  0.00  0.00    +0.000 A 
ENDROOT
BRANCH   1   8
ATOM      7  N   UNL     1       4.020   4.655  18.141  0.00  0.00    +0.000 N 
ATOM      8  C   UNL     1       5.380   4.446  18.017  0.00  0.00    +0.000 C 
ATOM      9  O   UNL     1       6.109   4.251  18.984  0.00  0.00    +0.000 OA
ATOM     10  H   UNL     1       3.518   5.101  17.380  0.00  0.00    +0.000 HD
BRANCH   7  11
ATOM     11  C   UNL     1       3.389   4.617  19.449  0.00  0.00    +0.000 C 
BRANCH  11  12
ATOM     12  C   UNL     1       1.864   4.731  19.377  0.00  0.00    +0.000 C 
BRANCH  12  13
ATOM     13  C   UNL     1       1.148   4.289  20.650  0.00  0.00    +0.000 C 
BRANCH  13  15
ATOM     14  O   UNL     1       1.715   2.509  22.162  0.00  0.00    +0.000 OA
ATOM     15  C   UNL     1       1.487   2.869  21.015  0.00  0.00    +0.000 C 
BRANCH  15  16
ATOM     16  O   UNL     1       1.456   2.013  19.973  0.00  0.00    +0.000 OA
ATOM     17  H   UNL     1       1.856   1.140  20.152  0.00  0.00    +0.000 HD
ENDBRANCH  15  16
ENDBRANCH  13  15
ENDBRANCH  12  13
ENDBRANCH  11  12
ENDBRANCH   7  11
ENDBRANCH   1   8
BRANCH   6  18
ATOM     18  N   UNL     1       7.718   6.187  17.211  0.00  0.00    +0.000 N 
ATOM     19  C   UNL     1       7.380   7.501  17.479  0.00  0.00    +0.000 C 
ATOM     20  O   UNL     1       6.364   8.071  17.099  0.00  0.00    +0.000 OA
ATOM     21  H   UNL     1       8.414   5.755  17.808  0.00  0.00    +0.000 HD
BRANCH  19  22
ATOM     22  C   UNL     1       8.371   8.230  18.317  0.00  0.00    +0.000 C 
ATOM     23  C   UNL     1       8.446   9.562  18.148  0.00  0.00    +0.000 C 
BRANCH  23  24
ATOM     24  C   UNL     1       9.377  10.490  18.802  0.00  0.00    +0.000 A 
ATOM     25  C   UNL     1      10.250  11.232  17.990  0.00  0.00    +0.000 A 
ATOM     26  C   UNL     1      11.111  12.181  18.544  0.00  0.00    +0.000 A 
ATOM     27  C   UNL     1      11.103  12.403  19.918  0.00  0.00    +0.000 A 
ATOM     28  C   UNL     1      10.239  11.675  20.734  0.00  0.00    +0.000 A 
ATOM     29  C   UNL     1       9.377  10.724  20.180  0.00  0.00    +0.000 A 
ENDBRANCH  23  24
ENDBRANCH  19  22
ENDBRANCH   6  18
TORSDOF 9
ENDMDL
MODEL 3
REMARK VINA RESULT:      -8.2      0.974      1.542
REMARK  Name = 
REMARK  9 active torsions:
REMARK  status: ('A' for Active; 'I' for Inactive)
REMARK    1  A    between atoms: C_2  and  O_3
REMARK    2  A    between atoms: C_2  and  C_4
REMARK    3  A    between atoms: C_4  and  C_5
REMARK    4  A    between atoms: C_5  and  C_6
REMARK    5  A    between atoms: C_6  and  N_7
REMARK    6  A    between atoms: C_8  and  C_10
REMARK    7  A    between atoms: C_15  and  N_16
REMARK    8  A    between atoms: C_17  and  C_19
REMARK    9  A    between atoms: C_20  and  C_21
REMARK                            x       y       z     vdW  Elec       q    Type
REMARK                         _______ _______ _______ _____ _____    ______ ____
ROOT
ATOM      1  C   UNL     1       5.384   4.940  17.397  0.00  0.00    +0.000 A 
ATOM      2  C   UNL     1       4.627   4.083  16.568  0.00  0.00    +0.000 A 
ATOM      3  C   UNL     1       5.129   3.627  15.351  0.00  0.00    +0.000 A 
ATOM      4  C   UNL     1       6.398   4.012  14.953  0.00  0.00    +0.000 A 
ATOM      5  C   UNL     1       7.157   4.855  15.767  0.00  0.00    +0.000 A 
ATOM      6  C   UNL     1       6.665   5.364  16.985  0.00  0.00    +0.000 A 
ENDROOT
BRANCH   1   8
ATOM      7  N   UNL     1       3.336   5.695  18.522  0.00  0.00    +0.000 N 
ATOM      8  C   UNL     1       4.683   5.407  18.623  0.00  0.00    +0.000 C 
ATOM      9  O   UNL     1       5.315   5.560  19.664  0.00  0.00    +0.000 OA
ATOM     10  H   UNL     1       2.931   5.843  17.603  0.00  0.00    +0.000 HD
BRANCH   7  11
ATOM     11  C   UNL     1       2.599   6.172  19.680  0.00  0.00    +0.000 C 
BRANCH  11  12
ATOM     12  C   UNL     1       2.434   5.101  20.761  0.00  0.00    +0.000 C 
BRANCH  12  13
ATOM     13  C   UNL     1       1.199   4.224  20.583  0.00  0.00    +0.000 C 
BRANCH  13  15
ATOM     14  O   UNL     1       1.421   2.379  22.106  0.00  0.00    +0.000 OA
ATOM     15  C   UNL     1       1.472   2.792  20.957  0.00  0.00    +0.000 C 
BRANCH  15  16
ATOM     16  O   UNL     1       1.718   1.989  19.901  0.00  0.00    +0.000 OA
ATOM     17  H   UNL     1       1.449   2.360  19.038  0.00  0.00    +0.000 HD
ENDBRANCH  15  16
ENDBRANCH  13  15
ENDBRANCH  12  13
ENDBRANCH  11  12
ENDBRANCH   7  11
ENDBRANCH   1   8
BRANCH   6  18
ATOM     18  N   UNL     1       7.446   6.277  17.754  0.00  0.00    +0.000 N 
ATOM     19  C   UNL     1       7.424   7.652  17.613  0.00  0.00    +0.000 C 
ATOM     20  O   UNL     1       6.616   8.292  16.950  0.00  0.00    +0.000 OA
ATOM     21  H   UNL     1       7.961   5.898  18.540  0.00  0.00    +0.000 HD
BRANCH  19  22
ATOM     22  C   UNL     1       8.493   8.362  18.368  0.00  0.00    +0.000 C 
ATOM     23  C   UNL     1       8.533   9.702  18.247  0.00  0.00    +0.000 C 
BRANCH  23  24
ATOM     24  C   UNL     1       9.520  10.617  18.834  0.00  0.00    +0.000 A 
ATOM     25  C   UNL     1       9.389  10.948  20.192  0.00  0.00    +0.000 A 
ATOM     26  C   UNL     1      10.332  11.757  20.827  0.00  0.00    +0.000 A 
ATOM     27  C   UNL     1      11.423  12.240  20.111  0.00  0.00    +0.000 A 
ATOM     28  C   UNL     1      11.567  11.915  18.763  0.00  0.00    +0.000 A 
ATOM     29  C   UNL     1      10.621  11.106  18.126  0.00  0.00    +0.000 A 
ENDBRANCH  23  24
ENDBRANCH  19  22
ENDBRANCH   6  18
TORSDOF 9
ENDMDL
MODEL 4
REMARK VINA RESULT:      -8.2      4.619      7.117
REMARK  Name = 
REMARK  9 active torsions:
REMARK  status: ('A' for Active; 'I' for Inactive)
REMARK    1  A    between atoms: C_2  and  O_3
REMARK    2  A    between atoms: C_2  and  C_4
REMARK    3  A    between atoms: C_4  and  C_5
REMARK    4  A    between atoms: C_5  and  C_6
REMARK    5  A    between atoms: C_6  and  N_7
REMARK    6  A    between atoms: C_8  and  C_10
REMARK    7  A    between atoms: C_15  and  N_16
REMARK    8  A    between atoms: C_17  and  C_19
REMARK    9  A    between atoms: C_20  and  C_21
REMARK                            x       y       z     vdW  Elec       q    Type
REMARK                         _______ _______ _______ _____ _____    ______ ____
ROOT
ATOM      1  C   UNL     1       2.623   4.949  19.891  0.00  0.00    +0.000 A 
ATOM      2  C   UNL     1       1.842   4.651  21.028  0.00  0.00    +0.000 A 
ATOM      3  C   UNL     1       1.947   3.420  21.675  0.00  0.00    +0.000 A 
ATOM      4  C   UNL     1       2.844   2.478  21.198  0.00  0.00    +0.000 A 
ATOM      5  C   UNL     1       3.624   2.766  20.076  0.00  0.00    +0.000 A 
ATOM      6  C   UNL     1       3.514   3.985  19.378  0.00  0.00    +0.000 A 
ENDROOT
BRANCH   1   8
ATOM      7  N   UNL     1       2.079   7.335  20.103  0.00  0.00    +0.000 N 
ATOM      8  C   UNL     1       2.339   6.269  19.264  0.00  0.00    +0.000 C 
ATOM      9  O   UNL     1       2.302   6.366  18.041  0.00  0.00    +0.000 OA
ATOM     10  H   UNL     1       1.826   7.152  21.069  0.00  0.00    +0.000 HD
BRANCH   7  11
ATOM     11  C   UNL     1       1.778   8.645  19.552  0.00  0.00    +0.000 C 
BRANCH  11  12
ATOM     12  C   UNL     1       0.606   9.333  20.258  0.00  0.00    +0.000 C 
BRANCH  12  13
ATOM     13  C   UNL     1       0.183   8.657  21.559  0.00  0.00    +0.000 C 
BRANCH  13  15
ATOM     14  O   UNL     1       0.188   9.706  23.721  0.00  0.00    +0.000 OA
ATOM     15  C   UNL     1       0.824   9.304  22.757  0.00  0.00    +0.000 C 
BRANCH  15  16
ATOM     16  O   UNL     1       2.172   9.344  22.701  0.00  0.00    +0.000 OA
ATOM     17  H   UNL     1       2.622   8.808  23.382  0.00  0.00    +0.000 HD
ENDBRANCH  15  16
ENDBRANCH  13  15
ENDBRANCH  12  13
ENDBRANCH  11  12
ENDBRANCH   7  11
ENDBRANCH   1   8
BRANCH   6  18
ATOM     18  N   UNL     1       4.281   4.212  18.196  0.00  0.00    +0.000 N 
ATOM     19  C   UNL     1       5.585   4.669  18.174  0.00  0.00    +0.000 C 
ATOM     20  O   UNL     1       6.326   4.771  19.145  0.00  0.00    +0.000 OA
ATOM     21  H   UNL     1       3.882   3.901  17.319  0.00  0.00    +0.000 HD
BRANCH  19  22
ATOM     22  C   UNL     1       6.080   5.041  16.820  0.00  0.00    +0.000 C 
ATOM     23  C   UNL     1       5.996   4.100  15.863  0.00  0.00    +0.000 C 
BRANCH  23  24
ATOM     24  C   UNL     1       6.470   4.198  14.477  0.00  0.00    +0.000 A 
ATOM     25  C   UNL     1       5.812   3.435  13.498  0.00  0.00    +0.000 A 
ATOM     26  C   UNL     1       6.168   3.535  12.152  0.00  0.00    +0.000 A 
ATOM     27  C   UNL     1       7.184   4.406  11.768  0.00  0.00    +0.000 A 
ATOM     28  C   UNL     1       7.842   5.171  12.730  0.00  0.00    +0.000 A 
ATOM     29  C   UNL     1       7.487   5.070  14.078  0.00  0.00    +0.000 A 
ENDBRANCH  23  24
ENDBRANCH  19  22
ENDBRANCH   6  18
TORSDOF 9
ENDMDL
MODEL 5
REMARK VINA RESULT:      -8.2      1.592      1.795
REMARK  Name = 
REMARK  9 active torsions:
REMARK  status: ('A' for Active; 'I' for Inactive)
REMARK    1  A    between atoms: C_2  and  O_3
REMARK    2  A    between atoms: C_2  and  C_4
REMARK    3  A    between atoms: C_4  and  C_5
REMARK    4  A    between atoms: C_5  and  C_6
REMARK    5  A    between atoms: C_6  and  N_7
REMARK    6  A    between atoms: C_8  and  C_10
REMARK    7  A    between atoms: C_15  and  N_16
REMARK    8  A    between atoms: C_17  and  C_19
REMARK    9  A    between atoms: C_20  and  C_21
REMARK                            x       y       z     vdW  Elec       q    Type
REMARK                         _______ _______ _______ _____ _____    ______ ____
ROOT
ATOM      1  C   UNL     1       5.000   5.554  16.928  0.00  0.00    +0.000 A 
ATOM      2  C   UNL     1       4.454   4.308  16.552  0.00  0.00    +0.000 A 
ATOM      3  C   UNL     1       5.141   3.446  15.699  0.00  0.00    +0.000 A 
ATOM      4  C   UNL     1       6.388   3.815  15.222  0.00  0.00    +0.000 A 
ATOM      5  C   UNL     1       6.939   5.043  15.592  0.00  0.00    +0.000 A 
ATOM      6  C   UNL     1       6.254   5.953  16.421  0.00  0.00    +0.000 A 
ENDROOT
BRANCH   1   8
ATOM      7  N   UNL     1       3.434   5.779  18.806  0.00  0.00    +0.000 N 
ATOM      8  C   UNL     1       4.114   6.398  17.775  0.00  0.00    +0.000 C 
ATOM      9  O   UNL     1       3.979   7.590  17.516  0.00  0.00    +0.000 OA
ATOM     10  H   UNL     1       3.338   4.769  18.798  0.00  0.00    +0.000 HD
BRANCH   7  11
ATOM     11  C   UNL     1       2.540   6.545  19.658  0.00  0.00    +0.000 C 
BRANCH  11  12
ATOM     12  C   UNL     1       1.802   5.675  20.679  0.00  0.00    +0.000 C 
BRANCH  12  13
ATOM     13  C   UNL     1       1.556   4.244  20.213  0.00  0.00    +0.000 C 
BRANCH  13  15
ATOM     14  O   UNL     1       3.539   2.897  20.391  0.00  0.00    +0.000 OA
ATOM     15  C   UNL     1       2.485   3.270  20.888  0.00  0.00    +0.000 C 
BRANCH  15  16
ATOM     16  O   UNL     1       2.082   2.893  22.119  0.00  0.00    +0.000 OA
ATOM     17  H   UNL     1       2.571   2.134  22.491  0.00  0.00    +0.000 HD
ENDBRANCH  15  16
ENDBRANCH  13  15
ENDBRANCH  12  13
ENDBRANCH  11  12
ENDBRANCH   7  11
ENDBRANCH   1   8
BRANCH   6  18
ATOM     18  N   UNL     1       6.824   7.227  16.719  0.00  0.00    +0.000 N 
ATOM     19  C   UNL     1       7.621   7.502  17.814  0.00  0.00    +0.000 C 
ATOM     20  O   UNL     1       8.101   6.671  18.578  0.00  0.00    +0.000 OA
ATOM     21  H   UNL     1       6.736   7.950  16.015  0.00  0.00    +0.000 HD
BRANCH  19  22
ATOM     22  C   UNL     1       7.897   8.949  18.024  0.00  0.00    +0.000 C 
ATOM     23  C   UNL     1       8.986   9.261  18.749  0.00  0.00    +0.000 C 
BRANCH  23  24
ATOM     24  C   UNL     1       9.435  10.601  19.147  0.00  0.00    +0.000 A 
ATOM     25  C   UNL     1       9.847  11.487  18.138  0.00  0.00    +0.000 A 
ATOM     26  C   UNL     1      10.219  12.797  18.443  0.00  0.00    +0.000 A 
ATOM     27  C   UNL     1      10.177  13.239  19.762  0.00  0.00    +0.000 A 
ATOM     28  C   UNL     1       9.767  12.370  20.772  0.00  0.00    +0.000 A 
ATOM     29  C   UNL     1       9.396  11.057  20.468  0.00  0.00    +0.000 A 
ENDBRANCH  23  24
ENDBRANCH  19  22
ENDBRANCH   6  18
TORSDOF 9
ENDMDL
MODEL 6
REMARK VINA RESULT:      -8.1      2.840      4.767
REMARK  Name = 
REMARK  9 active torsions:
REMARK  status: ('A' for Active; 'I' for Inactive)
REMARK    1  A    between atoms: C_2  and  O_3
REMARK    2  A    between atoms: C_2  and  C_4
REMARK    3  A    between atoms: C_4  and  C_5
REMARK    4  A    between atoms: C_5  and  C_6
REMARK    5  A    between atoms: C_6  and  N_7
REMARK    6  A    between atoms: C_8  and  C_10
REMARK    7  A    between atoms: C_15  and  N_16
REMARK    8  A    between atoms: C_17  and  C_19
REMARK    9  A    between atoms: C_20  and  C_21
REMARK                            x       y       z     vdW  Elec       q    Type
REMARK                         _______ _______ _______ _____ _____    ______ ____
ROOT
ATOM      1  C   UNL     1       5.564   5.279  16.431  0.00  0.00    +0.000 A 
ATOM      2  C   UNL     1       4.645   4.220  16.597  0.00  0.00    +0.000 A 
ATOM      3  C   UNL     1       3.578   4.322  17.489  0.00  0.00    +0.000 A 
ATOM      4  C   UNL     1       3.411   5.488  18.216  0.00  0.00    +0.000 A 
ATOM      5  C   UNL     1       4.312   6.544  18.056  0.00  0.00    +0.000 A 
ATOM      6  C   UNL     1       5.421   6.458  17.192  0.00  0.00    +0.000 A 
ENDROOT
BRANCH   1   8
ATOM      7  N   UNL     1       6.548   5.356  14.183  0.00  0.00    +0.000 N 
ATOM      8  C   UNL     1       6.693   4.991  15.506  0.00  0.00    +0.000 C 
ATOM      9  O   UNL     1       7.689   4.409  15.926  0.00  0.00    +0.000 OA
ATOM     10  H   UNL     1       5.619   5.551  13.824  0.00  0.00    +0.000 HD
BRANCH   7  11
ATOM     11  C   UNL     1       7.608   5.085  13.227  0.00  0.00    +0.000 C 
BRANCH  11  12
ATOM     12  C   UNL     1       7.203   4.062  12.162  0.00  0.00    +0.000 C 
BRANCH  12  13
ATOM     13  C   UNL     1       6.132   3.079  12.623  0.00  0.00    +0.000 C 
BRANCH  13  15
ATOM     14  O   UNL     1       6.147   1.313  10.993  0.00  0.00    +0.000 OA
ATOM     15  C   UNL     1       5.576   2.281  11.473  0.00  0.00    +0.000 C 
BRANCH  15  16
ATOM     16  O   UNL     1       4.359   2.692  11.061  0.00  0.00    +0.000 OA
ATOM     17  H   UNL     1       3.786   1.981  10.714  0.00  0.00    +0.000 HD
ENDBRANCH  15  16
ENDBRANCH  13  15
ENDBRANCH  12  13
ENDBRANCH  11  12
ENDBRANCH   7  11
ENDBRANCH   1   8
BRANCH   6  18
ATOM     18  N   UNL     1       6.356   7.533  17.109  0.00  0.00    +0.000 N 
ATOM     19  C   UNL     1       7.531   7.618  17.830  0.00  0.00    +0.000 C 
ATOM     20  O   UNL     1       8.029   6.719  18.498  0.00  0.00    +0.000 OA
ATOM     21  H   UNL     1       6.206   8.222  16.381  0.00  0.00    +0.000 HD
BRANCH  19  22
ATOM     22  C   UNL     1       8.213   8.939  17.738  0.00  0.00    +0.000 C 
ATOM     23  C   UNL     1       8.850   9.372  18.841  0.00  0.00    +0.000 C 
BRANCH  23  24
ATOM     24  C   UNL     1       9.537  10.656  19.024  0.00  0.00    +0.000 A 
ATOM     25  C   UNL     1       9.776  11.097  20.335  0.00  0.00    +0.000 A 
ATOM     26  C   UNL     1      10.484  12.275  20.577  0.00  0.00    +0.000 A 
ATOM     27  C   UNL     1      10.970  13.022  19.508  0.00  0.00    +0.000 A 
ATOM     28  C   UNL     1      10.742  12.593  18.201  0.00  0.00    +0.000 A 
ATOM     29  C   UNL     1      10.031  11.414  17.959  0.00  0.00    +0.000 A 
ENDBRANCH  23  24
ENDBRANCH  19  22
ENDBRANCH   6  18
TORSDOF 9
ENDMDL
MODEL 7
REMARK VINA RESULT:      -8.0      0.723      1.247
REMARK  Name = 
REMARK  9 active torsions:
REMARK  status: ('A' for Active; 'I' for Inactive)
REMARK    1  A    between atoms: C_2  and  O_3
REMARK    2  A    between atoms: C_2  and  C_4
REMARK    3  A    between atoms: C_4  and  C_5
REMARK    4  A    between atoms: C_5  and  C_6
REMARK    5  A    between atoms: C_6  and  N_7
REMARK    6  A    between atoms: C_8  and  C_10
REMARK    7  A    between atoms: C_15  and  N_16
REMARK    8  A    between atoms: C_17  and  C_19
REMARK    9  A    between atoms: C_20  and  C_21
REMARK                            x       y       z     vdW  Elec       q    Type
REMARK                         _______ _______ _______ _____ _____    ______ ____
ROOT
ATOM      1  C   UNL     1       6.016   4.465  17.085  0.00  0.00    +0.000 A 
ATOM      2  C   UNL     1       5.290   3.646  16.193  0.00  0.00    +0.000 A 
ATOM      3  C   UNL     1       5.551   3.659  14.824  0.00  0.00    +0.000 A 
ATOM      4  C   UNL     1       6.549   4.484  14.332  0.00  0.00    +0.000 A 
ATOM      5  C   UNL     1       7.276   5.296  15.206  0.00  0.00    +0.000 A 
ATOM      6  C   UNL     1       7.012   5.333  16.589  0.00  0.00    +0.000 A 
ENDROOT
BRANCH   1   8
ATOM      7  N   UNL     1       4.305   3.902  18.754  0.00  0.00    +0.000 N 
ATOM      8  C   UNL     1       5.568   4.400  18.503  0.00  0.00    +0.000 C 
ATOM      9  O   UNL     1       6.301   4.822  19.392  0.00  0.00    +0.000 OA
ATOM     10  H   UNL     1       3.635   3.850  17.993  0.00  0.00    +0.000 HD
BRANCH   7  11
ATOM     11  C   UNL     1       3.803   3.828  20.115  0.00  0.00    +0.000 C 
BRANCH  11  12
ATOM     12  C   UNL     1       2.759   4.905  20.423  0.00  0.00    +0.000 C 
BRANCH  12  13
ATOM     13  C   UNL     1       1.446   4.730  19.667  0.00  0.00    +0.000 C 
BRANCH  13  15
ATOM     14  O   UNL     1       1.152   2.574  18.647  0.00  0.00    +0.000 OA
ATOM     15  C   UNL     1       1.012   3.289  19.629  0.00  0.00    +0.000 C 
BRANCH  15  16
ATOM     16  O   UNL     1       0.511   2.838  20.798  0.00  0.00    +0.000 OA
ATOM     17  H   UNL     1       0.814   1.945  21.051  0.00  0.00    +0.000 HD
ENDBRANCH  15  16
ENDBRANCH  13  15
ENDBRANCH  12  13
ENDBRANCH  11  12
ENDBRANCH   7  11
ENDBRANCH   1   8
BRANCH   6  18
ATOM     18  N   UNL     1       7.731   6.226  17.438  0.00  0.00    +0.000 N 
ATOM     19  C   UNL     1       7.472   7.578  17.567  0.00  0.00    +0.000 C 
ATOM     20  O   UNL     1       6.491   8.165  17.124  0.00  0.00    +0.000 OA
ATOM     21  H   UNL     1       8.400   5.817  18.080  0.00  0.00    +0.000 HD
BRANCH  19  22
ATOM     22  C   UNL     1       8.503   8.329  18.334  0.00  0.00    +0.000 C 
ATOM     23  C   UNL     1       8.489   9.669  18.219  0.00  0.00    +0.000 C 
BRANCH  23  24
ATOM     24  C   UNL     1       9.431  10.622  18.817  0.00  0.00    +0.000 A 
ATOM     25  C   UNL     1       9.311  10.898  20.189  0.00  0.00    +0.000 A 
ATOM     26  C   UNL     1      10.218  11.742  20.833  0.00  0.00    +0.000 A 
ATOM     27  C   UNL     1      11.261  12.315  20.111  0.00  0.00    +0.000 A 
ATOM     28  C   UNL     1      11.393  12.046  18.750  0.00  0.00    +0.000 A 
ATOM     29  C   UNL     1      10.484  11.203  18.104  0.00  0.00    +0.000 A 
ENDBRANCH  23  24
ENDBRANCH  19  22
ENDBRANCH   6  18
TORSDOF 9
ENDMDL
MODEL 8
REMARK VINA RESULT:      -8.0      4.542      6.285
REMARK  Name = 
REMARK  9 active torsions:
REMARK  status: ('A' for Active; 'I' for Inactive)
REMARK    1  A    between atoms: C_2  and  O_3
REMARK    2  A    between atoms: C_2  and  C_4
REMARK    3  A    between atoms: C_4  and  C_5
REMARK    4  A    between atoms: C_5  and  C_6
REMARK    5  A    between atoms: C_6  and  N_7
REMARK    6  A    between atoms: C_8  and  C_10
REMARK    7  A    between atoms: C_15  and  N_16
REMARK    8  A    between atoms: C_17  and  C_19
REMARK    9  A    between atoms: C_20  and  C_21
REMARK                            x       y       z     vdW  Elec       q    Type
REMARK                         _______ _______ _______ _____ _____    ______ ____
ROOT
ATOM      1  C   UNL     1       4.570   4.639  17.447  0.00  0.00    +0.000 A 
ATOM      2  C   UNL     1       5.388   4.224  16.374  0.00  0.00    +0.000 A 
ATOM      3  C   UNL     1       5.827   5.129  15.409  0.00  0.00    +0.000 A 
ATOM      4  C   UNL     1       5.461   6.461  15.511  0.00  0.00    +0.000 A 
ATOM      5  C   UNL     1       4.656   6.882  16.572  0.00  0.00    +0.000 A 
ATOM      6  C   UNL     1       4.166   5.987  17.543  0.00  0.00    +0.000 A 
ENDROOT
BRANCH   1   8
ATOM      7  N   UNL     1       2.845   3.042  18.158  0.00  0.00    +0.000 N 
ATOM      8  C   UNL     1       4.116   3.546  18.349  0.00  0.00    +0.000 C 
ATOM      9  O   UNL     1       4.854   3.155  19.249  0.00  0.00    +0.000 OA
ATOM     10  H   UNL     1       2.176   3.582  17.618  0.00  0.00    +0.000 HD
BRANCH   7  11
ATOM     11  C   UNL     1       2.338   1.985  19.017  0.00  0.00    +0.000 C 
BRANCH  11  12
ATOM     12  C   UNL     1       0.956   2.300  19.595  0.00  0.00    +0.000 C 
BRANCH  12  13
ATOM     13  C   UNL     1       0.869   3.654  20.293  0.00  0.00    +0.000 C 
BRANCH  13  15
ATOM     14  O   UNL     1       2.120   3.084  22.265  0.00  0.00    +0.000 OA
ATOM     15  C   UNL     1       1.968   3.830  21.307  0.00  0.00    +0.000 C 
BRANCH  15  16
ATOM     16  O   UNL     1       2.810   4.847  21.030  0.00  0.00    +0.000 OA
ATOM     17  H   UNL     1       2.569   5.698  21.444  0.00  0.00    +0.000 HD
ENDBRANCH  15  16
ENDBRANCH  13  15
ENDBRANCH  12  13
ENDBRANCH  11  12
ENDBRANCH   7  11
ENDBRANCH   1   8
BRANCH   6  18
ATOM     18  N   UNL     1       3.290   6.446  18.571  0.00  0.00    +0.000 N 
ATOM     19  C   UNL     1       2.542   7.608  18.515  0.00  0.00    +0.000 C 
ATOM     20  O   UNL     1       2.380   8.308  17.522  0.00  0.00    +0.000 OA
ATOM     21  H   UNL     1       3.112   5.816  19.344  0.00  0.00    +0.000 HD
BRANCH  19  22
ATOM     22  C   UNL     1       1.891   7.980  19.800  0.00  0.00    +0.000 C 
ATOM     23  C   UNL     1       1.133   9.091  19.797  0.00  0.00    +0.000 C 
BRANCH  23  24
ATOM     24  C   UNL     1       0.443   9.699  20.941  0.00  0.00    +0.000 A 
ATOM     25  C   UNL     1      -0.341  10.842  20.710  0.00  0.00    +0.000 A 
ATOM     26  C   UNL     1      -1.076  11.427  21.742  0.00  0.00    +0.000 A 
ATOM     27  C   UNL     1      -1.043  10.871  23.017  0.00  0.00    +0.000 A 
ATOM     28  C   UNL     1      -0.272   9.734  23.259  0.00  0.00    +0.000 A 
ATOM     29  C   UNL     1       0.467   9.149  22.226  0.00  0.00    +0.000 A 
ENDBRANCH  23  24
ENDBRANCH  19  22
ENDBRANCH   6  18
TORSDOF 9
ENDMDL
MODEL 9
REMARK VINA RESULT:      -7.9      1.331      1.829
REMARK  Name = 
REMARK  9 active torsions:
REMARK  status: ('A' for Active; 'I' for Inactive)
REMARK    1  A    between atoms: C_2  and  O_3
REMARK    2  A    between atoms: C_2  and  C_4
REMARK    3  A    between atoms: C_4  and  C_5
REMARK    4  A    between atoms: C_5  and  C_6
REMARK    5  A    between atoms: C_6  and  N_7
REMARK    6  A    between atoms: C_8  and  C_10
REMARK    7  A    between atoms: C_15  and  N_16
REMARK    8  A    between atoms: C_17  and  C_19
REMARK    9  A    between atoms: C_20  and  C_21
REMARK                            x       y       z     vdW  Elec       q    Type
REMARK                         _______ _______ _______ _____ _____    ______ ____
ROOT
ATOM      1  C   UNL     1       5.093   5.607  16.897  0.00  0.00    +0.000 A 
ATOM      2  C   UNL     1       4.539   4.360  16.534  0.00  0.00    +0.000 A 
ATOM      3  C   UNL     1       5.232   3.475  15.710  0.00  0.00    +0.000 A 
ATOM      4  C   UNL     1       6.490   3.821  15.248  0.00  0.00    +0.000 A 
ATOM      5  C   UNL     1       7.048   5.051  15.604  0.00  0.00    +0.000 A 
ATOM      6  C   UNL     1       6.360   5.983  16.404  0.00  0.00    +0.000 A 
ENDROOT
BRANCH   1   8
ATOM      7  N   UNL     1       3.485   5.881  18.733  0.00  0.00    +0.000 N 
ATOM      8  C   UNL     1       4.201   6.476  17.713  0.00  0.00    +0.000 C 
ATOM      9  O   UNL     1       4.095   7.667  17.437  0.00  0.00    +0.000 OA
ATOM     10  H   UNL     1       3.372   4.872  18.733  0.00  0.00    +0.000 HD
BRANCH   7  11
ATOM     11  C   UNL     1       2.585   6.672  19.554  0.00  0.00    +0.000 C 
BRANCH  11  12
ATOM     12  C   UNL     1       1.803   5.827  20.563  0.00  0.00    +0.000 C 
BRANCH  12  13
ATOM     13  C   UNL     1       2.415   4.455  20.831  0.00  0.00    +0.000 C 
BRANCH  13  15
ATOM     14  O   UNL     1       0.598   3.017  20.196  0.00  0.00    +0.000 OA
ATOM     15  C   UNL     1       1.751   3.379  20.014  0.00  0.00    +0.000 C 
BRANCH  15  16
ATOM     16  O   UNL     1       2.523   2.894  19.019  0.00  0.00    +0.000 OA
ATOM     17  H   UNL     1       2.029   2.600  18.229  0.00  0.00    +0.000 HD
ENDBRANCH  15  16
ENDBRANCH  13  15
ENDBRANCH  12  13
ENDBRANCH  11  12
ENDBRANCH   7  11
ENDBRANCH   1   8
BRANCH   6  18
ATOM     18  N   UNL     1       6.937   7.257  16.689  0.00  0.00    +0.000 N 
ATOM     19  C   UNL     1       7.670   7.559  17.821  0.00  0.00    +0.000 C 
ATOM     20  O   UNL     1       8.082   6.751  18.645  0.00  0.00    +0.000 OA
ATOM     21  H   UNL     1       6.911   7.952  15.953  0.00  0.00    +0.000 HD
BRANCH  19  22
ATOM     22  C   UNL     1       7.965   9.008  17.991  0.00  0.00    +0.000 C 
ATOM     23  C   UNL     1       8.993   9.328  18.798  0.00  0.00    +0.000 C 
BRANCH  23  24
ATOM     24  C   UNL     1       9.440  10.674  19.176  0.00  0.00    +0.000 A 
ATOM     25  C   UNL     1       9.499  10.992  20.543  0.00  0.00    +0.000 A 
ATOM     26  C   UNL     1       9.980  12.230  20.971  0.00  0.00    +0.000 A 
ATOM     27  C   UNL     1      10.417  13.163  20.035  0.00  0.00    +0.000 A 
ATOM     28  C   UNL     1      10.368  12.858  18.676  0.00  0.00    +0.000 A 
ATOM     29  C   UNL     1       9.883  11.619  18.246  0.00  0.00    +0.000 A 
ENDBRANCH  23  24
ENDBRANCH  19  22
ENDBRANCH   6  18
TORSDOF 9
ENDMDL
