MODEL 1
REMARK VINA RESULT:      -5.3      0.000      0.000
REMARK  Name = 
REMARK  16 active torsions:
REMARK  status: ('A' for Active; 'I' for Inactive)
REMARK    1  A    between atoms: C_1  and  C_2
REMARK    2  A    between atoms: C_2  and  C_3
REMARK    3  A    between atoms: C_3  and  C_4
REMARK    4  A    between atoms: C_4  and  C_5
REMARK    5  A    between atoms: C_5  and  C_6
REMARK    6  A    between atoms: C_6  and  C_7
REMARK    7  A    between atoms: C_7  and  C_8
REMARK    8  A    between atoms: C_8  and  C_9
REMARK    9  A    between atoms: C_9  and  C_10
REMARK   10  A    between atoms: C_10  and  C_11
REMARK   11  A    between atoms: C_11  and  C_12
REMARK   12  A    between atoms: N_14  and  C_15
REMARK   13  A    between atoms: C_15  and  C_16
REMARK   14  A    between atoms: C_16  and  C_17
REMARK   15  A    between atoms: C_17  and  C_18
REMARK   16  A    between atoms: C_18  and  O_20
REMARK                            x       y       z     vdW  Elec       q    Type
REMARK                         _______ _______ _______ _____ _____    ______ ____
ROOT
ATOM      1  C   UNL     1       2.272   6.864  18.966  0.00  0.00    +0.000 C 
ENDROOT
BRANCH   1   2
ATOM      2  C   UNL     1       3.258   7.362  17.930  0.00  0.00    +0.000 C 
ATOM      3  O   UNL     1       3.084   8.399  17.296  0.00  0.00    +0.000 OA
ATOM      4  N   UNL     1       4.387   6.592  17.761  0.00  0.00    +0.000 N 
ATOM      5  H   UNL     1       4.509   5.751  18.311  0.00  0.00    +0.000 HD
BRANCH   4   6
ATOM      6  C   UNL     1       5.396   6.954  16.780  0.00  0.00    +0.000 C 
BRANCH   6   7
ATOM      7  C   UNL     1       5.152   6.303  15.419  0.00  0.00    +0.000 C 
BRANCH   7   8
ATOM      8  C   UNL     1       5.702   4.885  15.344  0.00  0.00    +0.000 C 
BRANCH   8   9
ATOM      9  C   UNL     1       7.201   4.860  15.508  0.00  0.00    +0.000 C 
ATOM     10  O   UNL     1       7.766   4.362  16.467  0.00  0.00    +0.000 OA
BRANCH   9  11
ATOM     11  O   UNL     1       7.877   5.477  14.513  0.00  0.00    +0.000 OA
ATOM     12  H   UNL     1       7.378   6.165  14.037  0.00  0.00    +0.000 HD
ENDBRANCH   9  11
ENDBRANCH   8   9
ENDBRANCH   7   8
ENDBRANCH   6   7
ENDBRANCH   4   6
ENDBRANCH   1   2
BRANCH   1  13
ATOM     13  C   UNL     1       2.967   5.921  19.940  0.00  0.00    +0.000 C 
BRANCH  13  14
ATOM     14  C   UNL     1       1.995   5.269  20.919  0.00  0.00    +0.000 C 
BRANCH  14  15
ATOM     15  C   UNL     1       0.958   4.437  20.170  0.00  0.00    +0.000 C 
BRANCH  15  16
ATOM     16  C   UNL     1       1.069   2.972  20.565  0.00  0.00    +0.000 C 
BRANCH  16  17
ATOM     17  C   UNL     1       0.782   2.078  19.370  0.00  0.00    +0.000 C 
BRANCH  17  18
ATOM     18  C   UNL     1       1.507   2.601  18.139  0.00  0.00    +0.000 C 
BRANCH  18  19
ATOM     19  C   UNL     1       2.904   2.003  18.056  0.00  0.00    +0.000 C 
BRANCH  19  20
ATOM     20  C   UNL     1       3.927   3.094  17.780  0.00  0.00    +0.000 C 
BRANCH  20  22
ATOM     21  C   UNL     1       4.508   2.284  20.069  0.00  0.00    +0.000 C 
ATOM     22  C   UNL     1       4.896   3.227  18.947  0.00  0.00    +0.000 C 
ENDBRANCH  20  22
ENDBRANCH  19  20
ENDBRANCH  18  19
ENDBRANCH  17  18
ENDBRANCH  16  17
ENDBRANCH  15  16
ENDBRANCH  14  15
ENDBRANCH  13  14
ENDBRANCH   1  13
TORSDOF 15
ENDMDL
MODEL 2
REMARK VINA RESULT:      -5.2      4.116      5.334
REMARK  Name = 
REMARK  16 active torsions:
REMARK  status: ('A' for Active; 'I' for Inactive)
REMARK    1  A    between atoms: C_1  and  C_2
REMARK    2  A    between atoms: C_2  and  C_3
REMARK    3  A    between atoms: C_3  and  C_4
REMARK    4  A    between atoms: C_4  and  C_5
REMARK    5  A    between atoms: C_5  and  C_6
REMARK    6  A    between atoms: C_6  and  C_7
REMARK    7  A    between atoms: C_7  and  C_8
REMARK    8  A    between atoms: C_8  and  C_9
REMARK    9  A    between atoms: C_9  and  C_10
REMARK   10  A    between atoms: C_10  and  C_11
REMARK   11  A    between atoms: C_11  and  C_12
REMARK   12  A    between atoms: N_14  and  C_15
REMARK   13  A    between atoms: C_15  and  C_16
REMARK   14  A    between atoms: C_16  and  C_17
REMARK   15  A    between atoms: C_17  and  C_18
REMARK   16  A    between atoms: C_18  and  O_20
REMARK                            x       y       z     vdW  Elec       q    Type
REMARK                         _______ _______ _______ _____ _____    ______ ____
ROOT
ATOM      1  C   UNL     1       7.628   5.751  18.519  0.00  0.00    +0.000 C 
ENDROOT
BRANCH   1   2
ATOM      2  C   UNL     1       7.619   7.144  17.924  0.00  0.00    +0.000 C 
ATOM      3  O   UNL     1       6.974   7.429  16.918  0.00  0.00    +0.000 OA
ATOM      4  N   UNL     1       8.360   8.088  18.599  0.00  0.00    +0.000 N 
ATOM      5  H   UNL     1       8.867   7.824  19.435  0.00  0.00    +0.000 HD
BRANCH   4   6
ATOM      6  C   UNL     1       8.448   9.454  18.113  0.00  0.00    +0.000 C 
BRANCH   6   7
ATOM      7  C   UNL     1       9.479  10.283  18.877  0.00  0.00    +0.000 C 
BRANCH   7   8
ATOM      8  C   UNL     1       9.346  11.776  18.603  0.00  0.00    +0.000 C 
BRANCH   8   9
ATOM      9  C   UNL     1      10.469  12.285  17.736  0.00  0.00    +0.000 C 
ATOM     10  O   UNL     1      10.518  13.421  17.295  0.00  0.00    +0.000 OA
BRANCH   9  11
ATOM     11  O   UNL     1      11.411  11.359  17.449  0.00  0.00    +0.000 OA
ATOM     12  H   UNL     1      11.113  10.628  16.878  0.00  0.00    +0.000 HD
ENDBRANCH   9  11
ENDBRANCH   8   9
ENDBRANCH   7   8
ENDBRANCH   6   7
ENDBRANCH   4   6
ENDBRANCH   1   2
BRANCH   1  13
ATOM     13  C   UNL     1       6.211   5.332  18.889  0.00  0.00    +0.000 C 
BRANCH  13  14
ATOM     14  C   UNL     1       5.555   4.472  17.812  0.00  0.00    +0.000 C 
BRANCH  14  15
ATOM     15  C   UNL     1       4.454   3.605  18.417  0.00  0.00    +0.000 C 
BRANCH  15  16
ATOM     16  C   UNL     1       3.423   3.244  17.358  0.00  0.00    +0.000 C 
BRANCH  16  17
ATOM     17  C   UNL     1       2.074   2.976  18.004  0.00  0.00    +0.000 C 
BRANCH  17  18
ATOM     18  C   UNL     1       2.251   2.134  19.258  0.00  0.00    +0.000 C 
BRANCH  18  19
ATOM     19  C   UNL     1       1.413   2.700  20.395  0.00  0.00    +0.000 C 
BRANCH  19  20
ATOM     20  C   UNL     1       1.008   4.133  20.086  0.00  0.00    +0.000 C 
BRANCH  20  22
ATOM     21  C   UNL     1       2.303   6.258  19.881  0.00  0.00    +0.000 C 
ATOM     22  C   UNL     1       1.924   5.115  20.804  0.00  0.00    +0.000 C 
ENDBRANCH  20  22
ENDBRANCH  19  20
ENDBRANCH  18  19
ENDBRANCH  17  18
ENDBRANCH  16  17
ENDBRANCH  15  16
ENDBRANCH  14  15
ENDBRANCH  13  14
ENDBRANCH   1  13
TORSDOF 15
ENDMDL
MODEL 3
REMARK VINA RESULT:      -5.1      3.349      6.591
REMARK  Name = 
REMARK  16 active torsions:
REMARK  status: ('A' for Active; 'I' for Inactive)
REMARK    1  A    between atoms: C_1  and  C_2
REMARK    2  A    between atoms: C_2  and  C_3
REMARK    3  A    between atoms: C_3  and  C_4
REMARK    4  A    between atoms: C_4  and  C_5
REMARK    5  A    between atoms: C_5  and  C_6
REMARK    6  A    between atoms: C_6  and  C_7
REMARK    7  A    between atoms: C_7  and  C_8
REMARK    8  A    between atoms: C_8  and  C_9
REMARK    9  A    between atoms: C_9  and  C_10
REMARK   10  A    between atoms: C_10  and  C_11
REMARK   11  A    between atoms: C_11  and  C_12
REMARK   12  A    between atoms: N_14  and  C_15
REMARK   13  A    between atoms: C_15  and  C_16
REMARK   14  A    between atoms: C_16  and  C_17
REMARK   15  A    between atoms: C_17  and  C_18
REMARK   16  A    between atoms: C_18  and  O_20
REMARK                            x       y       z     vdW  Elec       q    Type
REMARK                         _______ _______ _______ _____ _____    ______ ____
ROOT
ATOM      1  C   UNL     1       4.905   5.341  18.813  0.00  0.00    +0.000 C 
ENDROOT
BRANCH   1   2
ATOM      2  C   UNL     1       3.925   4.247  18.443  0.00  0.00    +0.000 C 
ATOM      3  O   UNL     1       4.287   3.130  18.082  0.00  0.00    +0.000 OA
ATOM      4  N   UNL     1       2.593   4.571  18.564  0.00  0.00    +0.000 N 
ATOM      5  H   UNL     1       2.328   5.496  18.879  0.00  0.00    +0.000 HD
BRANCH   4   6
ATOM      6  C   UNL     1       1.558   3.613  18.216  0.00  0.00    +0.000 C 
BRANCH   6   7
ATOM      7  C   UNL     1       0.743   3.163  19.429  0.00  0.00    +0.000 C 
BRANCH   7   8
ATOM      8  C   UNL     1       1.194   3.839  20.717  0.00  0.00    +0.000 C 
BRANCH   8   9
ATOM      9  C   UNL     1       1.811   2.854  21.676  0.00  0.00    +0.000 C 
ATOM     10  O   UNL     1       1.177   2.258  22.532  0.00  0.00    +0.000 OA
BRANCH   9  11
ATOM     11  O   UNL     1       3.148   2.709  21.539  0.00  0.00    +0.000 OA
ATOM     12  H   UNL     1       3.495   1.826  21.762  0.00  0.00    +0.000 HD
ENDBRANCH   9  11
ENDBRANCH   8   9
ENDBRANCH   7   8
ENDBRANCH   6   7
ENDBRANCH   4   6
ENDBRANCH   1   2
BRANCH   1  13
ATOM     13  C   UNL     1       5.074   6.307  17.647  0.00  0.00    +0.000 C 
BRANCH  13  14
ATOM     14  C   UNL     1       6.497   6.846  17.535  0.00  0.00    +0.000 C 
BRANCH  14  15
ATOM     15  C   UNL     1       7.511   5.724  17.739  0.00  0.00    +0.000 C 
BRANCH  15  16
ATOM     16  C   UNL     1       7.172   4.535  16.852  0.00  0.00    +0.000 C 
BRANCH  16  17
ATOM     17  C   UNL     1       6.904   4.996  15.429  0.00  0.00    +0.000 C 
BRANCH  17  18
ATOM     18  C   UNL     1       6.236   3.884  14.634  0.00  0.00    +0.000 C 
BRANCH  18  19
ATOM     19  C   UNL     1       5.899   4.368  13.232  0.00  0.00    +0.000 C 
BRANCH  19  20
ATOM     20  C   UNL     1       6.479   3.418  12.195  0.00  0.00    +0.000 C 
BRANCH  20  22
ATOM     21  C   UNL     1       4.136   3.255  11.347  0.00  0.00    +0.000 C 
ATOM     22  C   UNL     1       5.402   2.482  11.664  0.00  0.00    +0.000 C 
ENDBRANCH  20  22
ENDBRANCH  19  20
ENDBRANCH  18  19
ENDBRANCH  17  18
ENDBRANCH  16  17
ENDBRANCH  15  16
ENDBRANCH  14  15
ENDBRANCH  13  14
ENDBRANCH   1  13
TORSDOF 15
ENDMDL
MODEL 4
REMARK VINA RESULT:      -5.1      2.443      3.913
REMARK  Name = 
REMARK  16 active torsions:
REMARK  status: ('A' for Active; 'I' for Inactive)
REMARK    1  A    between atoms: C_1  and  C_2
REMARK    2  A    between atoms: C_2  and  C_3
REMARK    3  A    between atoms: C_3  and  C_4
REMARK    4  A    between atoms: C_4  and  C_5
REMARK    5  A    between atoms: C_5  and  C_6
REMARK    6  A    between atoms: C_6  and  C_7
REMARK    7  A    between atoms: C_7  and  C_8
REMARK    8  A    between atoms: C_8  and  C_9
REMARK    9  A    between atoms: C_9  and  C_10
REMARK   10  A    between atoms: C_10  and  C_11
REMARK   11  A    between atoms: C_11  and  C_12
REMARK   12  A    between atoms: N_14  and  C_15
REMARK   13  A    between atoms: C_15  and  C_16
REMARK   14  A    between atoms: C_16  and  C_17
REMARK   15  A    between atoms: C_17  and  C_18
REMARK   16  A    between atoms: C_18  and  O_20
REMARK                            x       y       z     vdW  Elec       q    Type
REMARK                         _______ _______ _______ _____ _____    ______ ____
ROOT
ATOM      1  C   UNL     1       6.420   5.276  17.679  0.00  0.00    +0.000 C 
ENDROOT
BRANCH   1   2
ATOM      2  C   UNL     1       7.122   5.776  16.433  0.00  0.00    +0.000 C 
ATOM      3  O   UNL     1       7.737   6.839  16.403  0.00  0.00    +0.000 OA
ATOM      4  N   UNL     1       7.054   4.949  15.335  0.00  0.00    +0.000 N 
ATOM      5  H   UNL     1       6.553   4.071  15.399  0.00  0.00    +0.000 HD
BRANCH   4   6
ATOM      6  C   UNL     1       7.668   5.330  14.075  0.00  0.00    +0.000 C 
BRANCH   6   7
ATOM      7  C   UNL     1       7.115   4.540  12.890  0.00  0.00    +0.000 C 
BRANCH   7   8
ATOM      8  C   UNL     1       5.930   3.663  13.275  0.00  0.00    +0.000 C 
BRANCH   8   9
ATOM      9  C   UNL     1       5.330   2.979  12.073  0.00  0.00    +0.000 C 
ATOM     10  O   UNL     1       4.346   3.393  11.484  0.00  0.00    +0.000 OA
BRANCH   9  11
ATOM     11  O   UNL     1       5.954   1.833  11.719  0.00  0.00    +0.000 OA
ATOM     12  H   UNL     1       5.445   1.017  11.877  0.00  0.00    +0.000 HD
ENDBRANCH   9  11
ENDBRANCH   8   9
ENDBRANCH   7   8
ENDBRANCH   6   7
ENDBRANCH   4   6
ENDBRANCH   1   2
BRANCH   1  13
ATOM     13  C   UNL     1       5.135   6.062  17.906  0.00  0.00    +0.000 C 
BRANCH  13  14
ATOM     14  C   UNL     1       3.896   5.170  17.907  0.00  0.00    +0.000 C 
BRANCH  14  15
ATOM     15  C   UNL     1       4.266   3.740  17.522  0.00  0.00    +0.000 C 
BRANCH  15  16
ATOM     16  C   UNL     1       4.263   2.843  18.750  0.00  0.00    +0.000 C 
BRANCH  16  17
ATOM     17  C   UNL     1       3.368   1.636  18.521  0.00  0.00    +0.000 C 
BRANCH  17  18
ATOM     18  C   UNL     1       2.058   2.069  17.882  0.00  0.00    +0.000 C 
BRANCH  18  19
ATOM     19  C   UNL     1       0.947   2.091  18.920  0.00  0.00    +0.000 C 
BRANCH  19  20
ATOM     20  C   UNL     1       0.768   3.499  19.469  0.00  0.00    +0.000 C 
BRANCH  20  22
ATOM     21  C   UNL     1       2.188   4.757  21.093  0.00  0.00    +0.000 C 
ATOM     22  C   UNL     1       1.252   3.577  20.911  0.00  0.00    +0.000 C 
ENDBRANCH  20  22
ENDBRANCH  19  20
ENDBRANCH  18  19
ENDBRANCH  17  18
ENDBRANCH  16  17
ENDBRANCH  15  16
ENDBRANCH  14  15
ENDBRANCH  13  14
ENDBRANCH   1  13
TORSDOF 15
ENDMDL
MODEL 5
REMARK VINA RESULT:      -5.0      2.929      5.864
REMARK  Name = 
REMARK  16 active torsions:
REMARK  status: ('A' for Active; 'I' for Inactive)
REMARK    1  A    between atoms: C_1  and  C_2
REMARK    2  A    between atoms: C_2  and  C_3
REMARK    3  A    between atoms: C_3  and  C_4
REMARK    4  A    between atoms: C_4  and  C_5
REMARK    5  A    between atoms: C_5  and  C_6
REMARK    6  A    between atoms: C_6  and  C_7
REMARK    7  A    between atoms: C_7  and  C_8
REMARK    8  A    between atoms: C_8  and  C_9
REMARK    9  A    between atoms: C_9  and  C_10
REMARK   10  A    between atoms: C_10  and  C_11
REMARK   11  A    between atoms: C_11  and  C_12
REMARK   12  A    between atoms: N_14  and  C_15
REMARK   13  A    between atoms: C_15  and  C_16
REMARK   14  A    between atoms: C_16  and  C_17
REMARK   15  A    between atoms: C_17  and  C_18
REMARK   16  A    between atoms: C_18  and  O_20
REMARK                            x       y       z     vdW  Elec       q    Type
REMARK                         _______ _______ _______ _____ _____    ______ ____
ROOT
ATOM      1  C   UNL     1       3.453   5.740  17.631  0.00  0.00    +0.000 C 
ENDROOT
BRANCH   1   2
ATOM      2  C   UNL     1       2.261   5.097  18.308  0.00  0.00    +0.000 C 
ATOM      3  O   UNL     1       1.356   4.555  17.678  0.00  0.00    +0.000 OA
ATOM      4  N   UNL     1       2.265   5.129  19.684  0.00  0.00    +0.000 N 
ATOM      5  H   UNL     1       3.034   5.569  20.174  0.00  0.00    +0.000 HD
BRANCH   4   6
ATOM      6  C   UNL     1       1.165   4.565  20.446  0.00  0.00    +0.000 C 
BRANCH   6   7
ATOM      7  C   UNL     1       1.353   3.077  20.736  0.00  0.00    +0.000 C 
BRANCH   7   8
ATOM      8  C   UNL     1       2.756   2.590  20.398  0.00  0.00    +0.000 C 
BRANCH   8   9
ATOM      9  C   UNL     1       2.775   1.789  19.121  0.00  0.00    +0.000 C 
ATOM     10  O   UNL     1       3.798   1.385  18.594  0.00  0.00    +0.000 OA
BRANCH   9  11
ATOM     11  O   UNL     1       1.554   1.585  18.577  0.00  0.00    +0.000 OA
ATOM     12  H   UNL     1       0.866   1.289  19.200  0.00  0.00    +0.000 HD
ENDBRANCH   9  11
ENDBRANCH   8   9
ENDBRANCH   7   8
ENDBRANCH   6   7
ENDBRANCH   4   6
ENDBRANCH   1   2
BRANCH   1  13
ATOM     13  C   UNL     1       4.509   6.104  18.667  0.00  0.00    +0.000 C 
BRANCH  13  14
ATOM     14  C   UNL     1       5.404   4.923  19.030  0.00  0.00    +0.000 C 
BRANCH  14  15
ATOM     15  C   UNL     1       6.876   5.307  18.904  0.00  0.00    +0.000 C 
BRANCH  15  16
ATOM     16  C   UNL     1       7.160   5.870  17.520  0.00  0.00    +0.000 C 
BRANCH  16  17
ATOM     17  C   UNL     1       7.256   4.746  16.502  0.00  0.00    +0.000 C 
BRANCH  17  18
ATOM     18  C   UNL     1       7.009   5.284  15.101  0.00  0.00    +0.000 C 
BRANCH  18  19
ATOM     19  C   UNL     1       5.678   4.777  14.569  0.00  0.00    +0.000 C 
BRANCH  19  20
ATOM     20  C   UNL     1       5.848   3.396  13.955  0.00  0.00    +0.000 C 
BRANCH  20  22
ATOM     21  C   UNL     1       4.771   3.341  11.703  0.00  0.00    +0.000 C 
ATOM     22  C   UNL     1       6.079   3.501  12.454  0.00  0.00    +0.000 C 
ENDBRANCH  20  22
ENDBRANCH  19  20
ENDBRANCH  18  19
ENDBRANCH  17  18
ENDBRANCH  16  17
ENDBRANCH  15  16
ENDBRANCH  14  15
ENDBRANCH  13  14
ENDBRANCH   1  13
TORSDOF 15
ENDMDL
MODEL 6
REMARK VINA RESULT:      -5.0      2.320      3.245
REMARK  Name = 
REMARK  16 active torsions:
REMARK  status: ('A' for Active; 'I' for Inactive)
REMARK    1  A    between atoms: C_1  and  C_2
REMARK    2  A    between atoms: C_2  and  C_3
REMARK    3  A    between atoms: C_3  and  C_4
REMARK    4  A    between atoms: C_4  and  C_5
REMARK    5  A    between atoms: C_5  and  C_6
REMARK    6  A    between atoms: C_6  and  C_7
REMARK    7  A    between atoms: C_7  and  C_8
REMARK    8  A    between atoms: C_8  and  C_9
REMARK    9  A    between atoms: C_9  and  C_10
REMARK   10  A    between atoms: C_10  and  C_11
REMARK   11  A    between atoms: C_11  and  C_12
REMARK   12  A    between atoms: N_14  and  C_15
REMARK   13  A    between atoms: C_15  and  C_16
REMARK   14  A    between atoms: C_16  and  C_17
REMARK   15  A    between atoms: C_17  and  C_18
REMARK   16  A    between atoms: C_18  and  O_20
REMARK                            x       y       z     vdW  Elec       q    Type
REMARK                         _______ _______ _______ _____ _____    ______ ____
ROOT
ATOM      1  C   UNL     1       5.841   6.294  18.334  0.00  0.00    +0.000 C 
ENDROOT
BRANCH   1   2
ATOM      2  C   UNL     1       5.977   6.074  16.842  0.00  0.00    +0.000 C 
ATOM      3  O   UNL     1       5.364   6.746  16.016  0.00  0.00    +0.000 OA
ATOM      4  N   UNL     1       6.859   5.088  16.460  0.00  0.00    +0.000 N 
ATOM      5  H   UNL     1       7.362   4.564  17.165  0.00  0.00    +0.000 HD
BRANCH   4   6
ATOM      6  C   UNL     1       7.058   4.769  15.057  0.00  0.00    +0.000 C 
BRANCH   6   7
ATOM      7  C   UNL     1       6.107   3.681  14.562  0.00  0.00    +0.000 C 
BRANCH   7   8
ATOM      8  C   UNL     1       5.345   4.097  13.310  0.00  0.00    +0.000 C 
BRANCH   8   9
ATOM      9  C   UNL     1       5.664   3.200  12.141  0.00  0.00    +0.000 C 
ATOM     10  O   UNL     1       6.798   2.877  11.829  0.00  0.00    +0.000 OA
BRANCH   9  11
ATOM     11  O   UNL     1       4.581   2.810  11.431  0.00  0.00    +0.000 OA
ATOM     12  H   UNL     1       4.688   1.977  10.937  0.00  0.00    +0.000 HD
ENDBRANCH   9  11
ENDBRANCH   8   9
ENDBRANCH   7   8
ENDBRANCH   6   7
ENDBRANCH   4   6
ENDBRANCH   1   2
BRANCH   1  13
ATOM     13  C   UNL     1       4.770   5.372  18.903  0.00  0.00    +0.000 C 
BRANCH  13  14
ATOM     14  C   UNL     1       3.426   6.074  19.075  0.00  0.00    +0.000 C 
BRANCH  14  15
ATOM     15  C   UNL     1       2.509   5.774  17.893  0.00  0.00    +0.000 C 
BRANCH  15  16
ATOM     16  C   UNL     1       1.914   4.380  18.025  0.00  0.00    +0.000 C 
BRANCH  16  17
ATOM     17  C   UNL     1       2.601   3.419  17.069  0.00  0.00    +0.000 C 
BRANCH  17  18
ATOM     18  C   UNL     1       3.365   2.359  17.849  0.00  0.00    +0.000 C 
BRANCH  18  19
ATOM     19  C   UNL     1       2.616   2.002  19.124  0.00  0.00    +0.000 C 
BRANCH  19  20
ATOM     20  C   UNL     1       3.472   2.316  20.342  0.00  0.00    +0.000 C 
BRANCH  20  22
ATOM     21  C   UNL     1       1.296   2.690  21.508  0.00  0.00    +0.000 C 
ATOM     22  C   UNL     1       2.711   3.202  21.318  0.00  0.00    +0.000 C 
ENDBRANCH  20  22
ENDBRANCH  19  20
ENDBRANCH  18  19
ENDBRANCH  17  18
ENDBRANCH  16  17
ENDBRANCH  15  16
ENDBRANCH  14  15
ENDBRANCH  13  14
ENDBRANCH   1  13
TORSDOF 15
ENDMDL
MODEL 7
REMARK VINA RESULT:      -4.9      3.399      6.352
REMARK  Name = 
REMARK  16 active torsions:
REMARK  status: ('A' for Active; 'I' for Inactive)
REMARK    1  A    between atoms: C_1  and  C_2
REMARK    2  A    between atoms: C_2  and  C_3
REMARK    3  A    between atoms: C_3  and  C_4
REMARK    4  A    between atoms: C_4  and  C_5
REMARK    5  A    between atoms: C_5  and  C_6
REMARK    6  A    between atoms: C_6  and  C_7
REMARK    7  A    between atoms: C_7  and  C_8
REMARK    8  A    between atoms: C_8  and  C_9
REMARK    9  A    between atoms: C_9  and  C_10
REMARK   10  A    between atoms: C_10  and  C_11
REMARK   11  A    between atoms: C_11  and  C_12
REMARK   12  A    between atoms: N_14  and  C_15
REMARK   13  A    between atoms: C_15  and  C_16
REMARK   14  A    between atoms: C_16  and  C_17
REMARK   15  A    between atoms: C_17  and  C_18
REMARK   16  A    between atoms: C_18  and  O_20
REMARK                            x       y       z     vdW  Elec       q    Type
REMARK                         _______ _______ _______ _____ _____    ______ ____
ROOT
ATOM      1  C   UNL     1       2.195   7.382  17.873  0.00  0.00    +0.000 C 
ENDROOT
BRANCH   1   2
ATOM      2  C   UNL     1       1.888   8.827  18.209  0.00  0.00    +0.000 C 
ATOM      3  O   UNL     1       2.186   9.757  17.463  0.00  0.00    +0.000 OA
ATOM      4  N   UNL     1       1.223   9.036  19.396  0.00  0.00    +0.000 N 
ATOM      5  H   UNL     1       0.977   8.247  19.980  0.00  0.00    +0.000 HD
BRANCH   4   6
ATOM      6  C   UNL     1       0.894  10.380  19.839  0.00  0.00    +0.000 C 
BRANCH   6   7
ATOM      7  C   UNL     1      -0.612  10.641  19.851  0.00  0.00    +0.000 C 
BRANCH   7   8
ATOM      8  C   UNL     1      -1.230  10.560  18.461  0.00  0.00    +0.000 C 
BRANCH   8   9
ATOM      9  C   UNL     1      -1.601  11.924  17.937  0.00  0.00    +0.000 C 
ATOM     10  O   UNL     1      -0.885  12.905  18.045  0.00  0.00    +0.000 OA
BRANCH   9  11
ATOM     11  O   UNL     1      -2.826  11.984  17.367  0.00  0.00    +0.000 OA
ATOM     12  H   UNL     1      -3.547  12.260  17.961  0.00  0.00    +0.000 HD
ENDBRANCH   9  11
ENDBRANCH   8   9
ENDBRANCH   7   8
ENDBRANCH   6   7
ENDBRANCH   4   6
ENDBRANCH   1   2
BRANCH   1  13
ATOM     13  C   UNL     1       3.695   7.199  17.677  0.00  0.00    +0.000 C 
BRANCH  13  14
ATOM     14  C   UNL     1       4.175   5.815  18.107  0.00  0.00    +0.000 C 
BRANCH  14  15
ATOM     15  C   UNL     1       4.570   4.984  16.890  0.00  0.00    +0.000 C 
BRANCH  15  16
ATOM     16  C   UNL     1       3.957   3.594  16.976  0.00  0.00    +0.000 C 
BRANCH  16  17
ATOM     17  C   UNL     1       2.502   3.684  17.405  0.00  0.00    +0.000 C 
BRANCH  17  18
ATOM     18  C   UNL     1       2.186   2.593  18.417  0.00  0.00    +0.000 C 
BRANCH  18  19
ATOM     19  C   UNL     1       0.949   2.964  19.222  0.00  0.00    +0.000 C 
BRANCH  19  20
ATOM     20  C   UNL     1       1.265   2.947  20.710  0.00  0.00    +0.000 C 
BRANCH  20  22
ATOM     21  C   UNL     1       1.640   5.414  20.780  0.00  0.00    +0.000 C 
ATOM     22  C   UNL     1       2.250   4.054  21.061  0.00  0.00    +0.000 C 
ENDBRANCH  20  22
ENDBRANCH  19  20
ENDBRANCH  18  19
ENDBRANCH  17  18
ENDBRANCH  16  17
ENDBRANCH  15  16
ENDBRANCH  14  15
ENDBRANCH  13  14
ENDBRANCH   1  13
TORSDOF 15
ENDMDL
MODEL 8
REMARK VINA RESULT:      -4.9      2.527      4.272
REMARK  Name = 
REMARK  16 active torsions:
REMARK  status: ('A' for Active; 'I' for Inactive)
REMARK    1  A    between atoms: C_1  and  C_2
REMARK    2  A    between atoms: C_2  and  C_3
REMARK    3  A    between atoms: C_3  and  C_4
REMARK    4  A    between atoms: C_4  and  C_5
REMARK    5  A    between atoms: C_5  and  C_6
REMARK    6  A    between atoms: C_6  and  C_7
REMARK    7  A    between atoms: C_7  and  C_8
REMARK    8  A    between atoms: C_8  and  C_9
REMARK    9  A    between atoms: C_9  and  C_10
REMARK   10  A    between atoms: C_10  and  C_11
REMARK   11  A    between atoms: C_11  and  C_12
REMARK   12  A    between atoms: N_14  and  C_15
REMARK   13  A    between atoms: C_15  and  C_16
REMARK   14  A    between atoms: C_16  and  C_17
REMARK   15  A    between atoms: C_17  and  C_18
REMARK   16  A    between atoms: C_18  and  O_20
REMARK                            x       y       z     vdW  Elec       q    Type
REMARK                         _______ _______ _______ _____ _____    ______ ____
ROOT
ATOM      1  C   UNL     1       5.799   5.203  17.243  0.00  0.00    +0.000 C 
ENDROOT
BRANCH   1   2
ATOM      2  C   UNL     1       6.843   4.981  16.168  0.00  0.00    +0.000 C 
ATOM      3  O   UNL     1       7.933   4.466  16.402  0.00  0.00    +0.000 OA
ATOM      4  N   UNL     1       6.484   5.367  14.896  0.00  0.00    +0.000 N 
ATOM      5  H   UNL     1       5.571   5.774  14.734  0.00  0.00    +0.000 HD
BRANCH   4   6
ATOM      6  C   UNL     1       7.409   5.226  13.785  0.00  0.00    +0.000 C 
BRANCH   6   7
ATOM      7  C   UNL     1       7.002   4.113  12.821  0.00  0.00    +0.000 C 
BRANCH   7   8
ATOM      8  C   UNL     1       5.553   3.682  13.005  0.00  0.00    +0.000 C 
BRANCH   8   9
ATOM      9  C   UNL     1       5.060   2.870  11.834  0.00  0.00    +0.000 C 
ATOM     10  O   UNL     1       4.107   3.192  11.144  0.00  0.00    +0.000 OA
BRANCH   9  11
ATOM     11  O   UNL     1       5.743   1.721  11.630  0.00  0.00    +0.000 OA
ATOM     12  H   UNL     1       6.274   1.694  10.812  0.00  0.00    +0.000 HD
ENDBRANCH   9  11
ENDBRANCH   8   9
ENDBRANCH   7   8
ENDBRANCH   6   7
ENDBRANCH   4   6
ENDBRANCH   1   2
BRANCH   1  13
ATOM     13  C   UNL     1       4.949   3.950  17.412  0.00  0.00    +0.000 C 
BRANCH  13  14
ATOM     14  C   UNL     1       3.609   4.050  16.688  0.00  0.00    +0.000 C 
BRANCH  14  15
ATOM     15  C   UNL     1       2.470   4.211  17.691  0.00  0.00    +0.000 C 
BRANCH  15  16
ATOM     16  C   UNL     1       2.279   5.678  18.044  0.00  0.00    +0.000 C 
BRANCH  16  17
ATOM     17  C   UNL     1       2.836   5.965  19.428  0.00  0.00    +0.000 C 
BRANCH  17  18
ATOM     18  C   UNL     1       1.718   5.941  20.459  0.00  0.00    +0.000 C 
BRANCH  18  19
ATOM     19  C   UNL     1       1.244   4.514  20.690  0.00  0.00    +0.000 C 
BRANCH  19  20
ATOM     20  C   UNL     1       2.207   3.784  21.614  0.00  0.00    +0.000 C 
BRANCH  20  22
ATOM     21  C   UNL     1       3.883   2.367  20.424  0.00  0.00    +0.000 C 
ATOM     22  C   UNL     1       2.514   2.393  21.077  0.00  0.00    +0.000 C 
ENDBRANCH  20  22
ENDBRANCH  19  20
ENDBRANCH  18  19
ENDBRANCH  17  18
ENDBRANCH  16  17
ENDBRANCH  15  16
ENDBRANCH  14  15
ENDBRANCH  13  14
ENDBRANCH   1  13
TORSDOF 15
ENDMDL
MODEL 9
REMARK VINA RESULT:      -4.9      2.222      4.777
REMARK  Name = 
REMARK  16 active torsions:
REMARK  status: ('A' for Active; 'I' for Inactive)
REMARK    1  A    between atoms: C_1  and  C_2
REMARK    2  A    between atoms: C_2  and  C_3
REMARK    3  A    between atoms: C_3  and  C_4
REMARK    4  A    between atoms: C_4  and  C_5
REMARK    5  A    between atoms: C_5  and  C_6
REMARK    6  A    between atoms: C_6  and  C_7
REMARK    7  A    between atoms: C_7  and  C_8
REMARK    8  A    between atoms: C_8  and  C_9
REMARK    9  A    between atoms: C_9  and  C_10
REMARK   10  A    between atoms: C_10  and  C_11
REMARK   11  A    between atoms: C_11  and  C_12
REMARK   12  A    between atoms: N_14  and  C_15
REMARK   13  A    between atoms: C_15  and  C_16
REMARK   14  A    between atoms: C_16  and  C_17
REMARK   15  A    between atoms: C_17  and  C_18
REMARK   16  A    between atoms: C_18  and  O_20
REMARK                            x       y       z     vdW  Elec       q    Type
REMARK                         _______ _______ _______ _____ _____    ______ ____
ROOT
ATOM      1  C   UNL     1       2.706   1.845  19.144  0.00  0.00    +0.000 C 
ENDROOT
BRANCH   1   2
ATOM      2  C   UNL     1       3.973   2.632  18.878  0.00  0.00    +0.000 C 
ATOM      3  O   UNL     1       4.776   2.911  19.765  0.00  0.00    +0.000 OA
ATOM      4  N   UNL     1       4.188   2.994  17.568  0.00  0.00    +0.000 N 
ATOM      5  H   UNL     1       3.514   2.734  16.858  0.00  0.00    +0.000 HD
BRANCH   4   6
ATOM      6  C   UNL     1       5.356   3.771  17.191  0.00  0.00    +0.000 C 
BRANCH   6   7
ATOM      7  C   UNL     1       5.091   4.689  15.998  0.00  0.00    +0.000 C 
BRANCH   7   8
ATOM      8  C   UNL     1       6.309   5.522  15.621  0.00  0.00    +0.000 C 
BRANCH   8   9
ATOM      9  C   UNL     1       7.041   4.937  14.440  0.00  0.00    +0.000 C 
ATOM     10  O   UNL     1       7.940   5.513  13.851  0.00  0.00    +0.000 OA
BRANCH   9  11
ATOM     11  O   UNL     1       6.588   3.722  14.055  0.00  0.00    +0.000 OA
ATOM     12  H   UNL     1       6.531   3.057  14.764  0.00  0.00    +0.000 HD
ENDBRANCH   9  11
ENDBRANCH   8   9
ENDBRANCH   7   8
ENDBRANCH   6   7
ENDBRANCH   4   6
ENDBRANCH   1   2
BRANCH   1  13
ATOM     13  C   UNL     1       1.858   2.559  20.190  0.00  0.00    +0.000 C 
BRANCH  13  14
ATOM     14  C   UNL     1       1.410   3.944  19.733  0.00  0.00    +0.000 C 
BRANCH  14  15
ATOM     15  C   UNL     1       1.812   5.001  20.759  0.00  0.00    +0.000 C 
BRANCH  15  16
ATOM     16  C   UNL     1       2.087   6.329  20.070  0.00  0.00    +0.000 C 
BRANCH  16  17
ATOM     17  C   UNL     1       2.784   6.101  18.739  0.00  0.00    +0.000 C 
BRANCH  17  18
ATOM     18  C   UNL     1       3.090   7.433  18.072  0.00  0.00    +0.000 C 
BRANCH  18  19
ATOM     19  C   UNL     1       1.800   8.177  17.763  0.00  0.00    +0.000 C 
BRANCH  19  20
ATOM     20  C   UNL     1       1.985   9.669  17.991  0.00  0.00    +0.000 C 
BRANCH  20  22
ATOM     21  C   UNL     1       0.918  11.648  19.078  0.00  0.00    +0.000 C 
ATOM     22  C   UNL     1       1.119  10.146  19.150  0.00  0.00    +0.000 C 
ENDBRANCH  20  22
ENDBRANCH  19  20
ENDBRANCH  18  19
ENDBRANCH  17  18
ENDBRANCH  16  17
ENDBRANCH  15  16
ENDBRANCH  14  15
ENDBRANCH  13  14
ENDBRANCH   1  13
TORSDOF 15
ENDMDL
