MODEL 1
REMARK VINA RESULT:      -7.5      0.000      0.000
REMARK  Name = 
REMARK  6 active torsions:
REMARK  status: ('A' for Active; 'I' for Inactive)
REMARK    1  A    between atoms: C_2  and  C_3
REMARK    2  A    between atoms: C_3  and  N_4
REMARK    3  A    between atoms: N_19  and  C_20
REMARK    4  A    between atoms: C_20  and  C_21
REMARK    5  A    between atoms: C_24  and  O_25
REMARK    6  A    between atoms: O_25  and  C_26
REMARK                            x       y       z     vdW  Elec       q    Type
REMARK                         _______ _______ _______ _____ _____    ______ ____
ROOT
ATOM      1  N   UNL     1       6.047   5.893  15.466  0.00  0.00    +0.000 NA
ATOM      2  C   UNL     1       7.244   5.507  16.250  0.00  0.00    +0.000 C 
ATOM      3  C   UNL     1       7.150   5.815  17.771  0.00  0.00    +0.000 C 
ATOM      4  C   UNL     1       5.871   5.143  18.357  0.00  0.00    +0.000 A 
ATOM      5  N   UNL     1       5.864   4.039  19.185  0.00  0.00    +0.000 N 
ATOM      6  C   UNL     1       4.566   3.603  19.407  0.00  0.00    +0.000 A 
ATOM      7  C   UNL     1       4.064   2.508  20.124  0.00  0.00    +0.000 A 
ATOM      8  C   UNL     1       2.671   2.323  20.145  0.00  0.00    +0.000 A 
ATOM      9  C   UNL     1       1.808   3.188  19.478  0.00  0.00    +0.000 A 
ATOM     10  C   UNL     1       2.319   4.265  18.763  0.00  0.00    +0.000 A 
ATOM     11  C   UNL     1       3.712   4.466  18.730  0.00  0.00    +0.000 A 
ATOM     12  C   UNL     1       4.530   5.386  18.040  0.00  0.00    +0.000 A 
ATOM     13  C   UNL     1       4.023   6.344  17.008  0.00  0.00    +0.000 C 
ATOM     14  C   UNL     1       5.212   6.927  16.226  0.00  0.00    +0.000 C 
ATOM     15  C   UNL     1       5.917   7.826  17.322  0.00  0.00    +0.000 C 
ATOM     16  N   UNL     1       7.128   7.289  17.965  0.00  0.00    +0.000 NA
ATOM     17  H   UNL     1       6.687   3.568  19.534  0.00  0.00    +0.000 HD
ENDROOT
BRANCH   1  18
ATOM     18  C   UNL     1       5.267   4.672  15.100  0.00  0.00    +0.000 C 
BRANCH  18  20
ATOM     19  C   UNL     1       6.012   3.644  12.950  0.00  0.00    +0.000 C 
ATOM     20  C   UNL     1       6.002   3.644  14.293  0.00  0.00    +0.000 C 
ENDBRANCH  18  20
ENDBRANCH   1  18
BRANCH  16  21
ATOM     21  C   UNL     1       8.308   8.023  17.448  0.00  0.00    +0.000 C 
BRANCH  21  22
ATOM     22  C   UNL     1       8.488   9.354  18.175  0.00  0.00    +0.000 A 
ATOM     23  C   UNL     1       8.272  10.558  17.496  0.00  0.00    +0.000 A 
ATOM     24  C   UNL     1       8.637  11.773  18.074  0.00  0.00    +0.000 A 
ATOM     25  C   UNL     1       9.244  11.812  19.336  0.00  0.00    +0.000 A 
ATOM     26  C   UNL     1       9.433  10.623  20.039  0.00  0.00    +0.000 A 
ATOM     27  C   UNL     1       9.037   9.405  19.470  0.00  0.00    +0.000 A 
BRANCH  25  28
ATOM     28  O   UNL     1       9.676  13.049  19.729  0.00  0.00    +0.000 OA
ATOM     29  C   UNL     1      11.082  13.226  19.840  0.00  0.00    +0.000 C 
ENDBRANCH  25  28
ENDBRANCH  21  22
ENDBRANCH  16  21
TORSDOF 5
ENDMDL
MODEL 2
REMARK VINA RESULT:      -7.4      7.110      9.846
REMARK  Name = 
REMARK  6 active torsions:
REMARK  status: ('A' for Active; 'I' for Inactive)
REMARK    1  A    between atoms: C_2  and  C_3
REMARK    2  A    between atoms: C_3  and  N_4
REMARK    3  A    between atoms: N_19  and  C_20
REMARK    4  A    between atoms: C_20  and  C_21
REMARK    5  A    between atoms: C_24  and  O_25
REMARK    6  A    between atoms: O_25  and  C_26
REMARK                            x       y       z     vdW  Elec       q    Type
REMARK                         _______ _______ _______ _____ _____    ______ ____
ROOT
ATOM      1  N   UNL     1       1.297  11.887  19.428  0.00  0.00    +0.000 NA
ATOM      2  C   UNL     1       1.602  10.920  18.347  0.00  0.00    +0.000 C 
ATOM      3  C   UNL     1       0.640   9.701  18.276  0.00  0.00    +0.000 C 
ATOM      4  C   UNL     1      -0.829  10.208  18.159  0.00  0.00    +0.000 A 
ATOM      5  N   UNL     1      -1.606  10.132  17.020  0.00  0.00    +0.000 N 
ATOM      6  C   UNL     1      -2.807  10.802  17.203  0.00  0.00    +0.000 A 
ATOM      7  C   UNL     1      -3.878  11.042  16.331  0.00  0.00    +0.000 A 
ATOM      8  C   UNL     1      -4.966  11.785  16.820  0.00  0.00    +0.000 A 
ATOM      9  C   UNL     1      -4.991  12.275  18.124  0.00  0.00    +0.000 A 
ATOM     10  C   UNL     1      -3.918  12.038  18.975  0.00  0.00    +0.000 A 
ATOM     11  C   UNL     1      -2.819  11.297  18.502  0.00  0.00    +0.000 A 
ATOM     12  C   UNL     1      -1.570  10.969  19.071  0.00  0.00    +0.000 A 
ATOM     13  C   UNL     1      -1.078  11.512  20.376  0.00  0.00    +0.000 C 
ATOM     14  C   UNL     1       0.429  11.234  20.508  0.00  0.00    +0.000 C 
ATOM     15  C   UNL     1       0.461   9.660  20.670  0.00  0.00    +0.000 C 
ATOM     16  N   UNL     1       0.833   8.863  19.489  0.00  0.00    +0.000 NA
ATOM     17  H   UNL     1      -1.323   9.706  16.150  0.00  0.00    +0.000 HD
ENDROOT
BRANCH   1  18
ATOM     18  C   UNL     1       0.675  13.115  18.848  0.00  0.00    +0.000 C 
BRANCH  18  20
ATOM     19  C   UNL     1       2.422  14.882  19.107  0.00  0.00    +0.000 C 
ATOM     20  C   UNL     1       1.189  14.421  19.378  0.00  0.00    +0.000 C 
ENDBRANCH  18  20
ENDBRANCH   1  18
BRANCH  16  21
ATOM     21  C   UNL     1       2.199   8.323  19.688  0.00  0.00    +0.000 C 
BRANCH  21  22
ATOM     22  C   UNL     1       2.226   6.810  19.485  0.00  0.00    +0.000 A 
ATOM     23  C   UNL     1       2.521   6.278  18.224  0.00  0.00    +0.000 A 
ATOM     24  C   UNL     1       2.340   4.920  17.969  0.00  0.00    +0.000 A 
ATOM     25  C   UNL     1       1.842   4.065  18.961  0.00  0.00    +0.000 A 
ATOM     26  C   UNL     1       1.576   4.574  20.231  0.00  0.00    +0.000 A 
ATOM     27  C   UNL     1       1.788   5.934  20.496  0.00  0.00    +0.000 A 
BRANCH  25  28
ATOM     28  O   UNL     1       1.582   2.788  18.542  0.00  0.00    +0.000 OA
ATOM     29  C   UNL     1       2.625   2.122  17.843  0.00  0.00    +0.000 C 
ENDBRANCH  25  28
ENDBRANCH  21  22
ENDBRANCH  16  21
TORSDOF 5
ENDMDL
MODEL 3
REMARK VINA RESULT:      -7.3      6.982      9.707
REMARK  Name = 
REMARK  6 active torsions:
REMARK  status: ('A' for Active; 'I' for Inactive)
REMARK    1  A    between atoms: C_2  and  C_3
REMARK    2  A    between atoms: C_3  and  N_4
REMARK    3  A    between atoms: N_19  and  C_20
REMARK    4  A    between atoms: C_20  and  C_21
REMARK    5  A    between atoms: C_24  and  O_25
REMARK    6  A    between atoms: O_25  and  C_26
REMARK                            x       y       z     vdW  Elec       q    Type
REMARK                         _______ _______ _______ _____ _____    ______ ____
ROOT
ATOM      1  N   UNL     1       1.344  11.787  19.481  0.00  0.00    +0.000 NA
ATOM      2  C   UNL     1       1.652  10.882  18.348  0.00  0.00    +0.000 C 
ATOM      3  C   UNL     1       0.690   9.669  18.209  0.00  0.00    +0.000 C 
ATOM      4  C   UNL     1      -0.780  10.181  18.117  0.00  0.00    +0.000 A 
ATOM      5  N   UNL     1      -1.555  10.169  16.975  0.00  0.00    +0.000 N 
ATOM      6  C   UNL     1      -2.756  10.828  17.192  0.00  0.00    +0.000 A 
ATOM      7  C   UNL     1      -3.825  11.115  16.333  0.00  0.00    +0.000 A 
ATOM      8  C   UNL     1      -4.914  11.831  16.861  0.00  0.00    +0.000 A 
ATOM      9  C   UNL     1      -4.941  12.248  18.190  0.00  0.00    +0.000 A 
ATOM     10  C   UNL     1      -3.869  11.964  19.028  0.00  0.00    +0.000 A 
ATOM     11  C   UNL     1      -2.769  11.250  18.517  0.00  0.00    +0.000 A 
ATOM     12  C   UNL     1      -1.521  10.891  19.069  0.00  0.00    +0.000 A 
ATOM     13  C   UNL     1      -1.032  11.361  20.403  0.00  0.00    +0.000 C 
ATOM     14  C   UNL     1       0.475  11.076  20.521  0.00  0.00    +0.000 C 
ATOM     15  C   UNL     1       0.507   9.496  20.597  0.00  0.00    +0.000 C 
ATOM     16  N   UNL     1       0.880   8.765  19.374  0.00  0.00    +0.000 NA
ATOM     17  H   UNL     1      -1.270   9.791  16.083  0.00  0.00    +0.000 HD
ENDROOT
BRANCH   1  18
ATOM     18  C   UNL     1       0.724  13.046  18.968  0.00  0.00    +0.000 C 
BRANCH  18  20
ATOM     19  C   UNL     1       2.612  14.529  18.279  0.00  0.00    +0.000 C 
ATOM     20  C   UNL     1       1.564  14.283  19.083  0.00  0.00    +0.000 C 
ENDBRANCH  18  20
ENDBRANCH   1  18
BRANCH  16  21
ATOM     21  C   UNL     1       2.246   8.215  19.545  0.00  0.00    +0.000 C 
BRANCH  21  22
ATOM     22  C   UNL     1       2.248   6.694  19.399  0.00  0.00    +0.000 A 
ATOM     23  C   UNL     1       1.929   5.886  20.496  0.00  0.00    +0.000 A 
ATOM     24  C   UNL     1       2.133   4.508  20.442  0.00  0.00    +0.000 A 
ATOM     25  C   UNL     1       2.679   3.908  19.300  0.00  0.00    +0.000 A 
ATOM     26  C   UNL     1       2.969   4.697  18.187  0.00  0.00    +0.000 A 
ATOM     27  C   UNL     1       2.734   6.078  18.231  0.00  0.00    +0.000 A 
BRANCH  25  28
ATOM     28  O   UNL     1       2.956   2.574  19.426  0.00  0.00    +0.000 OA
ATOM     29  C   UNL     1       3.219   1.862  18.224  0.00  0.00    +0.000 C 
ENDBRANCH  25  28
ENDBRANCH  21  22
ENDBRANCH  16  21
TORSDOF 5
ENDMDL
MODEL 4
REMARK VINA RESULT:      -7.0      4.451      7.297
REMARK  Name = 
REMARK  6 active torsions:
REMARK  status: ('A' for Active; 'I' for Inactive)
REMARK    1  A    between atoms: C_2  and  C_3
REMARK    2  A    between atoms: C_3  and  N_4
REMARK    3  A    between atoms: N_19  and  C_20
REMARK    4  A    between atoms: C_20  and  C_21
REMARK    5  A    between atoms: C_24  and  O_25
REMARK    6  A    between atoms: O_25  and  C_26
REMARK                            x       y       z     vdW  Elec       q    Type
REMARK                         _______ _______ _______ _____ _____    ______ ____
ROOT
ATOM      1  N   UNL     1       5.642   6.811  17.097  0.00  0.00    +0.000 NA
ATOM      2  C   UNL     1       4.860   6.421  15.899  0.00  0.00    +0.000 C 
ATOM      3  C   UNL     1       4.706   4.888  15.696  0.00  0.00    +0.000 C 
ATOM      4  C   UNL     1       4.090   4.255  16.981  0.00  0.00    +0.000 A 
ATOM      5  N   UNL     1       2.802   3.771  17.088  0.00  0.00    +0.000 N 
ATOM      6  C   UNL     1       2.522   3.414  18.399  0.00  0.00    +0.000 A 
ATOM      7  C   UNL     1       1.351   2.931  19.000  0.00  0.00    +0.000 A 
ATOM      8  C   UNL     1       1.382   2.676  20.381  0.00  0.00    +0.000 A 
ATOM      9  C   UNL     1       2.529   2.894  21.141  0.00  0.00    +0.000 A 
ATOM     10  C   UNL     1       3.680   3.382  20.534  0.00  0.00    +0.000 A 
ATOM     11  C   UNL     1       3.668   3.644  19.151  0.00  0.00    +0.000 A 
ATOM     12  C   UNL     1       4.618   4.214  18.277  0.00  0.00    +0.000 A 
ATOM     13  C   UNL     1       5.908   4.823  18.728  0.00  0.00    +0.000 C 
ATOM     14  C   UNL     1       6.513   5.646  17.577  0.00  0.00    +0.000 C 
ATOM     15  C   UNL     1       6.921   4.518  16.545  0.00  0.00    +0.000 C 
ATOM     16  N   UNL     1       6.037   4.305  15.386  0.00  0.00    +0.000 NA
ATOM     17  H   UNL     1       2.128   3.738  16.337  0.00  0.00    +0.000 HD
ENDROOT
BRANCH   1  18
ATOM     18  C   UNL     1       4.722   7.323  18.157  0.00  0.00    +0.000 C 
BRANCH  18  20
ATOM     19  C   UNL     1       2.237   7.232  18.394  0.00  0.00    +0.000 C 
ATOM     20  C   UNL     1       3.323   7.635  17.714  0.00  0.00    +0.000 C 
ENDBRANCH  18  20
ENDBRANCH   1  18
BRANCH  16  21
ATOM     21  C   UNL     1       6.706   4.836  14.173  0.00  0.00    +0.000 C 
BRANCH  21  22
ATOM     22  C   UNL     1       6.567   3.865  13.002  0.00  0.00    +0.000 A 
ATOM     23  C   UNL     1       5.327   3.281  12.719  0.00  0.00    +0.000 A 
ATOM     24  C   UNL     1       5.229   2.239  11.800  0.00  0.00    +0.000 A 
ATOM     25  C   UNL     1       6.369   1.742  11.155  0.00  0.00    +0.000 A 
ATOM     26  C   UNL     1       7.606   2.337  11.402  0.00  0.00    +0.000 A 
ATOM     27  C   UNL     1       7.699   3.406  12.303  0.00  0.00    +0.000 A 
BRANCH  25  28
ATOM     28  O   UNL     1       6.157   0.632  10.383  0.00  0.00    +0.000 OA
ATOM     29  C   UNL     1       5.943  -0.592  11.074  0.00  0.00    +0.000 C 
ENDBRANCH  25  28
ENDBRANCH  21  22
ENDBRANCH  16  21
TORSDOF 5
ENDMDL
MODEL 5
REMARK VINA RESULT:      -7.0      6.705      9.207
REMARK  Name = 
REMARK  6 active torsions:
REMARK  status: ('A' for Active; 'I' for Inactive)
REMARK    1  A    between atoms: C_2  and  C_3
REMARK    2  A    between atoms: C_3  and  N_4
REMARK    3  A    between atoms: N_19  and  C_20
REMARK    4  A    between atoms: C_20  and  C_21
REMARK    5  A    between atoms: C_24  and  O_25
REMARK    6  A    between atoms: O_25  and  C_26
REMARK                            x       y       z     vdW  Elec       q    Type
REMARK                         _______ _______ _______ _____ _____    ______ ____
ROOT
ATOM      1  N   UNL     1       1.403  11.701  19.330  0.00  0.00    +0.000 NA
ATOM      2  C   UNL     1       1.768  10.697  18.302  0.00  0.00    +0.000 C 
ATOM      3  C   UNL     1       0.826   9.462  18.240  0.00  0.00    +0.000 C 
ATOM      4  C   UNL     1      -0.643   9.942  18.039  0.00  0.00    +0.000 A 
ATOM      5  N   UNL     1      -1.369   9.809  16.873  0.00  0.00    +0.000 N 
ATOM      6  C   UNL     1      -2.585  10.468  16.976  0.00  0.00    +0.000 A 
ATOM      7  C   UNL     1      -3.620  10.657  16.050  0.00  0.00    +0.000 A 
ATOM      8  C   UNL     1      -4.738  11.402  16.462  0.00  0.00    +0.000 A 
ATOM      9  C   UNL     1      -4.826  11.943  17.743  0.00  0.00    +0.000 A 
ATOM     10  C   UNL     1      -3.788  11.756  18.648  0.00  0.00    +0.000 A 
ATOM     11  C   UNL     1      -2.660  11.013  18.253  0.00  0.00    +0.000 A 
ATOM     12  C   UNL     1      -1.433  10.727  18.887  0.00  0.00    +0.000 A 
ATOM     13  C   UNL     1      -1.006  11.328  20.190  0.00  0.00    +0.000 C 
ATOM     14  C   UNL     1       0.498  11.079  20.397  0.00  0.00    +0.000 C 
ATOM     15  C   UNL     1       0.544   9.513  20.624  0.00  0.00    +0.000 C 
ATOM     16  N   UNL     1       0.977   8.676  19.492  0.00  0.00    +0.000 NA
ATOM     17  H   UNL     1      -1.042   9.354  16.032  0.00  0.00    +0.000 HD
ENDROOT
BRANCH   1  18
ATOM     18  C   UNL     1       0.791  12.897  18.675  0.00  0.00    +0.000 C 
BRANCH  18  20
ATOM     19  C   UNL     1       2.775  14.259  19.342  0.00  0.00    +0.000 C 
ATOM     20  C   UNL     1       1.519  14.193  18.868  0.00  0.00    +0.000 C 
ENDBRANCH  18  20
ENDBRANCH   1  18
BRANCH  16  21
ATOM     21  C   UNL     1       2.341   8.165  19.771  0.00  0.00    +0.000 C 
BRANCH  21  22
ATOM     22  C   UNL     1       2.745   7.098  18.756  0.00  0.00    +0.000 A 
ATOM     23  C   UNL     1       2.234   5.799  18.864  0.00  0.00    +0.000 A 
ATOM     24  C   UNL     1       2.754   4.767  18.085  0.00  0.00    +0.000 A 
ATOM     25  C   UNL     1       3.809   5.004  17.194  0.00  0.00    +0.000 A 
ATOM     26  C   UNL     1       4.304   6.299  17.051  0.00  0.00    +0.000 A 
ATOM     27  C   UNL     1       3.760   7.342  17.812  0.00  0.00    +0.000 A 
BRANCH  25  28
ATOM     28  O   UNL     1       4.317   3.884  16.593  0.00  0.00    +0.000 OA
ATOM     29  C   UNL     1       5.320   4.090  15.607  0.00  0.00    +0.000 C 
ENDBRANCH  25  28
ENDBRANCH  21  22
ENDBRANCH  16  21
TORSDOF 5
ENDMDL
MODEL 6
REMARK VINA RESULT:      -6.8      6.798      9.542
REMARK  Name = 
REMARK  6 active torsions:
REMARK  status: ('A' for Active; 'I' for Inactive)
REMARK    1  A    between atoms: C_2  and  C_3
REMARK    2  A    between atoms: C_3  and  N_4
REMARK    3  A    between atoms: N_19  and  C_20
REMARK    4  A    between atoms: C_20  and  C_21
REMARK    5  A    between atoms: C_24  and  O_25
REMARK    6  A    between atoms: O_25  and  C_26
REMARK                            x       y       z     vdW  Elec       q    Type
REMARK                         _______ _______ _______ _____ _____    ______ ____
ROOT
ATOM      1  N   UNL     1       1.606  11.545  19.231  0.00  0.00    +0.000 NA
ATOM      2  C   UNL     1       1.900  10.644  18.092  0.00  0.00    +0.000 C 
ATOM      3  C   UNL     1       0.959   9.412  17.980  0.00  0.00    +0.000 C 
ATOM      4  C   UNL     1      -0.522   9.896  17.927  0.00  0.00    +0.000 A 
ATOM      5  N   UNL     1      -1.327   9.866  16.806  0.00  0.00    +0.000 N 
ATOM      6  C   UNL     1      -2.534  10.503  17.054  0.00  0.00    +0.000 A 
ATOM      7  C   UNL     1      -3.632  10.768  16.224  0.00  0.00    +0.000 A 
ATOM      8  C   UNL     1      -4.719  11.463  16.779  0.00  0.00    +0.000 A 
ATOM      9  C   UNL     1      -4.719  11.883  18.107  0.00  0.00    +0.000 A 
ATOM     10  C   UNL     1      -3.620  11.621  18.917  0.00  0.00    +0.000 A 
ATOM     11  C   UNL     1      -2.521  10.927  18.378  0.00  0.00    +0.000 A 
ATOM     12  C   UNL     1      -1.252  10.594  18.897  0.00  0.00    +0.000 A 
ATOM     13  C   UNL     1      -0.736  11.075  20.217  0.00  0.00    +0.000 C 
ATOM     14  C   UNL     1       0.779  10.820  20.296  0.00  0.00    +0.000 C 
ATOM     15  C   UNL     1       0.843   9.240  20.372  0.00  0.00    +0.000 C 
ATOM     16  N   UNL     1       1.197   8.514  19.141  0.00  0.00    +0.000 NA
ATOM     17  H   UNL     1      -1.059   9.493  15.907  0.00  0.00    +0.000 HD
ENDROOT
BRANCH   1  18
ATOM     18  C   UNL     1       0.948  12.791  18.733  0.00  0.00    +0.000 C 
BRANCH  18  20
ATOM     19  C   UNL     1       0.358  15.025  19.682  0.00  0.00    +0.000 C 
ATOM     20  C   UNL     1       1.258  14.044  19.496  0.00  0.00    +0.000 C 
ENDBRANCH  18  20
ENDBRANCH   1  18
BRANCH  16  21
ATOM     21  C   UNL     1       2.578   7.991  19.277  0.00  0.00    +0.000 C 
BRANCH  21  22
ATOM     22  C   UNL     1       2.627   6.491  18.993  0.00  0.00    +0.000 A 
ATOM     23  C   UNL     1       3.719   5.732  19.426  0.00  0.00    +0.000 A 
ATOM     24  C   UNL     1       3.884   4.417  18.993  0.00  0.00    +0.000 A 
ATOM     25  C   UNL     1       2.972   3.837  18.101  0.00  0.00    +0.000 A 
ATOM     26  C   UNL     1       1.861   4.571  17.688  0.00  0.00    +0.000 A 
ATOM     27  C   UNL     1       1.679   5.881  18.149  0.00  0.00    +0.000 A 
BRANCH  25  28
ATOM     28  O   UNL     1       3.321   2.594  17.649  0.00  0.00    +0.000 OA
ATOM     29  C   UNL     1       3.412   1.563  18.624  0.00  0.00    +0.000 C 
ENDBRANCH  25  28
ENDBRANCH  21  22
ENDBRANCH  16  21
TORSDOF 5
ENDMDL
MODEL 7
REMARK VINA RESULT:      -6.6      6.661      7.969
REMARK  Name = 
REMARK  6 active torsions:
REMARK  status: ('A' for Active; 'I' for Inactive)
REMARK    1  A    between atoms: C_2  and  C_3
REMARK    2  A    between atoms: C_3  and  N_4
REMARK    3  A    between atoms: N_19  and  C_20
REMARK    4  A    between atoms: C_20  and  C_21
REMARK    5  A    between atoms: C_24  and  O_25
REMARK    6  A    between atoms: O_25  and  C_26
REMARK                            x       y       z     vdW  Elec       q    Type
REMARK                         _______ _______ _______ _____ _____    ______ ____
ROOT
ATOM      1  N   UNL     1      -1.472  11.540  19.328  0.00  0.00    +0.000 NA
ATOM      2  C   UNL     1      -0.703  12.257  18.284  0.00  0.00    +0.000 C 
ATOM      3  C   UNL     1       0.830  12.315  18.533  0.00  0.00    +0.000 C 
ATOM      4  C   UNL     1       1.379  10.867  18.720  0.00  0.00    +0.000 A 
ATOM      5  N   UNL     1       2.153  10.188  17.802  0.00  0.00    +0.000 N 
ATOM      6  C   UNL     1       2.349   8.875  18.204  0.00  0.00    +0.000 A 
ATOM      7  C   UNL     1       3.011   7.804  17.588  0.00  0.00    +0.000 A 
ATOM      8  C   UNL     1       3.018   6.568  18.257  0.00  0.00    +0.000 A 
ATOM      9  C   UNL     1       2.390   6.398  19.488  0.00  0.00    +0.000 A 
ATOM     10  C   UNL     1       1.729   7.466  20.084  0.00  0.00    +0.000 A 
ATOM     11  C   UNL     1       1.711   8.712  19.429  0.00  0.00    +0.000 A 
ATOM     12  C   UNL     1       1.069   9.934  19.717  0.00  0.00    +0.000 A 
ATOM     13  C   UNL     1       0.082  10.119  20.826  0.00  0.00    +0.000 C 
ATOM     14  C   UNL     1      -0.667  11.448  20.627  0.00  0.00    +0.000 C 
ATOM     15  C   UNL     1       0.473  12.512  20.899  0.00  0.00    +0.000 C 
ATOM     16  N   UNL     1       1.094  13.156  19.730  0.00  0.00    +0.000 NA
ATOM     17  H   UNL     1       2.482  10.565  16.925  0.00  0.00    +0.000 HD
ENDROOT
BRANCH   1  18
ATOM     18  C   UNL     1      -1.899  10.203  18.813  0.00  0.00    +0.000 C 
BRANCH  18  20
ATOM     19  C   UNL     1      -3.014   9.938  16.594  0.00  0.00    +0.000 C 
ATOM     20  C   UNL     1      -1.890  10.044  17.322  0.00  0.00    +0.000 C 
ENDBRANCH  18  20
ENDBRANCH   1  18
BRANCH  16  21
ATOM     21  C   UNL     1       0.617  14.558  19.649  0.00  0.00    +0.000 C 
BRANCH  21  22
ATOM     22  C   UNL     1       1.782  15.522  19.434  0.00  0.00    +0.000 A 
ATOM     23  C   UNL     1       2.484  15.513  18.223  0.00  0.00    +0.000 A 
ATOM     24  C   UNL     1       3.675  16.226  18.090  0.00  0.00    +0.000 A 
ATOM     25  C   UNL     1       4.201  16.949  19.168  0.00  0.00    +0.000 A 
ATOM     26  C   UNL     1       3.495  16.995  20.369  0.00  0.00    +0.000 A 
ATOM     27  C   UNL     1       2.282  16.303  20.492  0.00  0.00    +0.000 A 
BRANCH  25  28
ATOM     28  O   UNL     1       5.439  17.490  18.949  0.00  0.00    +0.000 OA
ATOM     29  C   UNL     1       6.178  17.876  20.100  0.00  0.00    +0.000 C 
ENDBRANCH  25  28
ENDBRANCH  21  22
ENDBRANCH  16  21
TORSDOF 5
ENDMDL
MODEL 8
REMARK VINA RESULT:      -6.6      8.009     10.325
REMARK  Name = 
REMARK  6 active torsions:
REMARK  status: ('A' for Active; 'I' for Inactive)
REMARK    1  A    between atoms: C_2  and  C_3
REMARK    2  A    between atoms: C_3  and  N_4
REMARK    3  A    between atoms: N_19  and  C_20
REMARK    4  A    between atoms: C_20  and  C_21
REMARK    5  A    between atoms: C_24  and  O_25
REMARK    6  A    between atoms: O_25  and  C_26
REMARK                            x       y       z     vdW  Elec       q    Type
REMARK                         _______ _______ _______ _____ _____    ______ ____
ROOT
ATOM      1  N   UNL     1       0.274  12.932  19.961  0.00  0.00    +0.000 NA
ATOM      2  C   UNL     1       0.676  11.905  18.970  0.00  0.00    +0.000 C 
ATOM      3  C   UNL     1      -0.201  10.622  18.974  0.00  0.00    +0.000 C 
ATOM      4  C   UNL     1      -1.697  11.017  18.776  0.00  0.00    +0.000 A 
ATOM      5  N   UNL     1      -2.430  10.798  17.627  0.00  0.00    +0.000 N 
ATOM      6  C   UNL     1      -3.677  11.398  17.722  0.00  0.00    +0.000 A 
ATOM      7  C   UNL     1      -4.733  11.495  16.806  0.00  0.00    +0.000 A 
ATOM      8  C   UNL     1      -5.882  12.199  17.203  0.00  0.00    +0.000 A 
ATOM      9  C   UNL     1      -5.980  12.789  18.461  0.00  0.00    +0.000 A 
ATOM     10  C   UNL     1      -4.922  12.694  19.357  0.00  0.00    +0.000 A 
ATOM     11  C   UNL     1      -3.762  11.992  18.976  0.00  0.00    +0.000 A 
ATOM     12  C   UNL     1      -2.514  11.797  19.603  0.00  0.00    +0.000 A 
ATOM     13  C   UNL     1      -2.101  12.473  20.872  0.00  0.00    +0.000 C 
ATOM     14  C   UNL     1      -0.584  12.310  21.067  0.00  0.00    +0.000 C 
ATOM     15  C   UNL     1      -0.454  10.760  21.358  0.00  0.00    +0.000 C 
ATOM     16  N   UNL     1       0.006   9.898  20.256  0.00  0.00    +0.000 NA
ATOM     17  H   UNL     1      -2.091  10.325  16.802  0.00  0.00    +0.000 HD
ENDROOT
BRANCH   1  18
ATOM     18  C   UNL     1      -0.407  14.065  19.265  0.00  0.00    +0.000 C 
BRANCH  18  20
ATOM     19  C   UNL     1       1.551  15.563  18.869  0.00  0.00    +0.000 C 
ATOM     20  C   UNL     1       0.299  15.387  19.323  0.00  0.00    +0.000 C 
ENDBRANCH  18  20
ENDBRANCH   1  18
BRANCH  16  21
ATOM     21  C   UNL     1       1.398   9.470  20.535  0.00  0.00    +0.000 C 
BRANCH  21  22
ATOM     22  C   UNL     1       1.695   8.117  19.891  0.00  0.00    +0.000 A 
ATOM     23  C   UNL     1       1.594   6.944  20.649  0.00  0.00    +0.000 A 
ATOM     24  C   UNL     1       2.065   5.733  20.145  0.00  0.00    +0.000 A 
ATOM     25  C   UNL     1       2.666   5.668  18.881  0.00  0.00    +0.000 A 
ATOM     26  C   UNL     1       2.743   6.822  18.102  0.00  0.00    +0.000 A 
ATOM     27  C   UNL     1       2.240   8.033  18.596  0.00  0.00    +0.000 A 
BRANCH  25  28
ATOM     28  O   UNL     1       3.208   4.453  18.562  0.00  0.00    +0.000 OA
ATOM     29  C   UNL     1       4.230   3.967  19.423  0.00  0.00    +0.000 C 
ENDBRANCH  25  28
ENDBRANCH  21  22
ENDBRANCH  16  21
TORSDOF 5
ENDMDL
MODEL 9
REMARK VINA RESULT:      -6.6      8.830     10.858
REMARK  Name = 
REMARK  6 active torsions:
REMARK  status: ('A' for Active; 'I' for Inactive)
REMARK    1  A    between atoms: C_2  and  C_3
REMARK    2  A    between atoms: C_3  and  N_4
REMARK    3  A    between atoms: N_19  and  C_20
REMARK    4  A    between atoms: C_20  and  C_21
REMARK    5  A    between atoms: C_24  and  O_25
REMARK    6  A    between atoms: O_25  and  C_26
REMARK                            x       y       z     vdW  Elec       q    Type
REMARK                         _______ _______ _______ _____ _____    ______ ____
ROOT
ATOM      1  N   UNL     1       0.279  14.209  19.034  0.00  0.00    +0.000 NA
ATOM      2  C   UNL     1      -0.587  13.059  18.683  0.00  0.00    +0.000 C 
ATOM      3  C   UNL     1      -0.658  11.946  19.766  0.00  0.00    +0.000 C 
ATOM      4  C   UNL     1      -1.103  12.572  21.123  0.00  0.00    +0.000 A 
ATOM      5  N   UNL     1      -2.339  12.395  21.710  0.00  0.00    +0.000 N 
ATOM      6  C   UNL     1      -2.467  13.202  22.831  0.00  0.00    +0.000 A 
ATOM      7  C   UNL     1      -3.539  13.407  23.710  0.00  0.00    +0.000 A 
ATOM      8  C   UNL     1      -3.357  14.323  24.761  0.00  0.00    +0.000 A 
ATOM      9  C   UNL     1      -2.160  15.012  24.933  0.00  0.00    +0.000 A 
ATOM     10  C   UNL     1      -1.107  14.806  24.048  0.00  0.00    +0.000 A 
ATOM     11  C   UNL     1      -1.270  13.893  22.989  0.00  0.00    +0.000 A 
ATOM     12  C   UNL     1      -0.450  13.537  21.898  0.00  0.00    +0.000 A 
ATOM     13  C   UNL     1       0.834  14.226  21.559  0.00  0.00    +0.000 C 
ATOM     14  C   UNL     1       1.268  13.824  20.138  0.00  0.00    +0.000 C 
ATOM     15  C   UNL     1       1.649  12.300  20.330  0.00  0.00    +0.000 C 
ATOM     16  N   UNL     1       0.674  11.294  19.877  0.00  0.00    +0.000 NA
ATOM     17  H   UNL     1      -3.078  11.812  21.346  0.00  0.00    +0.000 HD
ENDROOT
BRANCH   1  18
ATOM     18  C   UNL     1      -0.566  15.387  19.396  0.00  0.00    +0.000 C 
BRANCH  18  20
ATOM     19  C   UNL     1      -1.277  17.607  18.502  0.00  0.00    +0.000 C 
ATOM     20  C   UNL     1      -0.377  16.611  18.552  0.00  0.00    +0.000 C 
ENDBRANCH  18  20
ENDBRANCH   1  18
BRANCH  16  21
ATOM     21  C   UNL     1       1.185  10.659  18.638  0.00  0.00    +0.000 C 
BRANCH  21  22
ATOM     22  C   UNL     1       1.520   9.188  18.874  0.00  0.00    +0.000 A 
ATOM     23  C   UNL     1       1.369   8.631  20.150  0.00  0.00    +0.000 A 
ATOM     24  C   UNL     1       1.871   7.362  20.432  0.00  0.00    +0.000 A 
ATOM     25  C   UNL     1       2.551   6.626  19.452  0.00  0.00    +0.000 A 
ATOM     26  C   UNL     1       2.677   7.154  18.168  0.00  0.00    +0.000 A 
ATOM     27  C   UNL     1       2.146   8.417  17.877  0.00  0.00    +0.000 A 
BRANCH  25  28
ATOM     28  O   UNL     1       3.110   5.458  19.894  0.00  0.00    +0.000 OA
ATOM     29  C   UNL     1       4.407   5.147  19.402  0.00  0.00    +0.000 C 
ENDBRANCH  25  28
ENDBRANCH  21  22
ENDBRANCH  16  21
TORSDOF 5
ENDMDL
