MODEL 1
REMARK VINA RESULT:      -5.9      0.000      0.000
REMARK  Name = 
REMARK  4 active torsions:
REMARK  status: ('A' for Active; 'I' for Inactive)
REMARK    1  A    between atoms: C_2  and  C_5
REMARK    2  A    between atoms: N_3  and  O_4
REMARK    3  A    between atoms: C_7  and  O_8
REMARK    4  A    between atoms: C_10  and  O_11
REMARK                            x       y       z     vdW  Elec       q    Type
REMARK                         _______ _______ _______ _____ _____    ______ ____
ROOT
ATOM      1  C   UNL     1       6.218   4.500  16.433  0.00  0.00    +0.000 A 
ATOM      2  C   UNL     1       6.941   4.975  17.533  0.00  0.00    +0.000 A 
ATOM      3  C   UNL     1       6.373   4.894  18.803  0.00  0.00    +0.000 A 
ATOM      4  C   UNL     1       5.112   4.339  18.992  0.00  0.00    +0.000 A 
ATOM      5  C   UNL     1       4.407   3.869  17.890  0.00  0.00    +0.000 A 
ATOM      6  C   UNL     1       4.945   3.948  16.611  0.00  0.00    +0.000 A 
ENDROOT
BRANCH   1   8
ATOM      7  N   UNL     1       6.403   3.690  14.104  0.00  0.00    +0.000 N 
ATOM      8  C   UNL     1       6.794   4.598  15.060  0.00  0.00    +0.000 C 
ATOM      9  N   UNL     1       7.645   5.552  14.815  0.00  0.00    +0.000 NA
ATOM     10  H   UNL     1       6.715   4.020  13.192  0.00  0.00    +0.000 HD
ATOM     11  H   UNL     1       5.414   3.472  14.105  0.00  0.00    +0.000 HD
BRANCH   9  12
ATOM     12  O   UNL     1       8.082   5.508  13.480  0.00  0.00    +0.000 OA
ATOM     13  H   UNL     1       8.947   5.956  13.542  0.00  0.00    +0.000 HD
ENDBRANCH   9  12
ENDBRANCH   1   8
BRANCH   3  14
ATOM     14  O   UNL     1       7.029   5.362  19.905  0.00  0.00    +0.000 OA
ATOM     15  H   UNL     1       7.255   6.296  19.764  0.00  0.00    +0.000 HD
ENDBRANCH   3  14
BRANCH   5  16
ATOM     16  O   UNL     1       3.166   3.316  18.021  0.00  0.00    +0.000 OA
ATOM     17  H   UNL     1       3.027   2.688  17.292  0.00  0.00    +0.000 HD
ENDBRANCH   5  16
TORSDOF 4
ENDMDL
MODEL 2
REMARK VINA RESULT:      -5.8      2.786      4.148
REMARK  Name = 
REMARK  4 active torsions:
REMARK  status: ('A' for Active; 'I' for Inactive)
REMARK    1  A    between atoms: C_2  and  C_5
REMARK    2  A    between atoms: N_3  and  O_4
REMARK    3  A    between atoms: C_7  and  O_8
REMARK    4  A    between atoms: C_10  and  O_11
REMARK                            x       y       z     vdW  Elec       q    Type
REMARK                         _______ _______ _______ _____ _____    ______ ____
ROOT
ATOM      1  C   UNL     1       4.915   4.809  18.724  0.00  0.00    +0.000 A 
ATOM      2  C   UNL     1       4.279   3.987  17.785  0.00  0.00    +0.000 A 
ATOM      3  C   UNL     1       2.887   3.964  17.738  0.00  0.00    +0.000 A 
ATOM      4  C   UNL     1       2.126   4.751  18.596  0.00  0.00    +0.000 A 
ATOM      5  C   UNL     1       2.772   5.564  19.521  0.00  0.00    +0.000 A 
ATOM      6  C   UNL     1       4.159   5.597  19.597  0.00  0.00    +0.000 A 
ENDROOT
BRANCH   1   8
ATOM      7  N   UNL     1       7.142   4.257  17.803  0.00  0.00    +0.000 N 
ATOM      8  C   UNL     1       6.404   4.832  18.811  0.00  0.00    +0.000 C 
ATOM      9  N   UNL     1       6.954   5.407  19.841  0.00  0.00    +0.000 NA
ATOM     10  H   UNL     1       8.115   4.541  17.905  0.00  0.00    +0.000 HD
ATOM     11  H   UNL     1       6.796   4.436  16.868  0.00  0.00    +0.000 HD
BRANCH   9  12
ATOM     12  O   UNL     1       8.356   5.349  19.764  0.00  0.00    +0.000 OA
ATOM     13  H   UNL     1       8.490   5.045  18.848  0.00  0.00    +0.000 HD
ENDBRANCH   9  12
ENDBRANCH   1   8
BRANCH   3  14
ATOM     14  O   UNL     1       2.220   3.165  16.856  0.00  0.00    +0.000 OA
ATOM     15  H   UNL     1       2.422   2.236  17.057  0.00  0.00    +0.000 HD
ENDBRANCH   3  14
BRANCH   5  16
ATOM     16  O   UNL     1       2.071   6.353  20.385  0.00  0.00    +0.000 OA
ATOM     17  H   UNL     1       2.692   6.957  20.828  0.00  0.00    +0.000 HD
ENDBRANCH   5  16
TORSDOF 4
ENDMDL
MODEL 3
REMARK VINA RESULT:      -5.7      0.300      2.405
REMARK  Name = 
REMARK  4 active torsions:
REMARK  status: ('A' for Active; 'I' for Inactive)
REMARK    1  A    between atoms: C_2  and  C_5
REMARK    2  A    between atoms: N_3  and  O_4
REMARK    3  A    between atoms: C_7  and  O_8
REMARK    4  A    between atoms: C_10  and  O_11
REMARK                            x       y       z     vdW  Elec       q    Type
REMARK                         _______ _______ _______ _____ _____    ______ ____
ROOT
ATOM      1  C   UNL     1       6.249   4.468  16.184  0.00  0.00    +0.000 A 
ATOM      2  C   UNL     1       4.975   3.942  16.434  0.00  0.00    +0.000 A 
ATOM      3  C   UNL     1       4.520   3.866  17.748  0.00  0.00    +0.000 A 
ATOM      4  C   UNL     1       5.302   4.315  18.807  0.00  0.00    +0.000 A 
ATOM      5  C   UNL     1       6.564   4.837  18.543  0.00  0.00    +0.000 A 
ATOM      6  C   UNL     1       7.047   4.913  17.242  0.00  0.00    +0.000 A 
ENDROOT
BRANCH   1   8
ATOM      7  N   UNL     1       6.371   3.584  13.878  0.00  0.00    +0.000 N 
ATOM      8  C   UNL     1       6.769   4.537  14.787  0.00  0.00    +0.000 C 
ATOM      9  N   UNL     1       7.579   5.507  14.477  0.00  0.00    +0.000 NA
ATOM     10  H   UNL     1       6.638   3.891  12.944  0.00  0.00    +0.000 HD
ATOM     11  H   UNL     1       5.391   3.336  13.925  0.00  0.00    +0.000 HD
BRANCH   9  12
ATOM     12  O   UNL     1       7.967   5.430  13.129  0.00  0.00    +0.000 OA
ATOM     13  H   UNL     1       7.736   6.322  12.807  0.00  0.00    +0.000 HD
ENDBRANCH   9  12
ENDBRANCH   1   8
BRANCH   3  14
ATOM     14  O   UNL     1       3.295   3.343  18.046  0.00  0.00    +0.000 OA
ATOM     15  H   UNL     1       2.607   3.928  17.687  0.00  0.00    +0.000 HD
ENDBRANCH   3  14
BRANCH   5  16
ATOM     16  O   UNL     1       7.370   5.289  19.546  0.00  0.00    +0.000 OA
ATOM     17  H   UNL     1       7.296   6.258  19.591  0.00  0.00    +0.000 HD
ENDBRANCH   5  16
TORSDOF 4
ENDMDL
MODEL 4
REMARK VINA RESULT:      -5.7      2.567      4.233
REMARK  Name = 
REMARK  4 active torsions:
REMARK  status: ('A' for Active; 'I' for Inactive)
REMARK    1  A    between atoms: C_2  and  C_5
REMARK    2  A    between atoms: N_3  and  O_4
REMARK    3  A    between atoms: C_7  and  O_8
REMARK    4  A    between atoms: C_10  and  O_11
REMARK                            x       y       z     vdW  Elec       q    Type
REMARK                         _______ _______ _______ _____ _____    ______ ____
ROOT
ATOM      1  C   UNL     1       4.800   5.229  17.876  0.00  0.00    +0.000 A 
ATOM      2  C   UNL     1       5.477   5.266  19.101  0.00  0.00    +0.000 A 
ATOM      3  C   UNL     1       6.853   5.480  19.107  0.00  0.00    +0.000 A 
ATOM      4  C   UNL     1       7.557   5.669  17.922  0.00  0.00    +0.000 A 
ATOM      5  C   UNL     1       6.870   5.632  16.714  0.00  0.00    +0.000 A 
ATOM      6  C   UNL     1       5.498   5.409  16.679  0.00  0.00    +0.000 A 
ENDROOT
BRANCH   1   8
ATOM      7  N   UNL     1       2.474   5.938  18.330  0.00  0.00    +0.000 N 
ATOM      8  C   UNL     1       3.329   4.977  17.842  0.00  0.00    +0.000 C 
ATOM      9  N   UNL     1       2.907   3.853  17.341  0.00  0.00    +0.000 NA
ATOM     10  H   UNL     1       1.524   5.708  18.042  0.00  0.00    +0.000 HD
ATOM     11  H   UNL     1       2.720   6.889  18.084  0.00  0.00    +0.000 HD
BRANCH   9  12
ATOM     12  O   UNL     1       1.504   3.779  17.376  0.00  0.00    +0.000 OA
ATOM     13  H   UNL     1       1.357   3.217  18.160  0.00  0.00    +0.000 HD
ENDBRANCH   9  12
ENDBRANCH   1   8
BRANCH   3  14
ATOM     14  O   UNL     1       7.562   5.504  20.273  0.00  0.00    +0.000 OA
ATOM     15  H   UNL     1       7.896   4.610  20.457  0.00  0.00    +0.000 HD
ENDBRANCH   3  14
BRANCH   5  16
ATOM     16  O   UNL     1       7.513   5.811  15.524  0.00  0.00    +0.000 OA
ATOM     17  H   UNL     1       8.254   6.426  15.660  0.00  0.00    +0.000 HD
ENDBRANCH   5  16
TORSDOF 4
ENDMDL
MODEL 5
REMARK VINA RESULT:      -5.6      2.027      2.444
REMARK  Name = 
REMARK  4 active torsions:
REMARK  status: ('A' for Active; 'I' for Inactive)
REMARK    1  A    between atoms: C_2  and  C_5
REMARK    2  A    between atoms: N_3  and  O_4
REMARK    3  A    between atoms: C_7  and  O_8
REMARK    4  A    between atoms: C_10  and  O_11
REMARK                            x       y       z     vdW  Elec       q    Type
REMARK                         _______ _______ _______ _____ _____    ______ ____
ROOT
ATOM      1  C   UNL     1       5.012   5.007  16.836  0.00  0.00    +0.000 A 
ATOM      2  C   UNL     1       4.530   6.170  17.449  0.00  0.00    +0.000 A 
ATOM      3  C   UNL     1       3.254   6.161  18.008  0.00  0.00    +0.000 A 
ATOM      4  C   UNL     1       2.463   5.017  17.977  0.00  0.00    +0.000 A 
ATOM      5  C   UNL     1       2.957   3.869  17.366  0.00  0.00    +0.000 A 
ATOM      6  C   UNL     1       4.222   3.855  16.791  0.00  0.00    +0.000 A 
ENDROOT
BRANCH   1   8
ATOM      7  N   UNL     1       7.410   4.405  16.878  0.00  0.00    +0.000 N 
ATOM      8  C   UNL     1       6.366   4.999  16.208  0.00  0.00    +0.000 C 
ATOM      9  N   UNL     1       6.507   5.552  15.039  0.00  0.00    +0.000 NA
ATOM     10  H   UNL     1       8.193   4.298  16.235  0.00  0.00    +0.000 HD
ATOM     11  H   UNL     1       7.179   3.531  17.334  0.00  0.00    +0.000 HD
BRANCH   9  12
ATOM     12  O   UNL     1       7.835   5.451  14.589  0.00  0.00    +0.000 OA
ATOM     13  H   UNL     1       7.748   4.803  13.866  0.00  0.00    +0.000 HD
ENDBRANCH   9  12
ENDBRANCH   1   8
BRANCH   3  14
ATOM     14  O   UNL     1       2.730   7.274  18.599  0.00  0.00    +0.000 OA
ATOM     15  H   UNL     1       3.019   7.304  19.526  0.00  0.00    +0.000 HD
ENDBRANCH   3  14
BRANCH   5  16
ATOM     16  O   UNL     1       2.221   2.722  17.308  0.00  0.00    +0.000 OA
ATOM     17  H   UNL     1       1.503   2.845  16.665  0.00  0.00    +0.000 HD
ENDBRANCH   5  16
TORSDOF 4
ENDMDL
MODEL 6
REMARK VINA RESULT:      -5.6      3.233      4.820
REMARK  Name = 
REMARK  4 active torsions:
REMARK  status: ('A' for Active; 'I' for Inactive)
REMARK    1  A    between atoms: C_2  and  C_5
REMARK    2  A    between atoms: N_3  and  O_4
REMARK    3  A    between atoms: C_7  and  O_8
REMARK    4  A    between atoms: C_10  and  O_11
REMARK                            x       y       z     vdW  Elec       q    Type
REMARK                         _______ _______ _______ _____ _____    ______ ____
ROOT
ATOM      1  C   UNL     1       3.543   3.254  18.963  0.00  0.00    +0.000 A 
ATOM      2  C   UNL     1       2.474   2.723  18.232  0.00  0.00    +0.000 A 
ATOM      3  C   UNL     1       1.296   2.393  18.898  0.00  0.00    +0.000 A 
ATOM      4  C   UNL     1       1.163   2.596  20.268  0.00  0.00    +0.000 A 
ATOM      5  C   UNL     1       2.233   3.128  20.980  0.00  0.00    +0.000 A 
ATOM      6  C   UNL     1       3.424   3.454  20.342  0.00  0.00    +0.000 A 
ENDROOT
BRANCH   1   8
ATOM      7  N   UNL     1       4.906   3.460  16.910  0.00  0.00    +0.000 N 
ATOM      8  C   UNL     1       4.825   3.592  18.277  0.00  0.00    +0.000 C 
ATOM      9  N   UNL     1       5.822   4.009  19.002  0.00  0.00    +0.000 NA
ATOM     10  H   UNL     1       5.754   3.923  16.586  0.00  0.00    +0.000 HD
ATOM     11  H   UNL     1       4.089   3.777  16.404  0.00  0.00    +0.000 HD
BRANCH   9  12
ATOM     12  O   UNL     1       6.944   4.289  18.204  0.00  0.00    +0.000 OA
ATOM     13  H   UNL     1       6.961   3.515  17.610  0.00  0.00    +0.000 HD
ENDBRANCH   9  12
ENDBRANCH   1   8
BRANCH   3  14
ATOM     14  O   UNL     1       0.233   1.853  18.234  0.00  0.00    +0.000 OA
ATOM     15  H   UNL     1       0.535   1.523  17.372  0.00  0.00    +0.000 HD
ENDBRANCH   3  14
BRANCH   5  16
ATOM     16  O   UNL     1       2.154   3.346  22.324  0.00  0.00    +0.000 OA
ATOM     17  H   UNL     1       1.217   3.366  22.581  0.00  0.00    +0.000 HD
ENDBRANCH   5  16
TORSDOF 4
ENDMDL
MODEL 7
REMARK VINA RESULT:      -5.6      2.456      4.399
REMARK  Name = 
REMARK  4 active torsions:
REMARK  status: ('A' for Active; 'I' for Inactive)
REMARK    1  A    between atoms: C_2  and  C_5
REMARK    2  A    between atoms: N_3  and  O_4
REMARK    3  A    between atoms: C_7  and  O_8
REMARK    4  A    between atoms: C_10  and  O_11
REMARK                            x       y       z     vdW  Elec       q    Type
REMARK                         _______ _______ _______ _____ _____    ______ ____
ROOT
ATOM      1  C   UNL     1       4.944   4.167  17.686  0.00  0.00    +0.000 A 
ATOM      2  C   UNL     1       5.561   4.474  16.467  0.00  0.00    +0.000 A 
ATOM      3  C   UNL     1       6.783   5.143  16.476  0.00  0.00    +0.000 A 
ATOM      4  C   UNL     1       7.401   5.495  17.672  0.00  0.00    +0.000 A 
ATOM      5  C   UNL     1       6.776   5.181  18.874  0.00  0.00    +0.000 A 
ATOM      6  C   UNL     1       5.551   4.525  18.893  0.00  0.00    +0.000 A 
ENDROOT
BRANCH   1   8
ATOM      7  N   UNL     1       2.475   4.218  17.559  0.00  0.00    +0.000 N 
ATOM      8  C   UNL     1       3.622   3.474  17.701  0.00  0.00    +0.000 C 
ATOM      9  N   UNL     1       3.606   2.180  17.842  0.00  0.00    +0.000 NA
ATOM     10  H   UNL     1       1.695   3.587  17.379  0.00  0.00    +0.000 HD
ATOM     11  H   UNL     1       2.529   4.954  16.864  0.00  0.00    +0.000 HD
BRANCH   9  12
ATOM     12  O   UNL     1       2.290   1.687  17.828  0.00  0.00    +0.000 OA
ATOM     13  H   UNL     1       1.773   2.510  17.742  0.00  0.00    +0.000 HD
ENDBRANCH   9  12
ENDBRANCH   1   8
BRANCH   3  14
ATOM     14  O   UNL     1       7.415   5.483  15.316  0.00  0.00    +0.000 OA
ATOM     15  H   UNL     1       8.164   4.881  15.177  0.00  0.00    +0.000 HD
ENDBRANCH   3  14
BRANCH   5  16
ATOM     16  O   UNL     1       7.339   5.505  20.074  0.00  0.00    +0.000 OA
ATOM     17  H   UNL     1       7.966   6.236  19.936  0.00  0.00    +0.000 HD
ENDBRANCH   5  16
TORSDOF 4
ENDMDL
MODEL 8
REMARK VINA RESULT:      -5.6      2.029      3.055
REMARK  Name = 
REMARK  4 active torsions:
REMARK  status: ('A' for Active; 'I' for Inactive)
REMARK    1  A    between atoms: C_2  and  C_5
REMARK    2  A    between atoms: N_3  and  O_4
REMARK    3  A    between atoms: C_7  and  O_8
REMARK    4  A    between atoms: C_10  and  O_11
REMARK                            x       y       z     vdW  Elec       q    Type
REMARK                         _______ _______ _______ _____ _____    ______ ____
ROOT
ATOM      1  C   UNL     1       5.034   5.057  16.733  0.00  0.00    +0.000 A 
ATOM      2  C   UNL     1       4.274   3.882  16.717  0.00  0.00    +0.000 A 
ATOM      3  C   UNL     1       3.020   3.878  17.323  0.00  0.00    +0.000 A 
ATOM      4  C   UNL     1       2.510   5.022  17.928  0.00  0.00    +0.000 A 
ATOM      5  C   UNL     1       3.276   6.183  17.934  0.00  0.00    +0.000 A 
ATOM      6  C   UNL     1       4.536   6.210  17.346  0.00  0.00    +0.000 A 
ENDROOT
BRANCH   1   8
ATOM      7  N   UNL     1       7.464   4.608  16.832  0.00  0.00    +0.000 N 
ATOM      8  C   UNL     1       6.391   5.079  16.112  0.00  0.00    +0.000 C 
ATOM      9  N   UNL     1       6.508   5.540  14.900  0.00  0.00    +0.000 NA
ATOM     10  H   UNL     1       8.257   4.496  16.203  0.00  0.00    +0.000 HD
ATOM     11  H   UNL     1       7.282   3.763  17.360  0.00  0.00    +0.000 HD
BRANCH   9  12
ATOM     12  O   UNL     1       7.843   5.483  14.465  0.00  0.00    +0.000 OA
ATOM     13  H   UNL     1       8.002   4.521  14.444  0.00  0.00    +0.000 HD
ENDBRANCH   9  12
ENDBRANCH   1   8
BRANCH   3  14
ATOM     14  O   UNL     1       2.249   2.752  17.352  0.00  0.00    +0.000 OA
ATOM     15  H   UNL     1       2.824   1.980  17.485  0.00  0.00    +0.000 HD
ENDBRANCH   3  14
BRANCH   5  16
ATOM     16  O   UNL     1       2.823   7.331  18.515  0.00  0.00    +0.000 OA
ATOM     17  H   UNL     1       2.842   7.220  19.481  0.00  0.00    +0.000 HD
ENDBRANCH   5  16
TORSDOF 4
ENDMDL
MODEL 9
REMARK VINA RESULT:      -5.6      2.810      4.297
REMARK  Name = 
REMARK  4 active torsions:
REMARK  status: ('A' for Active; 'I' for Inactive)
REMARK    1  A    between atoms: C_2  and  C_5
REMARK    2  A    between atoms: N_3  and  O_4
REMARK    3  A    between atoms: C_7  and  O_8
REMARK    4  A    between atoms: C_10  and  O_11
REMARK                            x       y       z     vdW  Elec       q    Type
REMARK                         _______ _______ _______ _____ _____    ______ ____
ROOT
ATOM      1  C   UNL     1       3.959   3.988  18.662  0.00  0.00    +0.000 A 
ATOM      2  C   UNL     1       3.074   2.952  18.339  0.00  0.00    +0.000 A 
ATOM      3  C   UNL     1       1.805   2.942  18.915  0.00  0.00    +0.000 A 
ATOM      4  C   UNL     1       1.404   3.947  19.790  0.00  0.00    +0.000 A 
ATOM      5  C   UNL     1       2.294   4.970  20.098  0.00  0.00    +0.000 A 
ATOM      6  C   UNL     1       3.569   4.998  19.547  0.00  0.00    +0.000 A 
ENDROOT
BRANCH   1   8
ATOM      7  N   UNL     1       5.501   3.674  16.755  0.00  0.00    +0.000 N 
ATOM      8  C   UNL     1       5.332   4.008  18.079  0.00  0.00    +0.000 C 
ATOM      9  N   UNL     1       6.325   4.350  18.847  0.00  0.00    +0.000 NA
ATOM     10  H   UNL     1       6.441   3.939  16.467  0.00  0.00    +0.000 HD
ATOM     11  H   UNL     1       4.798   4.049  16.130  0.00  0.00    +0.000 HD
BRANCH   9  12
ATOM     12  O   UNL     1       7.541   4.324  18.143  0.00  0.00    +0.000 OA
ATOM     13  H   UNL     1       8.125   3.869  18.778  0.00  0.00    +0.000 HD
ENDBRANCH   9  12
ENDBRANCH   1   8
BRANCH   3  14
ATOM     14  O   UNL     1       0.913   1.944  18.649  0.00  0.00    +0.000 OA
ATOM     15  H   UNL     1       0.037   2.336  18.499  0.00  0.00    +0.000 HD
ENDBRANCH   3  14
BRANCH   5  16
ATOM     16  O   UNL     1       1.950   5.978  20.951  0.00  0.00    +0.000 OA
ATOM     17  H   UNL     1       1.084   6.330  20.682  0.00  0.00    +0.000 HD
ENDBRANCH   5  16
TORSDOF 4
ENDMDL
