MODEL 1
REMARK VINA RESULT:      -6.6      0.000      0.000
REMARK  Name = 
REMARK  7 active torsions:
REMARK  status: ('A' for Active; 'I' for Inactive)
REMARK    1  A    between atoms: C_2  and  C_3
REMARK    2  A    between atoms: C_3  and  C_4
REMARK    3  A    between atoms: C_4  and  C_5
REMARK    4  A    between atoms: C_5  and  C_6
REMARK    5  A    between atoms: C_6  and  C_7
REMARK    6  A    between atoms: C_7  and  C_8
REMARK    7  A    between atoms: C_7  and  C_9
REMARK                            x       y       z     vdW  Elec       q    Type
REMARK                         _______ _______ _______ _____ _____    ______ ____
ROOT
ATOM      1  C   UNL     1       3.535   4.371  18.009  0.00  0.00    +0.000 C 
ATOM      2  C   UNL     1       4.314   3.826  19.194  0.00  0.00    +0.000 C 
ATOM      3  O   UNL     1       5.522   3.984  19.350  0.00  0.00    +0.000 OA
ATOM      4  N   UNL     1       3.609   3.208  20.194  0.00  0.00    +0.000 N 
ATOM      5  C   UNL     1       2.258   3.197  20.318  0.00  0.00    +0.000 C 
ATOM      6  S   UNL     1       1.525   2.669  21.711  0.00  0.00    +0.000 S 
ATOM      7  N   UNL     1       1.536   3.628  19.257  0.00  0.00    +0.000 N 
ATOM      8  C   UNL     1       2.055   3.997  18.046  0.00  0.00    +0.000 C 
ATOM      9  O   UNL     1       1.315   4.065  17.066  0.00  0.00    +0.000 OA
ATOM     10  H   UNL     1       4.159   2.923  20.996  0.00  0.00    +0.000 HD
ATOM     11  H   UNL     1       0.534   3.479  19.281  0.00  0.00    +0.000 HD
ENDROOT
BRANCH   1  12
ATOM     12  C   UNL     1       4.133   3.762  16.690  0.00  0.00    +0.000 C 
BRANCH  12  13
ATOM     13  C   UNL     1       5.087   4.670  15.893  0.00  0.00    +0.000 C 
BRANCH  13  15
ATOM     14  C   UNL     1       6.438   4.226  13.835  0.00  0.00    +0.000 C 
ATOM     15  C   UNL     1       6.087   3.893  15.084  0.00  0.00    +0.000 C 
ENDBRANCH  13  15
ENDBRANCH  12  13
ENDBRANCH   1  12
BRANCH   1  16
ATOM     16  C   UNL     1       3.630   5.925  17.964  0.00  0.00    +0.000 C 
BRANCH  16  17
ATOM     17  C   UNL     1       2.420   6.781  18.416  0.00  0.00    +0.000 C 
ATOM     18  C   UNL     1       2.327   6.989  19.928  0.00  0.00    +0.000 C 
ATOM     19  C   UNL     1       2.532   8.168  17.762  0.00  0.00    +0.000 C 
ENDBRANCH  16  17
ENDBRANCH   1  16
TORSDOF 5
ENDMDL
MODEL 2
REMARK VINA RESULT:      -6.6      2.949      3.406
REMARK  Name = 
REMARK  7 active torsions:
REMARK  status: ('A' for Active; 'I' for Inactive)
REMARK    1  A    between atoms: C_2  and  C_3
REMARK    2  A    between atoms: C_3  and  C_4
REMARK    3  A    between atoms: C_4  and  C_5
REMARK    4  A    between atoms: C_5  and  C_6
REMARK    5  A    between atoms: C_6  and  C_7
REMARK    6  A    between atoms: C_7  and  C_8
REMARK    7  A    between atoms: C_7  and  C_9
REMARK                            x       y       z     vdW  Elec       q    Type
REMARK                         _______ _______ _______ _____ _____    ______ ____
ROOT
ATOM      1  C   UNL     1       5.666   5.600  17.601  0.00  0.00    +0.000 C 
ATOM      2  C   UNL     1       5.823   4.812  18.890  0.00  0.00    +0.000 C 
ATOM      3  O   UNL     1       6.374   5.249  19.896  0.00  0.00    +0.000 OA
ATOM      4  N   UNL     1       5.229   3.578  18.962  0.00  0.00    +0.000 N 
ATOM      5  C   UNL     1       4.356   3.067  18.059  0.00  0.00    +0.000 C 
ATOM      6  S   UNL     1       3.482   1.695  18.387  0.00  0.00    +0.000 S 
ATOM      7  N   UNL     1       4.234   3.721  16.879  0.00  0.00    +0.000 N 
ATOM      8  C   UNL     1       4.976   4.804  16.495  0.00  0.00    +0.000 C 
ATOM      9  O   UNL     1       5.014   5.121  15.307  0.00  0.00    +0.000 OA
ATOM     10  H   UNL     1       5.301   3.119  19.863  0.00  0.00    +0.000 HD
ATOM     11  H   UNL     1       3.705   3.264  16.144  0.00  0.00    +0.000 HD
ENDROOT
BRANCH   1  12
ATOM     12  C   UNL     1       7.092   5.988  17.069  0.00  0.00    +0.000 C 
BRANCH  12  13
ATOM     13  C   UNL     1       7.389   7.494  16.953  0.00  0.00    +0.000 C 
BRANCH  13  15
ATOM     14  C   UNL     1       8.480   9.320  18.271  0.00  0.00    +0.000 C 
ATOM     15  C   UNL     1       8.157   8.027  18.129  0.00  0.00    +0.000 C 
ENDBRANCH  13  15
ENDBRANCH  12  13
ENDBRANCH   1  12
BRANCH   1  16
ATOM     16  C   UNL     1       4.827   6.889  17.850  0.00  0.00    +0.000 C 
BRANCH  16  17
ATOM     17  C   UNL     1       3.287   6.787  17.991  0.00  0.00    +0.000 C 
ATOM     18  C   UNL     1       2.811   6.340  19.374  0.00  0.00    +0.000 C 
ATOM     19  C   UNL     1       2.679   8.171  17.714  0.00  0.00    +0.000 C 
ENDBRANCH  16  17
ENDBRANCH   1  16
TORSDOF 5
ENDMDL
MODEL 3
REMARK VINA RESULT:      -6.6      3.901      5.051
REMARK  Name = 
REMARK  7 active torsions:
REMARK  status: ('A' for Active; 'I' for Inactive)
REMARK    1  A    between atoms: C_2  and  C_3
REMARK    2  A    between atoms: C_3  and  C_4
REMARK    3  A    between atoms: C_4  and  C_5
REMARK    4  A    between atoms: C_5  and  C_6
REMARK    5  A    between atoms: C_6  and  C_7
REMARK    6  A    between atoms: C_7  and  C_8
REMARK    7  A    between atoms: C_7  and  C_9
REMARK                            x       y       z     vdW  Elec       q    Type
REMARK                         _______ _______ _______ _____ _____    ______ ____
ROOT
ATOM      1  C   UNL     1       6.095   5.268  17.289  0.00  0.00    +0.000 C 
ATOM      2  C   UNL     1       5.763   6.562  16.566  0.00  0.00    +0.000 C 
ATOM      3  O   UNL     1       4.755   6.726  15.885  0.00  0.00    +0.000 OA
ATOM      4  N   UNL     1       6.589   7.638  16.767  0.00  0.00    +0.000 N 
ATOM      5  C   UNL     1       7.573   7.715  17.697  0.00  0.00    +0.000 C 
ATOM      6  S   UNL     1       8.317   9.157  18.046  0.00  0.00    +0.000 S 
ATOM      7  N   UNL     1       7.927   6.566  18.321  0.00  0.00    +0.000 N 
ATOM      8  C   UNL     1       7.428   5.325  18.033  0.00  0.00    +0.000 C 
ATOM      9  O   UNL     1       8.029   4.326  18.422  0.00  0.00    +0.000 OA
ATOM     10  H   UNL     1       6.291   8.498  16.322  0.00  0.00    +0.000 HD
ATOM     11  H   UNL     1       8.760   6.584  18.898  0.00  0.00    +0.000 HD
ENDROOT
BRANCH   1  12
ATOM     12  C   UNL     1       6.206   4.113  16.230  0.00  0.00    +0.000 C 
BRANCH  12  13
ATOM     13  C   UNL     1       6.753   4.508  14.847  0.00  0.00    +0.000 C 
BRANCH  13  15
ATOM     14  C   UNL     1       6.396   3.595  12.545  0.00  0.00    +0.000 C 
ATOM     15  C   UNL     1       5.897   4.005  13.718  0.00  0.00    +0.000 C 
ENDBRANCH  13  15
ENDBRANCH  12  13
ENDBRANCH   1  12
BRANCH   1  16
ATOM     16  C   UNL     1       4.987   4.926  18.330  0.00  0.00    +0.000 C 
BRANCH  16  17
ATOM     17  C   UNL     1       4.055   3.711  18.087  0.00  0.00    +0.000 C 
ATOM     18  C   UNL     1       3.915   2.778  19.290  0.00  0.00    +0.000 C 
ATOM     19  C   UNL     1       2.653   4.235  17.738  0.00  0.00    +0.000 C 
ENDBRANCH  16  17
ENDBRANCH   1  16
TORSDOF 5
ENDMDL
MODEL 4
REMARK VINA RESULT:      -6.5      0.946      4.261
REMARK  Name = 
REMARK  7 active torsions:
REMARK  status: ('A' for Active; 'I' for Inactive)
REMARK    1  A    between atoms: C_2  and  C_3
REMARK    2  A    between atoms: C_3  and  C_4
REMARK    3  A    between atoms: C_4  and  C_5
REMARK    4  A    between atoms: C_5  and  C_6
REMARK    5  A    between atoms: C_6  and  C_7
REMARK    6  A    between atoms: C_7  and  C_8
REMARK    7  A    between atoms: C_7  and  C_9
REMARK                            x       y       z     vdW  Elec       q    Type
REMARK                         _______ _______ _______ _____ _____    ______ ____
ROOT
ATOM      1  C   UNL     1       3.359   4.937  18.058  0.00  0.00    +0.000 C 
ATOM      2  C   UNL     1       1.927   4.430  18.094  0.00  0.00    +0.000 C 
ATOM      3  O   UNL     1       1.179   4.422  17.121  0.00  0.00    +0.000 OA
ATOM      4  N   UNL     1       1.480   3.860  19.259  0.00  0.00    +0.000 N 
ATOM      5  C   UNL     1       2.251   3.534  20.326  0.00  0.00    +0.000 C 
ATOM      6  S   UNL     1       1.662   2.593  21.559  0.00  0.00    +0.000 S 
ATOM      7  N   UNL     1       3.517   4.017  20.345  0.00  0.00    +0.000 N 
ATOM      8  C   UNL     1       4.052   4.867  19.417  0.00  0.00    +0.000 C 
ATOM      9  O   UNL     1       5.079   5.488  19.686  0.00  0.00    +0.000 OA
ATOM     10  H   UNL     1       0.545   3.473  19.216  0.00  0.00    +0.000 HD
ATOM     11  H   UNL     1       4.045   3.910  21.204  0.00  0.00    +0.000 HD
ENDROOT
BRANCH   1  12
ATOM     12  C   UNL     1       3.349   6.446  17.621  0.00  0.00    +0.000 C 
BRANCH  12  13
ATOM     13  C   UNL     1       2.476   7.392  18.464  0.00  0.00    +0.000 C 
BRANCH  13  15
ATOM     14  C   UNL     1       1.167   9.468  17.976  0.00  0.00    +0.000 C 
ATOM     15  C   UNL     1       2.274   8.731  17.812  0.00  0.00    +0.000 C 
ENDBRANCH  13  15
ENDBRANCH  12  13
ENDBRANCH   1  12
BRANCH   1  16
ATOM     16  C   UNL     1       4.206   4.101  17.051  0.00  0.00    +0.000 C 
BRANCH  16  17
ATOM     17  C   UNL     1       5.360   4.781  16.271  0.00  0.00    +0.000 C 
ATOM     18  C   UNL     1       6.754   4.475  16.820  0.00  0.00    +0.000 C 
ATOM     19  C   UNL     1       5.317   4.293  14.814  0.00  0.00    +0.000 C 
ENDBRANCH  16  17
ENDBRANCH   1  16
TORSDOF 5
ENDMDL
MODEL 5
REMARK VINA RESULT:      -6.5      3.241      5.265
REMARK  Name = 
REMARK  7 active torsions:
REMARK  status: ('A' for Active; 'I' for Inactive)
REMARK    1  A    between atoms: C_2  and  C_3
REMARK    2  A    between atoms: C_3  and  C_4
REMARK    3  A    between atoms: C_4  and  C_5
REMARK    4  A    between atoms: C_5  and  C_6
REMARK    5  A    between atoms: C_6  and  C_7
REMARK    6  A    between atoms: C_7  and  C_8
REMARK    7  A    between atoms: C_7  and  C_9
REMARK                            x       y       z     vdW  Elec       q    Type
REMARK                         _______ _______ _______ _____ _____    ______ ____
ROOT
ATOM      1  C   UNL     1       6.189   5.828  16.587  0.00  0.00    +0.000 C 
ATOM      2  C   UNL     1       4.977   6.288  17.379  0.00  0.00    +0.000 C 
ATOM      3  O   UNL     1       4.300   7.269  17.085  0.00  0.00    +0.000 OA
ATOM      4  N   UNL     1       4.560   5.504  18.424  0.00  0.00    +0.000 N 
ATOM      5  C   UNL     1       5.014   4.258  18.707  0.00  0.00    +0.000 C 
ATOM      6  S   UNL     1       4.243   3.291  19.814  0.00  0.00    +0.000 S 
ATOM      7  N   UNL     1       6.125   3.841  18.054  0.00  0.00    +0.000 N 
ATOM      8  C   UNL     1       6.869   4.602  17.194  0.00  0.00    +0.000 C 
ATOM      9  O   UNL     1       8.011   4.249  16.907  0.00  0.00    +0.000 OA
ATOM     10  H   UNL     1       3.709   5.812  18.879  0.00  0.00    +0.000 HD
ATOM     11  H   UNL     1       6.558   2.980  18.370  0.00  0.00    +0.000 HD
ENDROOT
BRANCH   1  12
ATOM     12  C   UNL     1       7.251   6.986  16.574  0.00  0.00    +0.000 C 
BRANCH  12  13
ATOM     13  C   UNL     1       7.700   7.514  17.948  0.00  0.00    +0.000 C 
BRANCH  13  15
ATOM     14  C   UNL     1       8.918   9.543  18.760  0.00  0.00    +0.000 C 
ATOM     15  C   UNL     1       8.034   8.979  17.926  0.00  0.00    +0.000 C 
ENDBRANCH  13  15
ENDBRANCH  12  13
ENDBRANCH   1  12
BRANCH   1  16
ATOM     16  C   UNL     1       5.781   5.469  15.127  0.00  0.00    +0.000 C 
BRANCH  16  17
ATOM     17  C   UNL     1       6.651   4.481  14.308  0.00  0.00    +0.000 C 
ATOM     18  C   UNL     1       5.865   3.628  13.313  0.00  0.00    +0.000 C 
ATOM     19  C   UNL     1       7.688   5.290  13.512  0.00  0.00    +0.000 C 
ENDBRANCH  16  17
ENDBRANCH   1  16
TORSDOF 5
ENDMDL
MODEL 6
REMARK VINA RESULT:      -6.4      4.290      5.281
REMARK  Name = 
REMARK  7 active torsions:
REMARK  status: ('A' for Active; 'I' for Inactive)
REMARK    1  A    between atoms: C_2  and  C_3
REMARK    2  A    between atoms: C_3  and  C_4
REMARK    3  A    between atoms: C_4  and  C_5
REMARK    4  A    between atoms: C_5  and  C_6
REMARK    5  A    between atoms: C_6  and  C_7
REMARK    6  A    between atoms: C_7  and  C_8
REMARK    7  A    between atoms: C_7  and  C_9
REMARK                            x       y       z     vdW  Elec       q    Type
REMARK                         _______ _______ _______ _____ _____    ______ ____
ROOT
ATOM      1  C   UNL     1       6.240   5.508  17.488  0.00  0.00    +0.000 C 
ATOM      2  C   UNL     1       7.366   4.629  16.971  0.00  0.00    +0.000 C 
ATOM      3  O   UNL     1       8.207   4.101  17.692  0.00  0.00    +0.000 OA
ATOM      4  N   UNL     1       7.382   4.332  15.633  0.00  0.00    +0.000 N 
ATOM      5  C   UNL     1       6.385   4.595  14.752  0.00  0.00    +0.000 C 
ATOM      6  S   UNL     1       6.386   3.940  13.227  0.00  0.00    +0.000 S 
ATOM      7  N   UNL     1       5.393   5.418  15.169  0.00  0.00    +0.000 N 
ATOM      8  C   UNL     1       5.359   6.067  16.373  0.00  0.00    +0.000 C 
ATOM      9  O   UNL     1       4.596   7.020  16.525  0.00  0.00    +0.000 OA
ATOM     10  H   UNL     1       8.109   3.687  15.345  0.00  0.00    +0.000 HD
ATOM     11  H   UNL     1       4.731   5.743  14.473  0.00  0.00    +0.000 HD
ENDROOT
BRANCH   1  12
ATOM     12  C   UNL     1       6.865   6.737  18.242  0.00  0.00    +0.000 C 
BRANCH  12  13
ATOM     13  C   UNL     1       7.879   7.579  17.447  0.00  0.00    +0.000 C 
BRANCH  13  15
ATOM     14  C   UNL     1       8.804   9.627  18.548  0.00  0.00    +0.000 C 
ATOM     15  C   UNL     1       7.846   9.034  17.823  0.00  0.00    +0.000 C 
ENDBRANCH  13  15
ENDBRANCH  12  13
ENDBRANCH   1  12
BRANCH   1  16
ATOM     16  C   UNL     1       5.323   4.704  18.458  0.00  0.00    +0.000 C 
BRANCH  16  17
ATOM     17  C   UNL     1       3.946   4.192  17.965  0.00  0.00    +0.000 C 
ATOM     18  C   UNL     1       3.844   2.671  17.855  0.00  0.00    +0.000 C 
ATOM     19  C   UNL     1       2.869   4.660  18.956  0.00  0.00    +0.000 C 
ENDBRANCH  16  17
ENDBRANCH   1  16
TORSDOF 5
ENDMDL
MODEL 7
REMARK VINA RESULT:      -6.3      3.501      4.450
REMARK  Name = 
REMARK  7 active torsions:
REMARK  status: ('A' for Active; 'I' for Inactive)
REMARK    1  A    between atoms: C_2  and  C_3
REMARK    2  A    between atoms: C_3  and  C_4
REMARK    3  A    between atoms: C_4  and  C_5
REMARK    4  A    between atoms: C_5  and  C_6
REMARK    5  A    between atoms: C_6  and  C_7
REMARK    6  A    between atoms: C_7  and  C_8
REMARK    7  A    between atoms: C_7  and  C_9
REMARK                            x       y       z     vdW  Elec       q    Type
REMARK                         _______ _______ _______ _____ _____    ______ ____
ROOT
ATOM      1  C   UNL     1       5.103   5.377  17.098  0.00  0.00    +0.000 C 
ATOM      2  C   UNL     1       5.527   6.544  16.223  0.00  0.00    +0.000 C 
ATOM      3  O   UNL     1       4.900   6.923  15.238  0.00  0.00    +0.000 OA
ATOM      4  N   UNL     1       6.619   7.274  16.616  0.00  0.00    +0.000 N 
ATOM      5  C   UNL     1       7.251   7.170  17.811  0.00  0.00    +0.000 C 
ATOM      6  S   UNL     1       8.375   8.293  18.292  0.00  0.00    +0.000 S 
ATOM      7  N   UNL     1       6.930   6.109  18.590  0.00  0.00    +0.000 N 
ATOM      8  C   UNL     1       6.083   5.096  18.235  0.00  0.00    +0.000 C 
ATOM      9  O   UNL     1       6.105   4.040  18.865  0.00  0.00    +0.000 OA
ATOM     10  H   UNL     1       6.823   8.084  16.042  0.00  0.00    +0.000 HD
ATOM     11  H   UNL     1       7.505   5.939  19.408  0.00  0.00    +0.000 HD
ENDROOT
BRANCH   1  12
ATOM     12  C   UNL     1       5.038   4.080  16.213  0.00  0.00    +0.000 C 
BRANCH  12  13
ATOM     13  C   UNL     1       6.146   3.922  15.155  0.00  0.00    +0.000 C 
BRANCH  13  15
ATOM     14  C   UNL     1       6.367   3.589  12.685  0.00  0.00    +0.000 C 
ATOM     15  C   UNL     1       5.606   3.859  13.754  0.00  0.00    +0.000 C 
ENDBRANCH  13  15
ENDBRANCH  12  13
ENDBRANCH   1  12
BRANCH   1  16
ATOM     16  C   UNL     1       3.707   5.652  17.733  0.00  0.00    +0.000 C 
BRANCH  16  17
ATOM     17  C   UNL     1       2.914   4.486  18.378  0.00  0.00    +0.000 C 
ATOM     18  C   UNL     1       2.597   4.687  19.860  0.00  0.00    +0.000 C 
ATOM     19  C   UNL     1       1.579   4.334  17.633  0.00  0.00    +0.000 C 
ENDBRANCH  16  17
ENDBRANCH   1  16
TORSDOF 5
ENDMDL
MODEL 8
REMARK VINA RESULT:      -6.3      2.998      3.732
REMARK  Name = 
REMARK  7 active torsions:
REMARK  status: ('A' for Active; 'I' for Inactive)
REMARK    1  A    between atoms: C_2  and  C_3
REMARK    2  A    between atoms: C_3  and  C_4
REMARK    3  A    between atoms: C_4  and  C_5
REMARK    4  A    between atoms: C_5  and  C_6
REMARK    5  A    between atoms: C_6  and  C_7
REMARK    6  A    between atoms: C_7  and  C_8
REMARK    7  A    between atoms: C_7  and  C_9
REMARK                            x       y       z     vdW  Elec       q    Type
REMARK                         _______ _______ _______ _____ _____    ______ ____
ROOT
ATOM      1  C   UNL     1       5.333   5.042  16.875  0.00  0.00    +0.000 C 
ATOM      2  C   UNL     1       4.539   4.505  18.054  0.00  0.00    +0.000 C 
ATOM      3  O   UNL     1       4.783   3.442  18.617  0.00  0.00    +0.000 OA
ATOM      4  N   UNL     1       3.554   5.304  18.578  0.00  0.00    +0.000 N 
ATOM      5  C   UNL     1       3.342   6.606  18.264  0.00  0.00    +0.000 C 
ATOM      6  S   UNL     1       2.315   7.552  19.161  0.00  0.00    +0.000 S 
ATOM      7  N   UNL     1       3.998   7.097  17.185  0.00  0.00    +0.000 N 
ATOM      8  C   UNL     1       4.792   6.367  16.344  0.00  0.00    +0.000 C 
ATOM      9  O   UNL     1       5.078   6.821  15.237  0.00  0.00    +0.000 OA
ATOM     10  H   UNL     1       3.098   4.936  19.405  0.00  0.00    +0.000 HD
ATOM     11  H   UNL     1       3.729   8.016  16.853  0.00  0.00    +0.000 HD
ENDROOT
BRANCH   1  12
ATOM     12  C   UNL     1       5.252   4.004  15.698  0.00  0.00    +0.000 C 
BRANCH  12  13
ATOM     13  C   UNL     1       6.400   4.046  14.674  0.00  0.00    +0.000 C 
BRANCH  13  15
ATOM     14  C   UNL     1       6.753   3.618  12.234  0.00  0.00    +0.000 C 
ATOM     15  C   UNL     1       5.925   3.850  13.261  0.00  0.00    +0.000 C 
ENDBRANCH  13  15
ENDBRANCH  12  13
ENDBRANCH   1  12
BRANCH   1  16
ATOM     16  C   UNL     1       6.822   5.266  17.279  0.00  0.00    +0.000 C 
BRANCH  16  17
ATOM     17  C   UNL     1       7.167   6.267  18.411  0.00  0.00    +0.000 C 
ATOM     18  C   UNL     1       8.121   5.714  19.470  0.00  0.00    +0.000 C 
ATOM     19  C   UNL     1       7.835   7.501  17.783  0.00  0.00    +0.000 C 
ENDBRANCH  16  17
ENDBRANCH   1  16
TORSDOF 5
ENDMDL
MODEL 9
REMARK VINA RESULT:      -6.2      3.448      4.336
REMARK  Name = 
REMARK  7 active torsions:
REMARK  status: ('A' for Active; 'I' for Inactive)
REMARK    1  A    between atoms: C_2  and  C_3
REMARK    2  A    between atoms: C_3  and  C_4
REMARK    3  A    between atoms: C_4  and  C_5
REMARK    4  A    between atoms: C_5  and  C_6
REMARK    5  A    between atoms: C_6  and  C_7
REMARK    6  A    between atoms: C_7  and  C_8
REMARK    7  A    between atoms: C_7  and  C_9
REMARK                            x       y       z     vdW  Elec       q    Type
REMARK                         _______ _______ _______ _____ _____    ______ ____
ROOT
ATOM      1  C   UNL     1       5.115   5.256  16.947  0.00  0.00    +0.000 C 
ATOM      2  C   UNL     1       5.558   6.450  16.118  0.00  0.00    +0.000 C 
ATOM      3  O   UNL     1       4.970   6.841  15.114  0.00  0.00    +0.000 OA
ATOM      4  N   UNL     1       6.619   7.188  16.576  0.00  0.00    +0.000 N 
ATOM      5  C   UNL     1       7.197   7.068  17.797  0.00  0.00    +0.000 C 
ATOM      6  S   UNL     1       8.279   8.198  18.353  0.00  0.00    +0.000 S 
ATOM      7  N   UNL     1       6.860   5.985  18.537  0.00  0.00    +0.000 N 
ATOM      8  C   UNL     1       6.047   4.966  18.121  0.00  0.00    +0.000 C 
ATOM      9  O   UNL     1       6.058   3.897  18.729  0.00  0.00    +0.000 OA
ATOM     10  H   UNL     1       6.835   8.014  16.030  0.00  0.00    +0.000 HD
ATOM     11  H   UNL     1       7.399   5.806  19.376  0.00  0.00    +0.000 HD
ENDROOT
BRANCH   1  12
ATOM     12  C   UNL     1       5.113   3.979  16.032  0.00  0.00    +0.000 C 
BRANCH  12  13
ATOM     13  C   UNL     1       6.214   3.910  14.958  0.00  0.00    +0.000 C 
BRANCH  13  15
ATOM     14  C   UNL     1       6.434   3.628  12.482  0.00  0.00    +0.000 C 
ATOM     15  C   UNL     1       5.662   3.736  13.571  0.00  0.00    +0.000 C 
ENDBRANCH  13  15
ENDBRANCH  12  13
ENDBRANCH   1  12
BRANCH   1  16
ATOM     16  C   UNL     1       3.687   5.495  17.524  0.00  0.00    +0.000 C 
BRANCH  16  17
ATOM     17  C   UNL     1       3.444   6.663  18.513  0.00  0.00    +0.000 C 
ATOM     18  C   UNL     1       2.654   7.832  17.922  0.00  0.00    +0.000 C 
ATOM     19  C   UNL     1       2.652   6.127  19.716  0.00  0.00    +0.000 C 
ENDBRANCH  16  17
ENDBRANCH   1  16
TORSDOF 5
ENDMDL
