MODEL 1
REMARK VINA RESULT:      -7.7      0.000      0.000
REMARK  Name = 
REMARK  6 active torsions:
REMARK  status: ('A' for Active; 'I' for Inactive)
REMARK    1  A    between atoms: C_1  and  C_2
REMARK    2  A    between atoms: C_2  and  C_3
REMARK    3  A    between atoms: C_2  and  N_13
REMARK    4  A    between atoms: N_13  and  C_14
REMARK    5  A    between atoms: N_13  and  C_15
REMARK    6  A    between atoms: C_15  and  C_16
REMARK                            x       y       z     vdW  Elec       q    Type
REMARK                         _______ _______ _______ _____ _____    ______ ____
ROOT
ATOM      1  C   UNL     1       4.075   2.722  20.082  0.00  0.00    +0.000 C 
ATOM      2  C   UNL     1       3.919   3.630  18.849  0.00  0.00    +0.000 C 
ENDROOT
BRANCH   2   3
ATOM      3  C   UNL     1       5.161   4.389  18.354  0.00  0.00    +0.000 A 
ATOM      4  C   UNL     1       5.903   5.041  19.371  0.00  0.00    +0.000 A 
ATOM      5  C   UNL     1       7.106   5.682  19.119  0.00  0.00    +0.000 A 
ATOM      6  C   UNL     1       7.586   5.734  17.821  0.00  0.00    +0.000 A 
ATOM      7  C   UNL     1       6.862   5.169  16.764  0.00  0.00    +0.000 A 
ATOM      8  C   UNL     1       7.370   5.304  15.462  0.00  0.00    +0.000 A 
ATOM      9  C   UNL     1       6.694   4.781  14.366  0.00  0.00    +0.000 A 
ATOM     10  C   UNL     1       5.509   4.093  14.566  0.00  0.00    +0.000 A 
ATOM     11  C   UNL     1       5.004   3.933  15.861  0.00  0.00    +0.000 A 
ATOM     12  C   UNL     1       5.640   4.475  17.003  0.00  0.00    +0.000 A 
ENDBRANCH   2   3
BRANCH   2  13
ATOM     13  N   UNL     1       2.662   4.430  18.943  0.00  0.00    +0.000 NA
ATOM     14  C   UNL     1       1.461   3.614  19.119  0.00  0.00    +0.000 C 
BRANCH  13  15
ATOM     15  C   UNL     1       2.683   5.496  19.967  0.00  0.00    +0.000 C 
BRANCH  15  16
ATOM     16  C   UNL     1       2.297   6.883  19.484  0.00  0.00    +0.000 A 
ATOM     17  C   UNL     1       2.552   7.306  18.170  0.00  0.00    +0.000 A 
ATOM     18  C   UNL     1       2.212   8.595  17.758  0.00  0.00    +0.000 A 
ATOM     19  C   UNL     1       1.577   9.465  18.641  0.00  0.00    +0.000 A 
ATOM     20  C   UNL     1       1.275   9.045  19.934  0.00  0.00    +0.000 A 
ATOM     21  C   UNL     1       1.628   7.760  20.352  0.00  0.00    +0.000 A 
ENDBRANCH  15  16
ENDBRANCH  13  15
ENDBRANCH   2  13
TORSDOF 4
ENDMDL
MODEL 2
REMARK VINA RESULT:      -7.6      0.781      1.422
REMARK  Name = 
REMARK  6 active torsions:
REMARK  status: ('A' for Active; 'I' for Inactive)
REMARK    1  A    between atoms: C_1  and  C_2
REMARK    2  A    between atoms: C_2  and  C_3
REMARK    3  A    between atoms: C_2  and  N_13
REMARK    4  A    between atoms: N_13  and  C_14
REMARK    5  A    between atoms: N_13  and  C_15
REMARK    6  A    between atoms: C_15  and  C_16
REMARK                            x       y       z     vdW  Elec       q    Type
REMARK                         _______ _______ _______ _____ _____    ______ ____
ROOT
ATOM      1  C   UNL     1       4.428   2.652  20.189  0.00  0.00    +0.000 C 
ATOM      2  C   UNL     1       4.334   3.120  18.725  0.00  0.00    +0.000 C 
ENDROOT
BRANCH   2   3
ATOM      3  C   UNL     1       5.376   4.134  18.228  0.00  0.00    +0.000 A 
ATOM      4  C   UNL     1       5.934   4.957  19.238  0.00  0.00    +0.000 A 
ATOM      5  C   UNL     1       6.963   5.852  18.985  0.00  0.00    +0.000 A 
ATOM      6  C   UNL     1       7.436   5.990  17.691  0.00  0.00    +0.000 A 
ATOM      7  C   UNL     1       6.876   5.256  16.639  0.00  0.00    +0.000 A 
ATOM      8  C   UNL     1       7.359   5.480  15.340  0.00  0.00    +0.000 A 
ATOM      9  C   UNL     1       6.837   4.797  14.248  0.00  0.00    +0.000 A 
ATOM     10  C   UNL     1       5.839   3.859  14.450  0.00  0.00    +0.000 A 
ATOM     11  C   UNL     1       5.364   3.610  15.743  0.00  0.00    +0.000 A 
ATOM     12  C   UNL     1       5.843   4.304  16.880  0.00  0.00    +0.000 A 
ENDBRANCH   2   3
BRANCH   2  13
ATOM     13  N   UNL     1       2.917   3.409  18.357  0.00  0.00    +0.000 NA
ATOM     14  C   UNL     1       2.192   2.241  17.856  0.00  0.00    +0.000 C 
BRANCH  13  15
ATOM     15  C   UNL     1       2.122   4.059  19.421  0.00  0.00    +0.000 C 
BRANCH  15  16
ATOM     16  C   UNL     1       2.085   5.577  19.382  0.00  0.00    +0.000 A 
ATOM     17  C   UNL     1       1.718   6.336  20.504  0.00  0.00    +0.000 A 
ATOM     18  C   UNL     1       1.665   7.729  20.436  0.00  0.00    +0.000 A 
ATOM     19  C   UNL     1       2.016   8.383  19.258  0.00  0.00    +0.000 A 
ATOM     20  C   UNL     1       2.426   7.647  18.149  0.00  0.00    +0.000 A 
ATOM     21  C   UNL     1       2.466   6.252  18.212  0.00  0.00    +0.000 A 
ENDBRANCH  15  16
ENDBRANCH  13  15
ENDBRANCH   2  13
TORSDOF 4
ENDMDL
MODEL 3
REMARK VINA RESULT:      -7.6      0.811      1.008
REMARK  Name = 
REMARK  6 active torsions:
REMARK  status: ('A' for Active; 'I' for Inactive)
REMARK    1  A    between atoms: C_1  and  C_2
REMARK    2  A    between atoms: C_2  and  C_3
REMARK    3  A    between atoms: C_2  and  N_13
REMARK    4  A    between atoms: N_13  and  C_14
REMARK    5  A    between atoms: N_13  and  C_15
REMARK    6  A    between atoms: C_15  and  C_16
REMARK                            x       y       z     vdW  Elec       q    Type
REMARK                         _______ _______ _______ _____ _____    ______ ____
ROOT
ATOM      1  C   UNL     1       4.448   2.554  20.118  0.00  0.00    +0.000 C 
ATOM      2  C   UNL     1       4.350   3.060  18.668  0.00  0.00    +0.000 C 
ENDROOT
BRANCH   2   3
ATOM      3  C   UNL     1       5.380   4.101  18.199  0.00  0.00    +0.000 A 
ATOM      4  C   UNL     1       5.907   4.920  19.228  0.00  0.00    +0.000 A 
ATOM      5  C   UNL     1       6.921   5.838  19.003  0.00  0.00    +0.000 A 
ATOM      6  C   UNL     1       7.411   6.003  17.718  0.00  0.00    +0.000 A 
ATOM      7  C   UNL     1       6.881   5.272  16.648  0.00  0.00    +0.000 A 
ATOM      8  C   UNL     1       7.379   5.523  15.359  0.00  0.00    +0.000 A 
ATOM      9  C   UNL     1       6.886   4.845  14.251  0.00  0.00    +0.000 A 
ATOM     10  C   UNL     1       5.903   3.885  14.426  0.00  0.00    +0.000 A 
ATOM     11  C   UNL     1       5.415   3.610  15.708  0.00  0.00    +0.000 A 
ATOM     12  C   UNL     1       5.863   4.297  16.861  0.00  0.00    +0.000 A 
ENDBRANCH   2   3
BRANCH   2  13
ATOM     13  N   UNL     1       2.930   3.341  18.305  0.00  0.00    +0.000 NA
ATOM     14  C   UNL     1       2.201   2.162  17.836  0.00  0.00    +0.000 C 
BRANCH  13  15
ATOM     15  C   UNL     1       2.144   4.013  19.361  0.00  0.00    +0.000 C 
BRANCH  15  16
ATOM     16  C   UNL     1       2.118   5.530  19.300  0.00  0.00    +0.000 A 
ATOM     17  C   UNL     1       2.384   6.227  18.111  0.00  0.00    +0.000 A 
ATOM     18  C   UNL     1       2.381   7.623  18.087  0.00  0.00    +0.000 A 
ATOM     19  C   UNL     1       2.074   8.340  19.240  0.00  0.00    +0.000 A 
ATOM     20  C   UNL     1       1.762   7.663  20.417  0.00  0.00    +0.000 A 
ATOM     21  C   UNL     1       1.778   6.267  20.446  0.00  0.00    +0.000 A 
ENDBRANCH  15  16
ENDBRANCH  13  15
ENDBRANCH   2  13
TORSDOF 4
ENDMDL
MODEL 4
REMARK VINA RESULT:      -7.5      0.715      2.604
REMARK  Name = 
REMARK  6 active torsions:
REMARK  status: ('A' for Active; 'I' for Inactive)
REMARK    1  A    between atoms: C_1  and  C_2
REMARK    2  A    between atoms: C_2  and  C_3
REMARK    3  A    between atoms: C_2  and  N_13
REMARK    4  A    between atoms: N_13  and  C_14
REMARK    5  A    between atoms: N_13  and  C_15
REMARK    6  A    between atoms: C_15  and  C_16
REMARK                            x       y       z     vdW  Elec       q    Type
REMARK                         _______ _______ _______ _____ _____    ______ ____
ROOT
ATOM      1  C   UNL     1       4.324   2.487  19.699  0.00  0.00    +0.000 C 
ATOM      2  C   UNL     1       3.705   3.257  18.518  0.00  0.00    +0.000 C 
ENDROOT
BRANCH   2   3
ATOM      3  C   UNL     1       4.656   4.011  17.576  0.00  0.00    +0.000 A 
ATOM      4  C   UNL     1       4.386   3.840  16.195  0.00  0.00    +0.000 A 
ATOM      5  C   UNL     1       5.077   4.529  15.210  0.00  0.00    +0.000 A 
ATOM      6  C   UNL     1       6.104   5.383  15.576  0.00  0.00    +0.000 A 
ATOM      7  C   UNL     1       6.464   5.540  16.920  0.00  0.00    +0.000 A 
ATOM      8  C   UNL     1       7.550   6.376  17.225  0.00  0.00    +0.000 A 
ATOM      9  C   UNL     1       7.969   6.563  18.536  0.00  0.00    +0.000 A 
ATOM     10  C   UNL     1       7.287   5.933  19.563  0.00  0.00    +0.000 A 
ATOM     11  C   UNL     1       6.189   5.116  19.274  0.00  0.00    +0.000 A 
ATOM     12  C   UNL     1       5.745   4.870  17.953  0.00  0.00    +0.000 A 
ENDBRANCH   2   3
BRANCH   2  13
ATOM     13  N   UNL     1       2.495   4.010  18.960  0.00  0.00    +0.000 NA
ATOM     14  C   UNL     1       1.404   3.148  19.419  0.00  0.00    +0.000 C 
BRANCH  13  15
ATOM     15  C   UNL     1       2.752   5.055  19.974  0.00  0.00    +0.000 C 
BRANCH  15  16
ATOM     16  C   UNL     1       2.367   6.469  19.576  0.00  0.00    +0.000 A 
ATOM     17  C   UNL     1       1.733   7.342  20.472  0.00  0.00    +0.000 A 
ATOM     18  C   UNL     1       1.365   8.629  20.073  0.00  0.00    +0.000 A 
ATOM     19  C   UNL     1       1.661   9.072  18.788  0.00  0.00    +0.000 A 
ATOM     20  C   UNL     1       2.331   8.234  17.900  0.00  0.00    +0.000 A 
ATOM     21  C   UNL     1       2.688   6.942  18.293  0.00  0.00    +0.000 A 
ENDBRANCH  15  16
ENDBRANCH  13  15
ENDBRANCH   2  13
TORSDOF 4
ENDMDL
MODEL 5
REMARK VINA RESULT:      -7.5      0.801      2.416
REMARK  Name = 
REMARK  6 active torsions:
REMARK  status: ('A' for Active; 'I' for Inactive)
REMARK    1  A    between atoms: C_1  and  C_2
REMARK    2  A    between atoms: C_2  and  C_3
REMARK    3  A    between atoms: C_2  and  N_13
REMARK    4  A    between atoms: N_13  and  C_14
REMARK    5  A    between atoms: N_13  and  C_15
REMARK    6  A    between atoms: C_15  and  C_16
REMARK                            x       y       z     vdW  Elec       q    Type
REMARK                         _______ _______ _______ _____ _____    ______ ____
ROOT
ATOM      1  C   UNL     1       4.433   2.425  19.633  0.00  0.00    +0.000 C 
ATOM      2  C   UNL     1       3.801   3.138  18.424  0.00  0.00    +0.000 C 
ENDROOT
BRANCH   2   3
ATOM      3  C   UNL     1       4.724   3.968  17.517  0.00  0.00    +0.000 A 
ATOM      4  C   UNL     1       4.458   3.849  16.130  0.00  0.00    +0.000 A 
ATOM      5  C   UNL     1       5.123   4.606  15.177  0.00  0.00    +0.000 A 
ATOM      6  C   UNL     1       6.120   5.478  15.581  0.00  0.00    +0.000 A 
ATOM      7  C   UNL     1       6.476   5.587  16.931  0.00  0.00    +0.000 A 
ATOM      8  C   UNL     1       7.533   6.445  17.273  0.00  0.00    +0.000 A 
ATOM      9  C   UNL     1       7.947   6.588  18.592  0.00  0.00    +0.000 A 
ATOM     10  C   UNL     1       7.288   5.889  19.589  0.00  0.00    +0.000 A 
ATOM     11  C   UNL     1       6.219   5.047  19.264  0.00  0.00    +0.000 A 
ATOM     12  C   UNL     1       5.782   4.845  17.932  0.00  0.00    +0.000 A 
ENDBRANCH   2   3
BRANCH   2  13
ATOM     13  N   UNL     1       2.515   3.789  18.812  0.00  0.00    +0.000 NA
ATOM     14  C   UNL     1       1.446   2.838  19.117  0.00  0.00    +0.000 C 
BRANCH  13  15
ATOM     15  C   UNL     1       2.625   4.769  19.914  0.00  0.00    +0.000 C 
BRANCH  15  16
ATOM     16  C   UNL     1       2.328   6.212  19.546  0.00  0.00    +0.000 A 
ATOM     17  C   UNL     1       2.546   6.704  18.250  0.00  0.00    +0.000 A 
ATOM     18  C   UNL     1       2.290   8.042  17.944  0.00  0.00    +0.000 A 
ATOM     19  C   UNL     1       1.778   8.895  18.917  0.00  0.00    +0.000 A 
ATOM     20  C   UNL     1       1.513   8.411  20.196  0.00  0.00    +0.000 A 
ATOM     21  C   UNL     1       1.781   7.076  20.508  0.00  0.00    +0.000 A 
ENDBRANCH  15  16
ENDBRANCH  13  15
ENDBRANCH   2  13
TORSDOF 4
ENDMDL
MODEL 6
REMARK VINA RESULT:      -7.5      1.816      6.331
REMARK  Name = 
REMARK  6 active torsions:
REMARK  status: ('A' for Active; 'I' for Inactive)
REMARK    1  A    between atoms: C_1  and  C_2
REMARK    2  A    between atoms: C_2  and  C_3
REMARK    3  A    between atoms: C_2  and  N_13
REMARK    4  A    between atoms: N_13  and  C_14
REMARK    5  A    between atoms: N_13  and  C_15
REMARK    6  A    between atoms: C_15  and  C_16
REMARK                            x       y       z     vdW  Elec       q    Type
REMARK                         _______ _______ _______ _____ _____    ______ ____
ROOT
ATOM      1  C   UNL     1       4.689   7.127  16.183  0.00  0.00    +0.000 C 
ATOM      2  C   UNL     1       4.463   5.708  16.736  0.00  0.00    +0.000 C 
ENDROOT
BRANCH   2   3
ATOM      3  C   UNL     1       3.506   5.547  17.928  0.00  0.00    +0.000 A 
ATOM      4  C   UNL     1       3.393   6.689  18.759  0.00  0.00    +0.000 A 
ATOM      5  C   UNL     1       2.497   6.756  19.815  0.00  0.00    +0.000 A 
ATOM      6  C   UNL     1       1.714   5.653  20.109  0.00  0.00    +0.000 A 
ATOM      7  C   UNL     1       1.832   4.470  19.368  0.00  0.00    +0.000 A 
ATOM      8  C   UNL     1       1.052   3.366  19.748  0.00  0.00    +0.000 A 
ATOM      9  C   UNL     1       1.132   2.158  19.066  0.00  0.00    +0.000 A 
ATOM     10  C   UNL     1       1.978   2.051  17.975  0.00  0.00    +0.000 A 
ATOM     11  C   UNL     1       2.743   3.150  17.572  0.00  0.00    +0.000 A 
ATOM     12  C   UNL     1       2.719   4.390  18.255  0.00  0.00    +0.000 A 
ENDBRANCH   2   3
BRANCH   2  13
ATOM     13  N   UNL     1       5.756   4.971  16.836  0.00  0.00    +0.000 NA
ATOM     14  C   UNL     1       6.115   4.601  18.205  0.00  0.00    +0.000 C 
BRANCH  13  15
ATOM     15  C   UNL     1       5.859   3.781  15.965  0.00  0.00    +0.000 C 
BRANCH  15  16
ATOM     16  C   UNL     1       6.346   4.039  14.549  0.00  0.00    +0.000 A 
ATOM     17  C   UNL     1       5.801   3.365  13.446  0.00  0.00    +0.000 A 
ATOM     18  C   UNL     1       6.284   3.600  12.158  0.00  0.00    +0.000 A 
ATOM     19  C   UNL     1       7.290   4.540  11.950  0.00  0.00    +0.000 A 
ATOM     20  C   UNL     1       7.810   5.250  13.029  0.00  0.00    +0.000 A 
ATOM     21  C   UNL     1       7.337   5.006  14.321  0.00  0.00    +0.000 A 
ENDBRANCH  15  16
ENDBRANCH  13  15
ENDBRANCH   2  13
TORSDOF 4
ENDMDL
MODEL 7
REMARK VINA RESULT:      -7.5      1.818      6.365
REMARK  Name = 
REMARK  6 active torsions:
REMARK  status: ('A' for Active; 'I' for Inactive)
REMARK    1  A    between atoms: C_1  and  C_2
REMARK    2  A    between atoms: C_2  and  C_3
REMARK    3  A    between atoms: C_2  and  N_13
REMARK    4  A    between atoms: N_13  and  C_14
REMARK    5  A    between atoms: N_13  and  C_15
REMARK    6  A    between atoms: C_15  and  C_16
REMARK                            x       y       z     vdW  Elec       q    Type
REMARK                         _______ _______ _______ _____ _____    ______ ____
ROOT
ATOM      1  C   UNL     1       4.776   7.104  16.058  0.00  0.00    +0.000 C 
ATOM      2  C   UNL     1       4.548   5.701  16.649  0.00  0.00    +0.000 C 
ENDROOT
BRANCH   2   3
ATOM      3  C   UNL     1       3.575   5.570  17.831  0.00  0.00    +0.000 A 
ATOM      4  C   UNL     1       3.442   6.737  18.625  0.00  0.00    +0.000 A 
ATOM      5  C   UNL     1       2.530   6.831  19.665  0.00  0.00    +0.000 A 
ATOM      6  C   UNL     1       1.749   5.732  19.981  0.00  0.00    +0.000 A 
ATOM      7  C   UNL     1       1.885   4.528  19.278  0.00  0.00    +0.000 A 
ATOM      8  C   UNL     1       1.107   3.431  19.681  0.00  0.00    +0.000 A 
ATOM      9  C   UNL     1       1.204   2.203  19.037  0.00  0.00    +0.000 A 
ATOM     10  C   UNL     1       2.067   2.067  17.963  0.00  0.00    +0.000 A 
ATOM     11  C   UNL     1       2.832   3.159  17.538  0.00  0.00    +0.000 A 
ATOM     12  C   UNL     1       2.790   4.419  18.182  0.00  0.00    +0.000 A 
ENDBRANCH   2   3
BRANCH   2  13
ATOM     13  N   UNL     1       5.844   4.974  16.790  0.00  0.00    +0.000 NA
ATOM     14  C   UNL     1       6.158   4.600  18.169  0.00  0.00    +0.000 C 
BRANCH  13  15
ATOM     15  C   UNL     1       5.986   3.789  15.917  0.00  0.00    +0.000 C 
BRANCH  15  16
ATOM     16  C   UNL     1       6.446   4.067  14.497  0.00  0.00    +0.000 A 
ATOM     17  C   UNL     1       7.440   5.017  14.214  0.00  0.00    +0.000 A 
ATOM     18  C   UNL     1       7.826   5.273  12.897  0.00  0.00    +0.000 A 
ATOM     19  C   UNL     1       7.253   4.557  11.850  0.00  0.00    +0.000 A 
ATOM     20  C   UNL     1       6.299   3.579  12.117  0.00  0.00    +0.000 A 
ATOM     21  C   UNL     1       5.901   3.331  13.433  0.00  0.00    +0.000 A 
ENDBRANCH  15  16
ENDBRANCH  13  15
ENDBRANCH   2  13
TORSDOF 4
ENDMDL
MODEL 8
REMARK VINA RESULT:      -7.4      2.093      6.661
REMARK  Name = 
REMARK  6 active torsions:
REMARK  status: ('A' for Active; 'I' for Inactive)
REMARK    1  A    between atoms: C_1  and  C_2
REMARK    2  A    between atoms: C_2  and  C_3
REMARK    3  A    between atoms: C_2  and  N_13
REMARK    4  A    between atoms: N_13  and  C_14
REMARK    5  A    between atoms: N_13  and  C_15
REMARK    6  A    between atoms: C_15  and  C_16
REMARK                            x       y       z     vdW  Elec       q    Type
REMARK                         _______ _______ _______ _____ _____    ______ ____
ROOT
ATOM      1  C   UNL     1       6.654   4.784  18.471  0.00  0.00    +0.000 C 
ATOM      2  C   UNL     1       5.294   5.045  17.800  0.00  0.00    +0.000 C 
ENDROOT
BRANCH   2   3
ATOM      3  C   UNL     1       4.140   4.080  18.119  0.00  0.00    +0.000 A 
ATOM      4  C   UNL     1       4.202   2.835  17.446  0.00  0.00    +0.000 A 
ATOM      5  C   UNL     1       3.304   1.808  17.695  0.00  0.00    +0.000 A 
ATOM      6  C   UNL     1       2.275   2.014  18.598  0.00  0.00    +0.000 A 
ATOM      7  C   UNL     1       2.120   3.248  19.242  0.00  0.00    +0.000 A 
ATOM      8  C   UNL     1       1.024   3.416  20.103  0.00  0.00    +0.000 A 
ATOM      9  C   UNL     1       0.803   4.620  20.761  0.00  0.00    +0.000 A 
ATOM     10  C   UNL     1       1.694   5.664  20.582  0.00  0.00    +0.000 A 
ATOM     11  C   UNL     1       2.802   5.502  19.744  0.00  0.00    +0.000 A 
ATOM     12  C   UNL     1       3.051   4.306  19.028  0.00  0.00    +0.000 A 
ENDBRANCH   2   3
BRANCH   2  13
ATOM     13  N   UNL     1       5.477   5.385  16.358  0.00  0.00    +0.000 NA
ATOM     14  C   UNL     1       5.193   6.786  16.047  0.00  0.00    +0.000 C 
BRANCH  13  15
ATOM     15  C   UNL     1       6.795   5.017  15.799  0.00  0.00    +0.000 C 
BRANCH  15  16
ATOM     16  C   UNL     1       6.805   4.642  14.327  0.00  0.00    +0.000 A 
ATOM     17  C   UNL     1       5.972   3.637  13.814  0.00  0.00    +0.000 A 
ATOM     18  C   UNL     1       6.020   3.292  12.462  0.00  0.00    +0.000 A 
ATOM     19  C   UNL     1       6.872   3.974  11.598  0.00  0.00    +0.000 A 
ATOM     20  C   UNL     1       7.673   5.005  12.082  0.00  0.00    +0.000 A 
ATOM     21  C   UNL     1       7.636   5.342  13.437  0.00  0.00    +0.000 A 
ENDBRANCH  15  16
ENDBRANCH  13  15
ENDBRANCH   2  13
TORSDOF 4
ENDMDL
MODEL 9
REMARK VINA RESULT:      -7.2      1.817      6.216
REMARK  Name = 
REMARK  6 active torsions:
REMARK  status: ('A' for Active; 'I' for Inactive)
REMARK    1  A    between atoms: C_1  and  C_2
REMARK    2  A    between atoms: C_2  and  C_3
REMARK    3  A    between atoms: C_2  and  N_13
REMARK    4  A    between atoms: N_13  and  C_14
REMARK    5  A    between atoms: N_13  and  C_15
REMARK    6  A    between atoms: C_15  and  C_16
REMARK                            x       y       z     vdW  Elec       q    Type
REMARK                         _______ _______ _______ _____ _____    ______ ____
ROOT
ATOM      1  C   UNL     1       6.634   5.168  18.812  0.00  0.00    +0.000 C 
ATOM      2  C   UNL     1       5.354   5.728  18.165  0.00  0.00    +0.000 C 
ENDROOT
BRANCH   2   3
ATOM      3  C   UNL     1       4.007   5.371  18.815  0.00  0.00    +0.000 A 
ATOM      4  C   UNL     1       3.387   6.433  19.520  0.00  0.00    +0.000 A 
ATOM      5  C   UNL     1       2.122   6.318  20.076  0.00  0.00    +0.000 A 
ATOM      6  C   UNL     1       1.450   5.110  19.986  0.00  0.00    +0.000 A 
ATOM      7  C   UNL     1       2.042   4.004  19.364  0.00  0.00    +0.000 A 
ATOM      8  C   UNL     1       1.336   2.790  19.354  0.00  0.00    +0.000 A 
ATOM      9  C   UNL     1       1.872   1.650  18.767  0.00  0.00    +0.000 A 
ATOM     10  C   UNL     1       3.113   1.720  18.159  0.00  0.00    +0.000 A 
ATOM     11  C   UNL     1       3.816   2.930  18.141  0.00  0.00    +0.000 A 
ATOM     12  C   UNL     1       3.326   4.108  18.754  0.00  0.00    +0.000 A 
ENDBRANCH   2   3
BRANCH   2  13
ATOM     13  N   UNL     1       5.415   5.596  16.680  0.00  0.00    +0.000 NA
ATOM     14  C   UNL     1       4.963   6.791  15.967  0.00  0.00    +0.000 C 
BRANCH  13  15
ATOM     15  C   UNL     1       6.731   5.180  16.150  0.00  0.00    +0.000 C 
BRANCH  15  16
ATOM     16  C   UNL     1       6.753   4.766  14.689  0.00  0.00    +0.000 A 
ATOM     17  C   UNL     1       5.855   3.819  14.176  0.00  0.00    +0.000 A 
ATOM     18  C   UNL     1       5.913   3.435  12.834  0.00  0.00    +0.000 A 
ATOM     19  C   UNL     1       6.843   4.022  11.981  0.00  0.00    +0.000 A 
ATOM     20  C   UNL     1       7.711   4.997  12.464  0.00  0.00    +0.000 A 
ATOM     21  C   UNL     1       7.663   5.372  13.809  0.00  0.00    +0.000 A 
ENDBRANCH  15  16
ENDBRANCH  13  15
ENDBRANCH   2  13
TORSDOF 4
ENDMDL
