MODEL 1
REMARK VINA RESULT:      -6.9      0.000      0.000
REMARK  Name = 
REMARK  6 active torsions:
REMARK  status: ('A' for Active; 'I' for Inactive)
REMARK    1  A    between atoms: C_1  and  O_2
REMARK    2  A    between atoms: O_2  and  C_3
REMARK    3  A    between atoms: N_11  and  C_12
REMARK    4  A    between atoms: C_16  and  C_17
REMARK    5  A    between atoms: C_25  and  O_26
REMARK    6  A    between atoms: O_26  and  C_27
REMARK                            x       y       z     vdW  Elec       q    Type
REMARK                         _______ _______ _______ _____ _____    ______ ____
ROOT
ATOM      1  C   UNL     1       2.912   3.029  21.050  0.00  0.00    +0.000 A 
ATOM      2  C   UNL     1       2.487   4.369  21.019  0.00  0.00    +0.000 A 
ATOM      3  C   UNL     1       2.895   5.262  20.039  0.00  0.00    +0.000 A 
ATOM      4  N   UNL     1       2.335   6.477  20.031  0.00  0.00    +0.000 NA
ATOM      5  C   UNL     1       2.635   7.315  19.039  0.00  0.00    +0.000 A 
ATOM      6  N   UNL     1       2.056   8.572  19.027  0.00  0.00    +0.000 N 
ATOM      7  C   UNL     1       1.774   9.141  17.705  0.00  0.00    +0.000 C 
ATOM      8  C   UNL     1       1.603  10.670  17.844  0.00  0.00    +0.000 C 
ATOM      9  N   UNL     1       0.561  11.051  18.829  0.00  0.00    +0.000 NA
ATOM     10  C   UNL     1       0.527  12.503  18.984  0.00  0.00    +0.000 C 
ATOM     11  C   UNL     1       0.849  10.399  20.130  0.00  0.00    +0.000 C 
ATOM     12  C   UNL     1       1.021   8.864  20.021  0.00  0.00    +0.000 C 
ATOM     13  N   UNL     1       3.528   7.014  18.086  0.00  0.00    +0.000 NA
ATOM     14  C   UNL     1       4.143   5.806  18.115  0.00  0.00    +0.000 A 
ATOM     15  C   UNL     1       3.816   4.841  19.084  0.00  0.00    +0.000 A 
ATOM     16  C   UNL     1       4.300   3.509  19.160  0.00  0.00    +0.000 A 
ATOM     17  C   UNL     1       3.875   2.606  20.138  0.00  0.00    +0.000 A 
ENDROOT
BRANCH  14  18
ATOM     18  C   UNL     1       5.119   5.607  17.011  0.00  0.00    +0.000 A 
ATOM     19  C   UNL     1       6.456   6.044  17.080  0.00  0.00    +0.000 A 
ATOM     20  C   UNL     1       7.381   5.740  16.077  0.00  0.00    +0.000 A 
ATOM     21  C   UNL     1       6.974   5.048  14.943  0.00  0.00    +0.000 A 
ATOM     22  C   UNL     1       5.643   4.666  14.807  0.00  0.00    +0.000 A 
ATOM     23  C   UNL     1       4.732   4.934  15.835  0.00  0.00    +0.000 A 
ENDBRANCH  14  18
BRANCH   1  25
ATOM     24  C   UNL     1       1.010   2.353  22.263  0.00  0.00    +0.000 C 
ATOM     25  O   UNL     1       2.391   2.146  21.958  0.00  0.00    +0.000 OA
ENDBRANCH   1  25
BRANCH  17  26
ATOM     26  O   UNL     1       4.489   1.395  20.002  0.00  0.00    +0.000 OA
ATOM     27  C   UNL     1       5.399   0.953  20.993  0.00  0.00    +0.000 C 
ENDBRANCH  17  26
TORSDOF 3
ENDMDL
MODEL 2
REMARK VINA RESULT:      -6.9      1.128      1.141
REMARK  Name = 
REMARK  6 active torsions:
REMARK  status: ('A' for Active; 'I' for Inactive)
REMARK    1  A    between atoms: C_1  and  O_2
REMARK    2  A    between atoms: O_2  and  C_3
REMARK    3  A    between atoms: N_11  and  C_12
REMARK    4  A    between atoms: C_16  and  C_17
REMARK    5  A    between atoms: C_25  and  O_26
REMARK    6  A    between atoms: O_26  and  C_27
REMARK                            x       y       z     vdW  Elec       q    Type
REMARK                         _______ _______ _______ _____ _____    ______ ____
ROOT
ATOM      1  C   UNL     1       1.696   3.495  20.438  0.00  0.00    +0.000 A 
ATOM      2  C   UNL     1       1.452   4.878  20.516  0.00  0.00    +0.000 A 
ATOM      3  C   UNL     1       2.149   5.807  19.757  0.00  0.00    +0.000 A 
ATOM      4  N   UNL     1       1.753   7.083  19.816  0.00  0.00    +0.000 NA
ATOM      5  C   UNL     1       2.342   7.974  19.020  0.00  0.00    +0.000 A 
ATOM      6  N   UNL     1       1.933   9.295  19.077  0.00  0.00    +0.000 N 
ATOM      7  C   UNL     1       1.987  10.044  17.817  0.00  0.00    +0.000 C 
ATOM      8  C   UNL     1       1.979  11.557  18.132  0.00  0.00    +0.000 C 
ATOM      9  N   UNL     1       0.817  11.972  18.957  0.00  0.00    +0.000 NA
ATOM     10  C   UNL     1       0.930  13.387  19.302  0.00  0.00    +0.000 C 
ATOM     11  C   UNL     1       0.763  11.143  20.187  0.00  0.00    +0.000 C 
ATOM     12  C   UNL     1       0.766   9.621  19.899  0.00  0.00    +0.000 C 
ATOM     13  N   UNL     1       3.361   7.656  18.211  0.00  0.00    +0.000 NA
ATOM     14  C   UNL     1       3.807   6.377  18.183  0.00  0.00    +0.000 A 
ATOM     15  C   UNL     1       3.182   5.366  18.935  0.00  0.00    +0.000 A 
ATOM     16  C   UNL     1       3.477   3.978  18.913  0.00  0.00    +0.000 A 
ATOM     17  C   UNL     1       2.762   3.042  19.664  0.00  0.00    +0.000 A 
ENDROOT
BRANCH  14  18
ATOM     18  C   UNL     1       4.950   6.163  17.255  0.00  0.00    +0.000 A 
ATOM     19  C   UNL     1       6.275   6.519  17.574  0.00  0.00    +0.000 A 
ATOM     20  C   UNL     1       7.345   6.201  16.733  0.00  0.00    +0.000 A 
ATOM     21  C   UNL     1       7.108   5.576  15.514  0.00  0.00    +0.000 A 
ATOM     22  C   UNL     1       5.803   5.277  15.133  0.00  0.00    +0.000 A 
ATOM     23  C   UNL     1       4.741   5.558  16.000  0.00  0.00    +0.000 A 
ENDBRANCH  14  18
BRANCH   1  25
ATOM     24  C   UNL     1       1.388   2.229  22.400  0.00  0.00    +0.000 C 
ATOM     25  O   UNL     1       0.904   2.601  21.107  0.00  0.00    +0.000 OA
ENDBRANCH   1  25
BRANCH  17  26
ATOM     26  O   UNL     1       3.239   1.778  19.476  0.00  0.00    +0.000 OA
ATOM     27  C   UNL     1       3.659   1.371  18.186  0.00  0.00    +0.000 C 
ENDBRANCH  17  26
TORSDOF 3
ENDMDL
MODEL 3
REMARK VINA RESULT:      -6.8      2.323      5.048
REMARK  Name = 
REMARK  6 active torsions:
REMARK  status: ('A' for Active; 'I' for Inactive)
REMARK    1  A    between atoms: C_1  and  O_2
REMARK    2  A    between atoms: O_2  and  C_3
REMARK    3  A    between atoms: N_11  and  C_12
REMARK    4  A    between atoms: C_16  and  C_17
REMARK    5  A    between atoms: C_25  and  O_26
REMARK    6  A    between atoms: O_26  and  C_27
REMARK                            x       y       z     vdW  Elec       q    Type
REMARK                         _______ _______ _______ _____ _____    ______ ____
ROOT
ATOM      1  C   UNL     1       6.161   6.923  17.093  0.00  0.00    +0.000 A 
ATOM      2  C   UNL     1       5.159   7.891  17.279  0.00  0.00    +0.000 A 
ATOM      3  C   UNL     1       3.928   7.597  17.849  0.00  0.00    +0.000 A 
ATOM      4  N   UNL     1       3.095   8.614  18.093  0.00  0.00    +0.000 NA
ATOM      5  C   UNL     1       1.951   8.368  18.731  0.00  0.00    +0.000 A 
ATOM      6  N   UNL     1       1.088   9.419  18.987  0.00  0.00    +0.000 N 
ATOM      7  C   UNL     1       0.310   9.330  20.227  0.00  0.00    +0.000 C 
ATOM      8  C   UNL     1      -0.906  10.277  20.125  0.00  0.00    +0.000 C 
ATOM      9  N   UNL     1      -0.526  11.680  19.827  0.00  0.00    +0.000 NA
ATOM     10  C   UNL     1      -1.726  12.493  19.642  0.00  0.00    +0.000 C 
ATOM     11  C   UNL     1       0.315  11.715  18.605  0.00  0.00    +0.000 C 
ATOM     12  C   UNL     1       1.545  10.777  18.681  0.00  0.00    +0.000 C 
ATOM     13  N   UNL     1       1.571   7.131  19.078  0.00  0.00    +0.000 NA
ATOM     14  C   UNL     1       2.382   6.085  18.786  0.00  0.00    +0.000 A 
ATOM     15  C   UNL     1       3.640   6.278  18.188  0.00  0.00    +0.000 A 
ATOM     16  C   UNL     1       4.625   5.289  17.931  0.00  0.00    +0.000 A 
ATOM     17  C   UNL     1       5.871   5.591  17.375  0.00  0.00    +0.000 A 
ENDROOT
BRANCH  14  18
ATOM     18  C   UNL     1       1.836   4.769  19.212  0.00  0.00    +0.000 A 
ATOM     19  C   UNL     1       1.372   3.800  18.301  0.00  0.00    +0.000 A 
ATOM     20  C   UNL     1       0.973   2.528  18.722  0.00  0.00    +0.000 A 
ATOM     21  C   UNL     1       0.962   2.215  20.076  0.00  0.00    +0.000 A 
ATOM     22  C   UNL     1       1.343   3.175  21.009  0.00  0.00    +0.000 A 
ATOM     23  C   UNL     1       1.784   4.431  20.579  0.00  0.00    +0.000 A 
ENDBRANCH  14  18
BRANCH   1  25
ATOM     24  C   UNL     1       8.093   8.215  17.476  0.00  0.00    +0.000 C 
ATOM     25  O   UNL     1       7.406   7.275  16.645  0.00  0.00    +0.000 OA
ENDBRANCH   1  25
BRANCH  17  26
ATOM     26  O   UNL     1       6.636   4.471  17.223  0.00  0.00    +0.000 OA
ATOM     27  C   UNL     1       6.946   4.002  15.923  0.00  0.00    +0.000 C 
ENDBRANCH  17  26
TORSDOF 3
ENDMDL
MODEL 4
REMARK VINA RESULT:      -6.7      4.242      6.709
REMARK  Name = 
REMARK  6 active torsions:
REMARK  status: ('A' for Active; 'I' for Inactive)
REMARK    1  A    between atoms: C_1  and  O_2
REMARK    2  A    between atoms: O_2  and  C_3
REMARK    3  A    between atoms: N_11  and  C_12
REMARK    4  A    between atoms: C_16  and  C_17
REMARK    5  A    between atoms: C_25  and  O_26
REMARK    6  A    between atoms: O_26  and  C_27
REMARK                            x       y       z     vdW  Elec       q    Type
REMARK                         _______ _______ _______ _____ _____    ______ ____
ROOT
ATOM      1  C   UNL     1       6.068   3.840  13.399  0.00  0.00    +0.000 A 
ATOM      2  C   UNL     1       5.314   3.413  14.505  0.00  0.00    +0.000 A 
ATOM      3  C   UNL     1       5.365   4.047  15.738  0.00  0.00    +0.000 A 
ATOM      4  N   UNL     1       4.515   3.637  16.686  0.00  0.00    +0.000 NA
ATOM      5  C   UNL     1       4.476   4.299  17.842  0.00  0.00    +0.000 A 
ATOM      6  N   UNL     1       3.596   3.878  18.825  0.00  0.00    +0.000 N 
ATOM      7  C   UNL     1       3.030   4.928  19.678  0.00  0.00    +0.000 C 
ATOM      8  C   UNL     1       2.489   4.282  20.974  0.00  0.00    +0.000 C 
ATOM      9  N   UNL     1       1.502   3.205  20.718  0.00  0.00    +0.000 NA
ATOM     10  C   UNL     1       1.115   2.573  21.977  0.00  0.00    +0.000 C 
ATOM     11  C   UNL     1       2.093   2.202  19.797  0.00  0.00    +0.000 C 
ATOM     12  C   UNL     1       2.640   2.821  18.487  0.00  0.00    +0.000 C 
ATOM     13  N   UNL     1       5.303   5.317  18.119  0.00  0.00    +0.000 NA
ATOM     14  C   UNL     1       6.206   5.706  17.186  0.00  0.00    +0.000 A 
ATOM     15  C   UNL     1       6.249   5.108  15.914  0.00  0.00    +0.000 A 
ATOM     16  C   UNL     1       7.065   5.491  14.817  0.00  0.00    +0.000 A 
ATOM     17  C   UNL     1       6.999   4.862  13.572  0.00  0.00    +0.000 A 
ENDROOT
BRANCH  14  18
ATOM     18  C   UNL     1       7.069   6.834  17.626  0.00  0.00    +0.000 A 
ATOM     19  C   UNL     1       7.015   8.114  17.042  0.00  0.00    +0.000 A 
ATOM     20  C   UNL     1       7.754   9.186  17.552  0.00  0.00    +0.000 A 
ATOM     21  C   UNL     1       8.621   8.987  18.619  0.00  0.00    +0.000 A 
ATOM     22  C   UNL     1       8.755   7.717  19.172  0.00  0.00    +0.000 A 
ATOM     23  C   UNL     1       7.980   6.659  18.687  0.00  0.00    +0.000 A 
ENDBRANCH  14  18
BRANCH   1  25
ATOM     24  C   UNL     1       4.555   3.302  11.676  0.00  0.00    +0.000 C 
ATOM     25  O   UNL     1       5.898   3.268  12.167  0.00  0.00    +0.000 OA
ENDBRANCH   1  25
BRANCH  17  26
ATOM     26  O   UNL     1       7.884   5.407  12.688  0.00  0.00    +0.000 OA
ATOM     27  C   UNL     1       9.110   5.938  13.157  0.00  0.00    +0.000 C 
ENDBRANCH  17  26
TORSDOF 3
ENDMDL
MODEL 5
REMARK VINA RESULT:      -6.5      0.487      1.046
REMARK  Name = 
REMARK  6 active torsions:
REMARK  status: ('A' for Active; 'I' for Inactive)
REMARK    1  A    between atoms: C_1  and  O_2
REMARK    2  A    between atoms: O_2  and  C_3
REMARK    3  A    between atoms: N_11  and  C_12
REMARK    4  A    between atoms: C_16  and  C_17
REMARK    5  A    between atoms: C_25  and  O_26
REMARK    6  A    between atoms: O_26  and  C_27
REMARK                            x       y       z     vdW  Elec       q    Type
REMARK                         _______ _______ _______ _____ _____    ______ ____
ROOT
ATOM      1  C   UNL     1       2.822   3.031  21.067  0.00  0.00    +0.000 A 
ATOM      2  C   UNL     1       2.417   4.377  21.040  0.00  0.00    +0.000 A 
ATOM      3  C   UNL     1       2.838   5.267  20.063  0.00  0.00    +0.000 A 
ATOM      4  N   UNL     1       2.297   6.490  20.059  0.00  0.00    +0.000 NA
ATOM      5  C   UNL     1       2.610   7.327  19.070  0.00  0.00    +0.000 A 
ATOM      6  N   UNL     1       2.050   8.593  19.062  0.00  0.00    +0.000 N 
ATOM      7  C   UNL     1       1.778   9.170  17.742  0.00  0.00    +0.000 C 
ATOM      8  C   UNL     1       1.629  10.702  17.886  0.00  0.00    +0.000 C 
ATOM      9  N   UNL     1       0.591  11.094  18.871  0.00  0.00    +0.000 NA
ATOM     10  C   UNL     1       0.579  12.546  19.031  0.00  0.00    +0.000 C 
ATOM     11  C   UNL     1       0.868  10.434  20.171  0.00  0.00    +0.000 C 
ATOM     12  C   UNL     1       1.018   8.896  20.056  0.00  0.00    +0.000 C 
ATOM     13  N   UNL     1       3.500   7.017  18.118  0.00  0.00    +0.000 NA
ATOM     14  C   UNL     1       4.097   5.800  18.143  0.00  0.00    +0.000 A 
ATOM     15  C   UNL     1       3.754   4.836  19.108  0.00  0.00    +0.000 A 
ATOM     16  C   UNL     1       4.220   3.497  19.180  0.00  0.00    +0.000 A 
ATOM     17  C   UNL     1       3.780   2.597  20.154  0.00  0.00    +0.000 A 
ENDROOT
BRANCH  14  18
ATOM     18  C   UNL     1       5.072   5.590  17.039  0.00  0.00    +0.000 A 
ATOM     19  C   UNL     1       4.765   4.864  15.872  0.00  0.00    +0.000 A 
ATOM     20  C   UNL     1       5.659   4.782  14.801  0.00  0.00    +0.000 A 
ATOM     21  C   UNL     1       6.916   5.368  14.900  0.00  0.00    +0.000 A 
ATOM     22  C   UNL     1       7.281   6.029  16.069  0.00  0.00    +0.000 A 
ATOM     23  C   UNL     1       6.364   6.146  17.119  0.00  0.00    +0.000 A 
ENDBRANCH  14  18
BRANCH   1  25
ATOM     24  C   UNL     1       0.944   2.448  22.364  0.00  0.00    +0.000 C 
ATOM     25  O   UNL     1       2.287   2.153  21.971  0.00  0.00    +0.000 OA
ENDBRANCH   1  25
BRANCH  17  26
ATOM     26  O   UNL     1       4.376   1.377  20.015  0.00  0.00    +0.000 OA
ATOM     27  C   UNL     1       4.334   0.713  18.765  0.00  0.00    +0.000 C 
ENDBRANCH  17  26
TORSDOF 3
ENDMDL
MODEL 6
REMARK VINA RESULT:      -6.2      2.070      5.053
REMARK  Name = 
REMARK  6 active torsions:
REMARK  status: ('A' for Active; 'I' for Inactive)
REMARK    1  A    between atoms: C_1  and  O_2
REMARK    2  A    between atoms: O_2  and  C_3
REMARK    3  A    between atoms: N_11  and  C_12
REMARK    4  A    between atoms: C_16  and  C_17
REMARK    5  A    between atoms: C_25  and  O_26
REMARK    6  A    between atoms: O_26  and  C_27
REMARK                            x       y       z     vdW  Elec       q    Type
REMARK                         _______ _______ _______ _____ _____    ______ ____
ROOT
ATOM      1  C   UNL     1       5.523   6.067  16.222  0.00  0.00    +0.000 A 
ATOM      2  C   UNL     1       4.676   7.148  16.524  0.00  0.00    +0.000 A 
ATOM      3  C   UNL     1       3.676   7.073  17.482  0.00  0.00    +0.000 A 
ATOM      4  N   UNL     1       3.010   8.195  17.778  0.00  0.00    +0.000 NA
ATOM      5  C   UNL     1       2.117   8.169  18.766  0.00  0.00    +0.000 A 
ATOM      6  N   UNL     1       1.428   9.329  19.076  0.00  0.00    +0.000 N 
ATOM      7  C   UNL     1       1.079   9.516  20.488  0.00  0.00    +0.000 C 
ATOM      8  C   UNL     1      -0.063  10.553  20.588  0.00  0.00    +0.000 C 
ATOM      9  N   UNL     1       0.268  11.846  19.939  0.00  0.00    +0.000 NA
ATOM     10  C   UNL     1      -0.890  12.736  19.981  0.00  0.00    +0.000 C 
ATOM     11  C   UNL     1       0.681  11.602  18.534  0.00  0.00    +0.000 C 
ATOM     12  C   UNL     1       1.827  10.568  18.404  0.00  0.00    +0.000 C 
ATOM     13  N   UNL     1       1.809   7.047  19.430  0.00  0.00    +0.000 NA
ATOM     14  C   UNL     1       2.437   5.892  19.102  0.00  0.00    +0.000 A 
ATOM     15  C   UNL     1       3.450   5.861  18.126  0.00  0.00    +0.000 A 
ATOM     16  C   UNL     1       4.256   4.749  17.768  0.00  0.00    +0.000 A 
ATOM     17  C   UNL     1       5.275   4.832  16.816  0.00  0.00    +0.000 A 
ENDROOT
BRANCH  14  18
ATOM     18  C   UNL     1       1.993   4.722  19.905  0.00  0.00    +0.000 A 
ATOM     19  C   UNL     1       1.091   3.755  19.419  0.00  0.00    +0.000 A 
ATOM     20  C   UNL     1       0.782   2.605  20.151  0.00  0.00    +0.000 A 
ATOM     21  C   UNL     1       1.315   2.426  21.422  0.00  0.00    +0.000 A 
ATOM     22  C   UNL     1       2.150   3.398  21.964  0.00  0.00    +0.000 A 
ATOM     23  C   UNL     1       2.492   4.525  21.208  0.00  0.00    +0.000 A 
ENDBRANCH  14  18
BRANCH   1  25
ATOM     24  C   UNL     1       6.692   5.187  14.377  0.00  0.00    +0.000 C 
ATOM     25  O   UNL     1       6.578   6.216  15.362  0.00  0.00    +0.000 OA
ENDBRANCH   1  25
BRANCH  17  26
ATOM     26  O   UNL     1       5.900   3.631  16.646  0.00  0.00    +0.000 OA
ATOM     27  C   UNL     1       5.133   2.468  16.389  0.00  0.00    +0.000 C 
ENDBRANCH  17  26
TORSDOF 3
ENDMDL
MODEL 7
REMARK VINA RESULT:      -6.2      6.748      9.889
REMARK  Name = 
REMARK  6 active torsions:
REMARK  status: ('A' for Active; 'I' for Inactive)
REMARK    1  A    between atoms: C_1  and  O_2
REMARK    2  A    between atoms: O_2  and  C_3
REMARK    3  A    between atoms: N_11  and  C_12
REMARK    4  A    between atoms: C_16  and  C_17
REMARK    5  A    between atoms: C_25  and  O_26
REMARK    6  A    between atoms: O_26  and  C_27
REMARK                            x       y       z     vdW  Elec       q    Type
REMARK                         _______ _______ _______ _____ _____    ______ ____
ROOT
ATOM      1  C   UNL     1      -5.305  11.931  17.652  0.00  0.00    +0.000 A 
ATOM      2  C   UNL     1      -5.075  12.456  18.935  0.00  0.00    +0.000 A 
ATOM      3  C   UNL     1      -3.819  12.469  19.526  0.00  0.00    +0.000 A 
ATOM      4  N   UNL     1      -3.687  13.103  20.697  0.00  0.00    +0.000 NA
ATOM      5  C   UNL     1      -2.472  13.216  21.232  0.00  0.00    +0.000 A 
ATOM      6  N   UNL     1      -2.332  13.874  22.441  0.00  0.00    +0.000 N 
ATOM      7  C   UNL     1      -1.084  14.619  22.632  0.00  0.00    +0.000 C 
ATOM      8  C   UNL     1      -0.873  14.866  24.142  0.00  0.00    +0.000 C 
ATOM      9  N   UNL     1      -2.018  15.560  24.782  0.00  0.00    +0.000 NA
ATOM     10  C   UNL     1      -1.796  15.666  26.222  0.00  0.00    +0.000 C 
ATOM     11  C   UNL     1      -3.268  14.808  24.507  0.00  0.00    +0.000 C 
ATOM     12  C   UNL     1      -3.506  14.549  22.999  0.00  0.00    +0.000 C 
ATOM     13  N   UNL     1      -1.386  12.660  20.678  0.00  0.00    +0.000 NA
ATOM     14  C   UNL     1      -1.517  11.967  19.520  0.00  0.00    +0.000 A 
ATOM     15  C   UNL     1      -2.753  11.876  18.856  0.00  0.00    +0.000 A 
ATOM     16  C   UNL     1      -3.002  11.280  17.592  0.00  0.00    +0.000 A 
ATOM     17  C   UNL     1      -4.263  11.285  16.991  0.00  0.00    +0.000 A 
ENDROOT
BRANCH  14  18
ATOM     18  C   UNL     1      -0.239  11.391  19.023  0.00  0.00    +0.000 A 
ATOM     19  C   UNL     1      -0.081  10.025  18.717  0.00  0.00    +0.000 A 
ATOM     20  C   UNL     1       1.093   9.532  18.141  0.00  0.00    +0.000 A 
ATOM     21  C   UNL     1       2.169  10.384  17.919  0.00  0.00    +0.000 A 
ATOM     22  C   UNL     1       2.074  11.724  18.279  0.00  0.00    +0.000 A 
ATOM     23  C   UNL     1       0.880  12.221  18.813  0.00  0.00    +0.000 A 
ENDBRANCH  14  18
BRANCH   1  25
ATOM     24  C   UNL     1      -7.210  13.277  17.326  0.00  0.00    +0.000 C 
ATOM     25  O   UNL     1      -6.530  12.049  17.052  0.00  0.00    +0.000 OA
ENDBRANCH   1  25
BRANCH  17  26
ATOM     26  O   UNL     1      -4.245  10.646  15.785  0.00  0.00    +0.000 OA
ATOM     27  C   UNL     1      -3.008  10.384  15.147  0.00  0.00    +0.000 C 
ENDBRANCH  17  26
TORSDOF 3
ENDMDL
MODEL 8
REMARK VINA RESULT:      -6.2      8.513     10.712
REMARK  Name = 
REMARK  6 active torsions:
REMARK  status: ('A' for Active; 'I' for Inactive)
REMARK    1  A    between atoms: C_1  and  O_2
REMARK    2  A    between atoms: O_2  and  C_3
REMARK    3  A    between atoms: N_11  and  C_12
REMARK    4  A    between atoms: C_16  and  C_17
REMARK    5  A    between atoms: C_25  and  O_26
REMARK    6  A    between atoms: O_26  and  C_27
REMARK                            x       y       z     vdW  Elec       q    Type
REMARK                         _______ _______ _______ _____ _____    ______ ____
ROOT
ATOM      1  C   UNL     1      -3.549  10.880  16.992  0.00  0.00    +0.000 A 
ATOM      2  C   UNL     1      -2.293  11.506  17.074  0.00  0.00    +0.000 A 
ATOM      3  C   UNL     1      -1.852  12.156  18.217  0.00  0.00    +0.000 A 
ATOM      4  N   UNL     1      -0.594  12.610  18.230  0.00  0.00    +0.000 NA
ATOM      5  C   UNL     1      -0.117  13.146  19.353  0.00  0.00    +0.000 A 
ATOM      6  N   UNL     1       1.185  13.615  19.371  0.00  0.00    +0.000 N 
ATOM      7  C   UNL     1       1.901  13.488  20.644  0.00  0.00    +0.000 C 
ATOM      8  C   UNL     1       3.102  14.459  20.643  0.00  0.00    +0.000 C 
ATOM      9  N   UNL     1       4.013  14.255  19.490  0.00  0.00    +0.000 NA
ATOM     10  C   UNL     1       5.063  15.271  19.496  0.00  0.00    +0.000 C 
ATOM     11  C   UNL     1       3.236  14.324  18.227  0.00  0.00    +0.000 C 
ATOM     12  C   UNL     1       2.026  13.357  18.200  0.00  0.00    +0.000 C 
ATOM     13  N   UNL     1      -0.870  13.312  20.449  0.00  0.00    +0.000 NA
ATOM     14  C   UNL     1      -2.163  12.906  20.429  0.00  0.00    +0.000 A 
ATOM     15  C   UNL     1      -2.710  12.258  19.308  0.00  0.00    +0.000 A 
ATOM     16  C   UNL     1      -4.006  11.689  19.198  0.00  0.00    +0.000 A 
ATOM     17  C   UNL     1      -4.441  11.019  18.052  0.00  0.00    +0.000 A 
ENDROOT
BRANCH  14  18
ATOM     18  C   UNL     1      -2.888  13.161  21.703  0.00  0.00    +0.000 A 
ATOM     19  C   UNL     1      -3.725  14.276  21.899  0.00  0.00    +0.000 A 
ATOM     20  C   UNL     1      -4.485  14.429  23.063  0.00  0.00    +0.000 A 
ATOM     21  C   UNL     1      -4.373  13.501  24.092  0.00  0.00    +0.000 A 
ATOM     22  C   UNL     1      -3.499  12.427  23.962  0.00  0.00    +0.000 A 
ATOM     23  C   UNL     1      -2.775  12.256  22.777  0.00  0.00    +0.000 A 
ENDBRANCH  14  18
BRANCH   1  25
ATOM     24  C   UNL     1      -3.042  10.319  14.761  0.00  0.00    +0.000 C 
ATOM     25  O   UNL     1      -3.898  10.141  15.893  0.00  0.00    +0.000 OA
ENDBRANCH   1  25
BRANCH  17  26
ATOM     26  O   UNL     1      -5.723  10.570  18.191  0.00  0.00    +0.000 OA
ATOM     27  C   UNL     1      -6.788  11.499  18.273  0.00  0.00    +0.000 C 
ENDBRANCH  17  26
TORSDOF 3
ENDMDL
MODEL 9
REMARK VINA RESULT:      -6.1      4.826      8.159
REMARK  Name = 
REMARK  6 active torsions:
REMARK  status: ('A' for Active; 'I' for Inactive)
REMARK    1  A    between atoms: C_1  and  O_2
REMARK    2  A    between atoms: O_2  and  C_3
REMARK    3  A    between atoms: N_11  and  C_12
REMARK    4  A    between atoms: C_16  and  C_17
REMARK    5  A    between atoms: C_25  and  O_26
REMARK    6  A    between atoms: O_26  and  C_27
REMARK                            x       y       z     vdW  Elec       q    Type
REMARK                         _______ _______ _______ _____ _____    ______ ____
ROOT
ATOM      1  C   UNL     1      -3.296  11.721  18.189  0.00  0.00    +0.000 A 
ATOM      2  C   UNL     1      -2.518  12.546  19.020  0.00  0.00    +0.000 A 
ATOM      3  C   UNL     1      -1.226  12.218  19.405  0.00  0.00    +0.000 A 
ATOM      4  N   UNL     1      -0.530  13.129  20.094  0.00  0.00    +0.000 NA
ATOM      5  C   UNL     1       0.745  12.877  20.386  0.00  0.00    +0.000 A 
ATOM      6  N   UNL     1       1.468  13.819  21.096  0.00  0.00    +0.000 N 
ATOM      7  C   UNL     1       2.896  13.915  20.776  0.00  0.00    +0.000 C 
ATOM      8  C   UNL     1       3.626  14.620  21.942  0.00  0.00    +0.000 C 
ATOM      9  N   UNL     1       3.055  15.951  22.264  0.00  0.00    +0.000 NA
ATOM     10  C   UNL     1       3.722  16.509  23.437  0.00  0.00    +0.000 C 
ATOM     11  C   UNL     1       1.598  15.816  22.514  0.00  0.00    +0.000 C 
ATOM     12  C   UNL     1       0.841  15.116  21.359  0.00  0.00    +0.000 C 
ATOM     13  N   UNL     1       1.339  11.716  20.077  0.00  0.00    +0.000 NA
ATOM     14  C   UNL     1       0.628  10.763  19.427  0.00  0.00    +0.000 A 
ATOM     15  C   UNL     1      -0.697  10.991  19.015  0.00  0.00    +0.000 A 
ATOM     16  C   UNL     1      -1.511  10.126  18.238  0.00  0.00    +0.000 A 
ATOM     17  C   UNL     1      -2.805  10.466  17.836  0.00  0.00    +0.000 A 
ENDROOT
BRANCH  14  18
ATOM     18  C   UNL     1       1.401   9.521  19.158  0.00  0.00    +0.000 A 
ATOM     19  C   UNL     1       1.536   8.482  20.099  0.00  0.00    +0.000 A 
ATOM     20  C   UNL     1       2.168   7.277  19.778  0.00  0.00    +0.000 A 
ATOM     21  C   UNL     1       2.745   7.108  18.525  0.00  0.00    +0.000 A 
ATOM     22  C   UNL     1       2.695   8.142  17.596  0.00  0.00    +0.000 A 
ATOM     23  C   UNL     1       2.021   9.329  17.908  0.00  0.00    +0.000 A 
ENDBRANCH  14  18
BRANCH   1  25
ATOM     24  C   UNL     1      -5.529  12.232  18.733  0.00  0.00    +0.000 C 
ATOM     25  O   UNL     1      -4.516  12.136  17.729  0.00  0.00    +0.000 OA
ENDBRANCH   1  25
BRANCH  17  26
ATOM     26  O   UNL     1      -3.381   9.468  17.104  0.00  0.00    +0.000 OA
ATOM     27  C   UNL     1      -3.256   9.470  15.693  0.00  0.00    +0.000 C 
ENDBRANCH  17  26
TORSDOF 3
ENDMDL
