MODEL 1
REMARK VINA RESULT:      -8.0      0.000      0.000
REMARK  Name = 
REMARK  4 active torsions:
REMARK  status: ('A' for Active; 'I' for Inactive)
REMARK    1  A    between atoms: C_2  and  C_3
REMARK    2  A    between atoms: C_2  and  C_16
REMARK    3  A    between atoms: C_3  and  C_4
REMARK    4  A    between atoms: C_4  and  O_5
REMARK                            x       y       z     vdW  Elec       q    Type
REMARK                         _______ _______ _______ _____ _____    ______ ____
ROOT
ATOM      1  C   UNL     1       4.441   4.409  17.588  0.00  0.00    +0.000 C 
ATOM      2  C   UNL     1       3.068   3.782  17.318  0.00  0.00    +0.000 C 
ATOM      3  O   UNL     1       2.650   3.367  16.255  0.00  0.00    +0.000 OA
ATOM      4  C   UNL     1       2.361   3.692  18.601  0.00  0.00    +0.000 A 
ATOM      5  C   UNL     1       1.181   3.026  18.891  0.00  0.00    +0.000 A 
ATOM      6  C   UNL     1       0.755   3.022  20.223  0.00  0.00    +0.000 A 
ATOM      7  C   UNL     1       1.497   3.681  21.223  0.00  0.00    +0.000 A 
ATOM      8  C   UNL     1       2.678   4.361  20.909  0.00  0.00    +0.000 A 
ATOM      9  C   UNL     1       3.087   4.345  19.589  0.00  0.00    +0.000 A 
ATOM     10  C   UNL     1       4.308   4.918  19.021  0.00  0.00    +0.000 C 
ATOM     11  O   UNL     1       5.084   5.632  19.632  0.00  0.00    +0.000 OA
ENDROOT
BRANCH   1  12
ATOM     12  O   UNL     1       5.424   3.365  17.634  0.00  0.00    +0.000 OA
ATOM     13  H   UNL     1       5.246   2.808  18.411  0.00  0.00    +0.000 HD
ENDBRANCH   1  12
BRANCH   1  14
ATOM     14  C   UNL     1       4.868   5.486  16.601  0.00  0.00    +0.000 C 
BRANCH  14  16
ATOM     15  O   UNL     1       7.265   5.462  16.743  0.00  0.00    +0.000 OA
ATOM     16  C   UNL     1       6.263   5.267  16.056  0.00  0.00    +0.000 C 
BRANCH  16  17
ATOM     17  C   UNL     1       6.425   4.840  14.637  0.00  0.00    +0.000 A 
ATOM     18  C   UNL     1       5.569   3.914  14.028  0.00  0.00    +0.000 A 
ATOM     19  C   UNL     1       5.813   3.494  12.717  0.00  0.00    +0.000 A 
ATOM     20  C   UNL     1       6.899   4.002  12.007  0.00  0.00    +0.000 A 
ATOM     21  C   UNL     1       7.741   4.943  12.599  0.00  0.00    +0.000 A 
ATOM     22  C   UNL     1       7.507   5.358  13.911  0.00  0.00    +0.000 A 
ENDBRANCH  16  17
ENDBRANCH  14  16
ENDBRANCH   1  14
TORSDOF 4
ENDMDL
MODEL 2
REMARK VINA RESULT:      -7.9      2.399      6.380
REMARK  Name = 
REMARK  4 active torsions:
REMARK  status: ('A' for Active; 'I' for Inactive)
REMARK    1  A    between atoms: C_2  and  C_3
REMARK    2  A    between atoms: C_2  and  C_16
REMARK    3  A    between atoms: C_3  and  C_4
REMARK    4  A    between atoms: C_4  and  O_5
REMARK                            x       y       z     vdW  Elec       q    Type
REMARK                         _______ _______ _______ _____ _____    ______ ____
ROOT
ATOM      1  C   UNL     1       5.163   4.509  16.907  0.00  0.00    +0.000 C 
ATOM      2  C   UNL     1       5.807   4.472  18.298  0.00  0.00    +0.000 C 
ATOM      3  O   UNL     1       5.667   3.612  19.145  0.00  0.00    +0.000 OA
ATOM      4  C   UNL     1       6.701   5.631  18.404  0.00  0.00    +0.000 A 
ATOM      5  C   UNL     1       7.637   5.912  19.387  0.00  0.00    +0.000 A 
ATOM      6  C   UNL     1       8.431   7.050  19.213  0.00  0.00    +0.000 A 
ATOM      7  C   UNL     1       8.271   7.879  18.085  0.00  0.00    +0.000 A 
ATOM      8  C   UNL     1       7.312   7.588  17.111  0.00  0.00    +0.000 A 
ATOM      9  C   UNL     1       6.544   6.454  17.296  0.00  0.00    +0.000 A 
ATOM     10  C   UNL     1       5.530   5.901  16.397  0.00  0.00    +0.000 C 
ATOM     11  O   UNL     1       5.112   6.462  15.399  0.00  0.00    +0.000 OA
ENDROOT
BRANCH   1  12
ATOM     12  O   UNL     1       5.854   3.586  16.053  0.00  0.00    +0.000 OA
ATOM     13  H   UNL     1       5.446   2.710  16.153  0.00  0.00    +0.000 HD
ENDBRANCH   1  12
BRANCH   1  14
ATOM     14  C   UNL     1       3.668   4.229  16.876  0.00  0.00    +0.000 C 
BRANCH  14  16
ATOM     15  O   UNL     1       2.767   6.255  17.800  0.00  0.00    +0.000 OA
ATOM     16  C   UNL     1       2.895   5.036  17.898  0.00  0.00    +0.000 C 
BRANCH  16  17
ATOM     17  C   UNL     1       2.303   4.334  19.074  0.00  0.00    +0.000 A 
ATOM     18  C   UNL     1       2.615   4.685  20.393  0.00  0.00    +0.000 A 
ATOM     19  C   UNL     1       2.088   3.945  21.455  0.00  0.00    +0.000 A 
ATOM     20  C   UNL     1       1.241   2.866  21.208  0.00  0.00    +0.000 A 
ATOM     21  C   UNL     1       0.907   2.527  19.898  0.00  0.00    +0.000 A 
ATOM     22  C   UNL     1       1.438   3.258  18.833  0.00  0.00    +0.000 A 
ENDBRANCH  16  17
ENDBRANCH  14  16
ENDBRANCH   1  14
TORSDOF 4
ENDMDL
MODEL 3
REMARK VINA RESULT:      -7.9      1.225      6.706
REMARK  Name = 
REMARK  4 active torsions:
REMARK  status: ('A' for Active; 'I' for Inactive)
REMARK    1  A    between atoms: C_2  and  C_3
REMARK    2  A    between atoms: C_2  and  C_16
REMARK    3  A    between atoms: C_3  and  C_4
REMARK    4  A    between atoms: C_4  and  O_5
REMARK                            x       y       z     vdW  Elec       q    Type
REMARK                         _______ _______ _______ _____ _____    ______ ____
ROOT
ATOM      1  C   UNL     1       6.069   4.938  16.916  0.00  0.00    +0.000 C 
ATOM      2  C   UNL     1       7.018   5.683  15.970  0.00  0.00    +0.000 C 
ATOM      3  O   UNL     1       7.803   6.563  16.264  0.00  0.00    +0.000 OA
ATOM      4  C   UNL     1       6.875   5.085  14.637  0.00  0.00    +0.000 A 
ATOM      5  C   UNL     1       7.658   5.289  13.511  0.00  0.00    +0.000 A 
ATOM      6  C   UNL     1       7.361   4.527  12.376  0.00  0.00    +0.000 A 
ATOM      7  C   UNL     1       6.300   3.601  12.381  0.00  0.00    +0.000 A 
ATOM      8  C   UNL     1       5.512   3.420  13.522  0.00  0.00    +0.000 A 
ATOM      9  C   UNL     1       5.827   4.174  14.636  0.00  0.00    +0.000 A 
ATOM     10  C   UNL     1       5.203   4.121  15.960  0.00  0.00    +0.000 C 
ATOM     11  O   UNL     1       4.198   3.487  16.224  0.00  0.00    +0.000 OA
ENDROOT
BRANCH   1  12
ATOM     12  O   UNL     1       6.826   3.981  17.671  0.00  0.00    +0.000 OA
ATOM     13  H   UNL     1       6.209   3.451  18.204  0.00  0.00    +0.000 HD
ENDBRANCH   1  12
BRANCH   1  14
ATOM     14  C   UNL     1       5.262   5.823  17.855  0.00  0.00    +0.000 C 
BRANCH  14  16
ATOM     15  O   UNL     1       6.046   5.106  20.009  0.00  0.00    +0.000 OA
ATOM     16  C   UNL     1       5.097   5.224  19.235  0.00  0.00    +0.000 C 
BRANCH  16  17
ATOM     17  C   UNL     1       3.753   4.731  19.653  0.00  0.00    +0.000 A 
ATOM     18  C   UNL     1       2.732   5.594  20.070  0.00  0.00    +0.000 A 
ATOM     19  C   UNL     1       1.517   5.072  20.521  0.00  0.00    +0.000 A 
ATOM     20  C   UNL     1       1.309   3.694  20.545  0.00  0.00    +0.000 A 
ATOM     21  C   UNL     1       2.313   2.830  20.107  0.00  0.00    +0.000 A 
ATOM     22  C   UNL     1       3.532   3.347  19.665  0.00  0.00    +0.000 A 
ENDBRANCH  16  17
ENDBRANCH  14  16
ENDBRANCH   1  14
TORSDOF 4
ENDMDL
MODEL 4
REMARK VINA RESULT:      -7.9      0.067      1.056
REMARK  Name = 
REMARK  4 active torsions:
REMARK  status: ('A' for Active; 'I' for Inactive)
REMARK    1  A    between atoms: C_2  and  C_3
REMARK    2  A    between atoms: C_2  and  C_16
REMARK    3  A    between atoms: C_3  and  C_4
REMARK    4  A    between atoms: C_4  and  O_5
REMARK                            x       y       z     vdW  Elec       q    Type
REMARK                         _______ _______ _______ _____ _____    ______ ____
ROOT
ATOM      1  C   UNL     1       4.429   4.406  17.558  0.00  0.00    +0.000 C 
ATOM      2  C   UNL     1       3.046   3.792  17.314  0.00  0.00    +0.000 C 
ATOM      3  O   UNL     1       2.606   3.373  16.262  0.00  0.00    +0.000 OA
ATOM      4  C   UNL     1       2.358   3.720  18.609  0.00  0.00    +0.000 A 
ATOM      5  C   UNL     1       1.175   3.069  18.923  0.00  0.00    +0.000 A 
ATOM      6  C   UNL     1       0.771   3.080  20.262  0.00  0.00    +0.000 A 
ATOM      7  C   UNL     1       1.536   3.739  21.244  0.00  0.00    +0.000 A 
ATOM      8  C   UNL     1       2.720   4.403  20.906  0.00  0.00    +0.000 A 
ATOM      9  C   UNL     1       3.107   4.372  19.580  0.00  0.00    +0.000 A 
ATOM     10  C   UNL     1       4.325   4.928  18.989  0.00  0.00    +0.000 C 
ATOM     11  O   UNL     1       5.118   5.638  19.581  0.00  0.00    +0.000 OA
ENDROOT
BRANCH   1  12
ATOM     12  O   UNL     1       5.402   3.352  17.596  0.00  0.00    +0.000 OA
ATOM     13  H   UNL     1       5.014   2.559  17.188  0.00  0.00    +0.000 HD
ENDBRANCH   1  12
BRANCH   1  14
ATOM     14  C   UNL     1       4.852   5.470  16.556  0.00  0.00    +0.000 C 
BRANCH  14  16
ATOM     15  O   UNL     1       7.240   5.553  16.802  0.00  0.00    +0.000 OA
ATOM     16  C   UNL     1       6.278   5.298  16.078  0.00  0.00    +0.000 C 
BRANCH  16  17
ATOM     17  C   UNL     1       6.522   4.840  14.680  0.00  0.00    +0.000 A 
ATOM     18  C   UNL     1       7.580   5.327  13.903  0.00  0.00    +0.000 A 
ATOM     19  C   UNL     1       7.716   4.918  12.574  0.00  0.00    +0.000 A 
ATOM     20  C   UNL     1       6.810   4.016  12.019  0.00  0.00    +0.000 A 
ATOM     21  C   UNL     1       5.769   3.508  12.795  0.00  0.00    +0.000 A 
ATOM     22  C   UNL     1       5.623   3.921  14.120  0.00  0.00    +0.000 A 
ENDBRANCH  16  17
ENDBRANCH  14  16
ENDBRANCH   1  14
TORSDOF 4
ENDMDL
MODEL 5
REMARK VINA RESULT:      -7.9      1.246      6.664
REMARK  Name = 
REMARK  4 active torsions:
REMARK  status: ('A' for Active; 'I' for Inactive)
REMARK    1  A    between atoms: C_2  and  C_3
REMARK    2  A    between atoms: C_2  and  C_16
REMARK    3  A    between atoms: C_3  and  C_4
REMARK    4  A    between atoms: C_4  and  O_5
REMARK                            x       y       z     vdW  Elec       q    Type
REMARK                         _______ _______ _______ _____ _____    ______ ____
ROOT
ATOM      1  C   UNL     1       6.097   4.920  16.905  0.00  0.00    +0.000 C 
ATOM      2  C   UNL     1       7.025   5.671  15.943  0.00  0.00    +0.000 C 
ATOM      3  O   UNL     1       7.803   6.561  16.223  0.00  0.00    +0.000 OA
ATOM      4  C   UNL     1       6.872   5.064  14.615  0.00  0.00    +0.000 A 
ATOM      5  C   UNL     1       7.638   5.271  13.479  0.00  0.00    +0.000 A 
ATOM      6  C   UNL     1       7.335   4.501  12.351  0.00  0.00    +0.000 A 
ATOM      7  C   UNL     1       6.285   3.563  12.375  0.00  0.00    +0.000 A 
ATOM      8  C   UNL     1       5.513   3.379  13.526  0.00  0.00    +0.000 A 
ATOM      9  C   UNL     1       5.834   4.142  14.632  0.00  0.00    +0.000 A 
ATOM     10  C   UNL     1       5.228   4.089  15.964  0.00  0.00    +0.000 C 
ATOM     11  O   UNL     1       4.233   3.445  16.245  0.00  0.00    +0.000 OA
ENDROOT
BRANCH   1  12
ATOM     12  O   UNL     1       6.874   3.976  17.655  0.00  0.00    +0.000 OA
ATOM     13  H   UNL     1       7.122   3.244  17.065  0.00  0.00    +0.000 HD
ENDBRANCH   1  12
BRANCH   1  14
ATOM     14  C   UNL     1       5.292   5.801  17.850  0.00  0.00    +0.000 C 
BRANCH  14  16
ATOM     15  O   UNL     1       6.138   5.138  19.997  0.00  0.00    +0.000 OA
ATOM     16  C   UNL     1       5.171   5.218  19.242  0.00  0.00    +0.000 C 
BRANCH  16  17
ATOM     17  C   UNL     1       3.850   4.694  19.693  0.00  0.00    +0.000 A 
ATOM     18  C   UNL     1       3.551   3.326  19.714  0.00  0.00    +0.000 A 
ATOM     19  C   UNL     1       2.271   2.897  20.076  0.00  0.00    +0.000 A 
ATOM     20  C   UNL     1       1.292   3.824  20.429  0.00  0.00    +0.000 A 
ATOM     21  C   UNL     1       1.590   5.185  20.433  0.00  0.00    +0.000 A 
ATOM     22  C   UNL     1       2.865   5.620  20.064  0.00  0.00    +0.000 A 
ENDBRANCH  16  17
ENDBRANCH  14  16
ENDBRANCH   1  14
TORSDOF 4
ENDMDL
MODEL 6
REMARK VINA RESULT:      -7.9      2.366      6.319
REMARK  Name = 
REMARK  4 active torsions:
REMARK  status: ('A' for Active; 'I' for Inactive)
REMARK    1  A    between atoms: C_2  and  C_3
REMARK    2  A    between atoms: C_2  and  C_16
REMARK    3  A    between atoms: C_3  and  C_4
REMARK    4  A    between atoms: C_4  and  O_5
REMARK                            x       y       z     vdW  Elec       q    Type
REMARK                         _______ _______ _______ _____ _____    ______ ____
ROOT
ATOM      1  C   UNL     1       5.251   4.500  16.843  0.00  0.00    +0.000 C 
ATOM      2  C   UNL     1       5.892   4.477  18.235  0.00  0.00    +0.000 C 
ATOM      3  O   UNL     1       5.778   3.609  19.079  0.00  0.00    +0.000 OA
ATOM      4  C   UNL     1       6.750   5.662  18.349  0.00  0.00    +0.000 A 
ATOM      5  C   UNL     1       7.674   5.968  19.336  0.00  0.00    +0.000 A 
ATOM      6  C   UNL     1       8.432   7.132  19.168  0.00  0.00    +0.000 A 
ATOM      7  C   UNL     1       8.250   7.960  18.044  0.00  0.00    +0.000 A 
ATOM      8  C   UNL     1       7.302   7.643  17.066  0.00  0.00    +0.000 A 
ATOM      9  C   UNL     1       6.570   6.485  17.244  0.00  0.00    +0.000 A 
ATOM     10  C   UNL     1       5.575   5.905  16.340  0.00  0.00    +0.000 C 
ATOM     11  O   UNL     1       5.143   6.457  15.344  0.00  0.00    +0.000 OA
ENDROOT
BRANCH   1  12
ATOM     12  O   UNL     1       5.973   3.603  15.986  0.00  0.00    +0.000 OA
ATOM     13  H   UNL     1       6.859   3.972  15.830  0.00  0.00    +0.000 HD
ENDBRANCH   1  12
BRANCH   1  14
ATOM     14  C   UNL     1       3.765   4.173  16.807  0.00  0.00    +0.000 C 
BRANCH  14  16
ATOM     15  O   UNL     1       2.825   6.152  17.792  0.00  0.00    +0.000 OA
ATOM     16  C   UNL     1       2.969   4.931  17.848  0.00  0.00    +0.000 C 
BRANCH  16  17
ATOM     17  C   UNL     1       2.374   4.180  18.990  0.00  0.00    +0.000 A 
ATOM     18  C   UNL     1       1.487   3.112  18.807  0.00  0.00    +0.000 A 
ATOM     19  C   UNL     1       0.902   2.492  19.915  0.00  0.00    +0.000 A 
ATOM     20  C   UNL     1       1.207   2.924  21.205  0.00  0.00    +0.000 A 
ATOM     21  C   UNL     1       2.108   3.972  21.395  0.00  0.00    +0.000 A 
ATOM     22  C   UNL     1       2.687   4.599  20.291  0.00  0.00    +0.000 A 
ENDBRANCH  16  17
ENDBRANCH  14  16
ENDBRANCH   1  14
TORSDOF 4
ENDMDL
MODEL 7
REMARK VINA RESULT:      -7.8      0.815      2.132
REMARK  Name = 
REMARK  4 active torsions:
REMARK  status: ('A' for Active; 'I' for Inactive)
REMARK    1  A    between atoms: C_2  and  C_3
REMARK    2  A    between atoms: C_2  and  C_16
REMARK    3  A    between atoms: C_3  and  C_4
REMARK    4  A    between atoms: C_4  and  O_5
REMARK                            x       y       z     vdW  Elec       q    Type
REMARK                         _______ _______ _______ _____ _____    ______ ____
ROOT
ATOM      1  C   UNL     1       4.695   4.737  17.484  0.00  0.00    +0.000 C 
ATOM      2  C   UNL     1       4.644   4.947  19.001  0.00  0.00    +0.000 C 
ATOM      3  O   UNL     1       5.489   5.479  19.695  0.00  0.00    +0.000 OA
ATOM      4  C   UNL     1       3.342   4.462  19.473  0.00  0.00    +0.000 A 
ATOM      5  C   UNL     1       2.765   4.618  20.724  0.00  0.00    +0.000 A 
ATOM      6  C   UNL     1       1.466   4.128  20.898  0.00  0.00    +0.000 A 
ATOM      7  C   UNL     1       0.783   3.494  19.842  0.00  0.00    +0.000 A 
ATOM      8  C   UNL     1       1.388   3.332  18.591  0.00  0.00    +0.000 A 
ATOM      9  C   UNL     1       2.667   3.831  18.437  0.00  0.00    +0.000 A 
ATOM     10  C   UNL     1       3.483   3.847  17.221  0.00  0.00    +0.000 C 
ATOM     11  O   UNL     1       3.189   3.277  16.185  0.00  0.00    +0.000 OA
ENDROOT
BRANCH   1  12
ATOM     12  O   UNL     1       4.410   5.985  16.835  0.00  0.00    +0.000 OA
ATOM     13  H   UNL     1       4.765   6.705  17.383  0.00  0.00    +0.000 HD
ENDBRANCH   1  12
BRANCH   1  14
ATOM     14  C   UNL     1       5.997   4.157  16.952  0.00  0.00    +0.000 C 
BRANCH  14  16
ATOM     15  O   UNL     1       7.237   6.126  16.356  0.00  0.00    +0.000 OA
ATOM     16  C   UNL     1       6.704   5.082  15.983  0.00  0.00    +0.000 C 
BRANCH  16  17
ATOM     17  C   UNL     1       6.721   4.733  14.533  0.00  0.00    +0.000 A 
ATOM     18  C   UNL     1       5.850   3.787  13.977  0.00  0.00    +0.000 A 
ATOM     19  C   UNL     1       5.961   3.446  12.627  0.00  0.00    +0.000 A 
ATOM     20  C   UNL     1       6.926   4.052  11.825  0.00  0.00    +0.000 A 
ATOM     21  C   UNL     1       7.780   5.012  12.367  0.00  0.00    +0.000 A 
ATOM     22  C   UNL     1       7.679   5.350  13.717  0.00  0.00    +0.000 A 
ENDBRANCH  16  17
ENDBRANCH  14  16
ENDBRANCH   1  14
TORSDOF 4
ENDMDL
MODEL 8
REMARK VINA RESULT:      -7.8      0.836      2.389
REMARK  Name = 
REMARK  4 active torsions:
REMARK  status: ('A' for Active; 'I' for Inactive)
REMARK    1  A    between atoms: C_2  and  C_3
REMARK    2  A    between atoms: C_2  and  C_16
REMARK    3  A    between atoms: C_3  and  C_4
REMARK    4  A    between atoms: C_4  and  O_5
REMARK                            x       y       z     vdW  Elec       q    Type
REMARK                         _______ _______ _______ _____ _____    ______ ____
ROOT
ATOM      1  C   UNL     1       4.750   4.800  17.486  0.00  0.00    +0.000 C 
ATOM      2  C   UNL     1       4.679   5.011  19.003  0.00  0.00    +0.000 C 
ATOM      3  O   UNL     1       5.517   5.540  19.707  0.00  0.00    +0.000 OA
ATOM      4  C   UNL     1       3.369   4.530  19.458  0.00  0.00    +0.000 A 
ATOM      5  C   UNL     1       2.776   4.688  20.700  0.00  0.00    +0.000 A 
ATOM      6  C   UNL     1       1.473   4.204  20.857  0.00  0.00    +0.000 A 
ATOM      7  C   UNL     1       0.802   3.571  19.792  0.00  0.00    +0.000 A 
ATOM      8  C   UNL     1       1.423   3.407  18.549  0.00  0.00    +0.000 A 
ATOM      9  C   UNL     1       2.706   3.901  18.412  0.00  0.00    +0.000 A 
ATOM     10  C   UNL     1       3.538   3.913  17.207  0.00  0.00    +0.000 C 
ATOM     11  O   UNL     1       3.256   3.345  16.168  0.00  0.00    +0.000 OA
ENDROOT
BRANCH   1  12
ATOM     12  O   UNL     1       4.478   6.048  16.833  0.00  0.00    +0.000 OA
ATOM     13  H   UNL     1       4.769   6.770  17.415  0.00  0.00    +0.000 HD
ENDBRANCH   1  12
BRANCH   1  14
ATOM     14  C   UNL     1       6.057   4.215  16.972  0.00  0.00    +0.000 C 
BRANCH  14  16
ATOM     15  O   UNL     1       7.279   6.202  16.399  0.00  0.00    +0.000 OA
ATOM     16  C   UNL     1       6.784   5.141  16.021  0.00  0.00    +0.000 C 
BRANCH  16  17
ATOM     17  C   UNL     1       6.871   4.773  14.578  0.00  0.00    +0.000 A 
ATOM     18  C   UNL     1       7.755   5.402  13.693  0.00  0.00    +0.000 A 
ATOM     19  C   UNL     1       7.741   5.067  12.336  0.00  0.00    +0.000 A 
ATOM     20  C   UNL     1       6.859   4.099  11.860  0.00  0.00    +0.000 A 
ATOM     21  C   UNL     1       5.993   3.451  12.740  0.00  0.00    +0.000 A 
ATOM     22  C   UNL     1       5.997   3.789  14.095  0.00  0.00    +0.000 A 
ENDBRANCH  16  17
ENDBRANCH  14  16
ENDBRANCH   1  14
TORSDOF 4
ENDMDL
MODEL 9
REMARK VINA RESULT:      -7.6      1.058      2.335
REMARK  Name = 
REMARK  4 active torsions:
REMARK  status: ('A' for Active; 'I' for Inactive)
REMARK    1  A    between atoms: C_2  and  C_3
REMARK    2  A    between atoms: C_2  and  C_16
REMARK    3  A    between atoms: C_3  and  C_4
REMARK    4  A    between atoms: C_4  and  O_5
REMARK                            x       y       z     vdW  Elec       q    Type
REMARK                         _______ _______ _______ _____ _____    ______ ____
ROOT
ATOM      1  C   UNL     1       3.884   4.243  17.655  0.00  0.00    +0.000 C 
ATOM      2  C   UNL     1       4.456   3.697  18.968  0.00  0.00    +0.000 C 
ATOM      3  O   UNL     1       5.627   3.647  19.291  0.00  0.00    +0.000 OA
ATOM      4  C   UNL     1       3.325   3.311  19.819  0.00  0.00    +0.000 A 
ATOM      5  C   UNL     1       3.335   2.952  21.157  0.00  0.00    +0.000 A 
ATOM      6  C   UNL     1       2.100   2.707  21.767  0.00  0.00    +0.000 A 
ATOM      7  C   UNL     1       0.899   2.813  21.038  0.00  0.00    +0.000 A 
ATOM      8  C   UNL     1       0.909   3.162  19.684  0.00  0.00    +0.000 A 
ATOM      9  C   UNL     1       2.139   3.409  19.103  0.00  0.00    +0.000 A 
ATOM     10  C   UNL     1       2.410   3.851  17.734  0.00  0.00    +0.000 C 
ATOM     11  O   UNL     1       1.572   3.926  16.854  0.00  0.00    +0.000 OA
ENDROOT
BRANCH   1  12
ATOM     12  O   UNL     1       3.909   5.677  17.701  0.00  0.00    +0.000 OA
ATOM     13  H   UNL     1       3.678   6.018  16.820  0.00  0.00    +0.000 HD
ENDBRANCH   1  12
BRANCH   1  14
ATOM     14  C   UNL     1       4.573   3.750  16.391  0.00  0.00    +0.000 C 
BRANCH  14  16
ATOM     15  O   UNL     1       6.188   5.500  16.700  0.00  0.00    +0.000 OA
ATOM     16  C   UNL     1       5.718   4.640  15.957  0.00  0.00    +0.000 C 
BRANCH  16  17
ATOM     17  C   UNL     1       6.265   4.492  14.577  0.00  0.00    +0.000 A 
ATOM     18  C   UNL     1       7.365   5.230  14.122  0.00  0.00    +0.000 A 
ATOM     19  C   UNL     1       7.789   5.104  12.796  0.00  0.00    +0.000 A 
ATOM     20  C   UNL     1       7.129   4.238  11.925  0.00  0.00    +0.000 A 
ATOM     21  C   UNL     1       6.049   3.483  12.380  0.00  0.00    +0.000 A 
ATOM     22  C   UNL     1       5.616   3.611  13.701  0.00  0.00    +0.000 A 
ENDBRANCH  16  17
ENDBRANCH  14  16
ENDBRANCH   1  14
TORSDOF 4
ENDMDL
