MODEL 1
REMARK VINA RESULT:      -8.1      0.000      0.000
REMARK  Name = 
REMARK  7 active torsions:
REMARK  status: ('A' for Active; 'I' for Inactive)
REMARK    1  A    between atoms: C_1  and  O_2
REMARK    2  A    between atoms: O_2  and  C_3
REMARK    3  A    between atoms: C_6  and  S_7
REMARK    4  A    between atoms: S_7  and  N_10
REMARK    5  A    between atoms: N_10  and  C_11
REMARK    6  A    between atoms: C_16  and  C_17
REMARK    7  A    between atoms: C_26  and  O_27
REMARK                            x       y       z     vdW  Elec       q    Type
REMARK                         _______ _______ _______ _____ _____    ______ ____
ROOT
ATOM      1  C   UNL     1       6.432   4.082  16.638  0.00  0.00    +0.000 A 
ATOM      2  C   UNL     1       7.237   4.543  15.581  0.00  0.00    +0.000 A 
ATOM      3  C   UNL     1       6.721   4.632  14.294  0.00  0.00    +0.000 A 
ATOM      4  C   UNL     1       5.398   4.285  14.059  0.00  0.00    +0.000 A 
ATOM      5  C   UNL     1       4.598   3.800  15.102  0.00  0.00    +0.000 A 
ATOM      6  C   UNL     1       5.093   3.653  16.415  0.00  0.00    +0.000 A 
ENDROOT
BRANCH   6   7
ATOM      7  C   UNL     1       4.207   3.115  17.482  0.00  0.00    +0.000 A 
ATOM      8  N   UNL     1       2.940   3.577  17.642  0.00  0.00    +0.000 NA
ATOM      9  C   UNL     1       2.330   3.272  18.827  0.00  0.00    +0.000 A 
ATOM     10  C   UNL     1       0.970   3.456  19.062  0.00  0.00    +0.000 A 
ATOM     11  C   UNL     1       0.414   3.236  20.328  0.00  0.00    +0.000 A 
ATOM     12  C   UNL     1       1.248   2.943  21.398  0.00  0.00    +0.000 A 
ATOM     13  C   UNL     1       2.588   2.669  21.156  0.00  0.00    +0.000 A 
ATOM     14  C   UNL     1       3.090   2.698  19.867  0.00  0.00    +0.000 A 
ATOM     15  N   UNL     1       4.238   2.075  19.606  0.00  0.00    +0.000 NA
ATOM     16  C   UNL     1       4.594   2.080  18.314  0.00  0.00    +0.000 A 
BRANCH  16  17
ATOM     17  O   UNL     1       4.326   0.843  17.713  0.00  0.00    +0.000 OA
ATOM     18  H   UNL     1       4.330   0.199  18.439  0.00  0.00    +0.000 HD
ENDBRANCH  16  17
ENDBRANCH   6   7
BRANCH   1  19
ATOM     19  N   UNL     1       7.017   4.147  17.961  0.00  0.00    +0.000 N 
ATOM     20  H   UNL     1       8.008   3.898  17.921  0.00  0.00    +0.000 HD
BRANCH  19  21
ATOM     21  S   UNL     1       6.974   5.706  18.684  0.00  0.00    +0.000 S 
ATOM     22  O   UNL     1       7.857   6.589  17.951  0.00  0.00    +0.000 OA
ATOM     23  O   UNL     1       7.106   5.489  20.108  0.00  0.00    +0.000 OA
BRANCH  21  27
ATOM     24  C   UNL     1       2.782   7.451  18.156  0.00  0.00    +0.000 A 
ATOM     25  C   UNL     1       3.731   7.590  17.138  0.00  0.00    +0.000 A 
ATOM     26  C   UNL     1       4.987   6.992  17.242  0.00  0.00    +0.000 A 
ATOM     27  C   UNL     1       5.310   6.273  18.392  0.00  0.00    +0.000 A 
ATOM     28  C   UNL     1       4.351   6.087  19.397  0.00  0.00    +0.000 A 
ATOM     29  C   UNL     1       3.086   6.677  19.277  0.00  0.00    +0.000 A 
BRANCH  24  31
ATOM     30  C   UNL     1       1.721   9.575  18.015  0.00  0.00    +0.000 C 
ATOM     31  O   UNL     1       1.631   8.159  17.949  0.00  0.00    +0.000 OA
ENDBRANCH  24  31
ENDBRANCH  21  27
ENDBRANCH  19  21
ENDBRANCH   1  19
TORSDOF 6
ENDMDL
MODEL 2
REMARK VINA RESULT:      -7.7      2.832      5.611
REMARK  Name = 
REMARK  7 active torsions:
REMARK  status: ('A' for Active; 'I' for Inactive)
REMARK    1  A    between atoms: C_1  and  O_2
REMARK    2  A    between atoms: O_2  and  C_3
REMARK    3  A    between atoms: C_6  and  S_7
REMARK    4  A    between atoms: S_7  and  N_10
REMARK    5  A    between atoms: N_10  and  C_11
REMARK    6  A    between atoms: C_16  and  C_17
REMARK    7  A    between atoms: C_26  and  O_27
REMARK                            x       y       z     vdW  Elec       q    Type
REMARK                         _______ _______ _______ _____ _____    ______ ____
ROOT
ATOM      1  C   UNL     1       2.156   4.475  19.637  0.00  0.00    +0.000 A 
ATOM      2  C   UNL     1       0.945   3.873  20.025  0.00  0.00    +0.000 A 
ATOM      3  C   UNL     1       0.666   2.562  19.660  0.00  0.00    +0.000 A 
ATOM      4  C   UNL     1       1.597   1.839  18.928  0.00  0.00    +0.000 A 
ATOM      5  C   UNL     1       2.793   2.441  18.515  0.00  0.00    +0.000 A 
ATOM      6  C   UNL     1       3.100   3.782  18.827  0.00  0.00    +0.000 A 
ENDROOT
BRANCH   6   7
ATOM      7  C   UNL     1       4.375   4.379  18.348  0.00  0.00    +0.000 A 
ATOM      8  N   UNL     1       5.343   4.761  19.221  0.00  0.00    +0.000 NA
ATOM      9  C   UNL     1       6.315   5.585  18.723  0.00  0.00    +0.000 A 
ATOM     10  C   UNL     1       7.495   5.878  19.402  0.00  0.00    +0.000 A 
ATOM     11  C   UNL     1       8.407   6.816  18.902  0.00  0.00    +0.000 A 
ATOM     12  C   UNL     1       8.078   7.555  17.774  0.00  0.00    +0.000 A 
ATOM     13  C   UNL     1       6.949   7.207  17.044  0.00  0.00    +0.000 A 
ATOM     14  C   UNL     1       6.155   6.144  17.439  0.00  0.00    +0.000 A 
ATOM     15  N   UNL     1       5.330   5.590  16.554  0.00  0.00    +0.000 NA
ATOM     16  C   UNL     1       4.672   4.511  17.003  0.00  0.00    +0.000 A 
BRANCH  16  17
ATOM     17  O   UNL     1       5.245   3.331  16.510  0.00  0.00    +0.000 OA
ATOM     18  H   UNL     1       4.625   3.006  15.838  0.00  0.00    +0.000 HD
ENDBRANCH  16  17
ENDBRANCH   6   7
BRANCH   1  19
ATOM     19  N   UNL     1       2.413   5.796  20.173  0.00  0.00    +0.000 N 
ATOM     20  H   UNL     1       3.371   5.852  20.526  0.00  0.00    +0.000 HD
BRANCH  19  21
ATOM     21  S   UNL     1       2.281   7.068  19.025  0.00  0.00    +0.000 S 
ATOM     22  O   UNL     1       1.490   6.611  17.902  0.00  0.00    +0.000 OA
ATOM     23  O   UNL     1       3.618   7.598  18.864  0.00  0.00    +0.000 OA
BRANCH  21  27
ATOM     24  C   UNL     1       0.133  10.358  21.361  0.00  0.00    +0.000 A 
ATOM     25  C   UNL     1       0.471  10.560  20.019  0.00  0.00    +0.000 A 
ATOM     26  C   UNL     1       1.049   9.539  19.264  0.00  0.00    +0.000 A 
ATOM     27  C   UNL     1       1.321   8.312  19.866  0.00  0.00    +0.000 A 
ATOM     28  C   UNL     1       0.943   8.082  21.196  0.00  0.00    +0.000 A 
ATOM     29  C   UNL     1       0.347   9.108  21.943  0.00  0.00    +0.000 A 
BRANCH  24  31
ATOM     30  C   UNL     1      -1.247  11.266  23.071  0.00  0.00    +0.000 C 
ATOM     31  O   UNL     1      -0.349  11.472  21.991  0.00  0.00    +0.000 OA
ENDBRANCH  24  31
ENDBRANCH  21  27
ENDBRANCH  19  21
ENDBRANCH   1  19
TORSDOF 6
ENDMDL
MODEL 3
REMARK VINA RESULT:      -7.6      2.501      5.354
REMARK  Name = 
REMARK  7 active torsions:
REMARK  status: ('A' for Active; 'I' for Inactive)
REMARK    1  A    between atoms: C_1  and  O_2
REMARK    2  A    between atoms: O_2  and  C_3
REMARK    3  A    between atoms: C_6  and  S_7
REMARK    4  A    between atoms: S_7  and  N_10
REMARK    5  A    between atoms: N_10  and  C_11
REMARK    6  A    between atoms: C_16  and  C_17
REMARK    7  A    between atoms: C_26  and  O_27
REMARK                            x       y       z     vdW  Elec       q    Type
REMARK                         _______ _______ _______ _____ _____    ______ ____
ROOT
ATOM      1  C   UNL     1       2.415   4.102  18.104  0.00  0.00    +0.000 A 
ATOM      2  C   UNL     1       1.373   3.190  18.356  0.00  0.00    +0.000 A 
ATOM      3  C   UNL     1       1.636   1.828  18.423  0.00  0.00    +0.000 A 
ATOM      4  C   UNL     1       2.935   1.370  18.262  0.00  0.00    +0.000 A 
ATOM      5  C   UNL     1       3.973   2.269  17.983  0.00  0.00    +0.000 A 
ATOM      6  C   UNL     1       3.746   3.656  17.865  0.00  0.00    +0.000 A 
ENDROOT
BRANCH   6   7
ATOM      7  C   UNL     1       4.879   4.566  17.549  0.00  0.00    +0.000 A 
ATOM      8  N   UNL     1       5.835   4.844  18.474  0.00  0.00    +0.000 NA
ATOM      9  C   UNL     1       6.633   5.923  18.212  0.00  0.00    +0.000 A 
ATOM     10  C   UNL     1       7.798   6.207  18.920  0.00  0.00    +0.000 A 
ATOM     11  C   UNL     1       8.520   7.385  18.691  0.00  0.00    +0.000 A 
ATOM     12  C   UNL     1       8.005   8.344  17.830  0.00  0.00    +0.000 A 
ATOM     13  C   UNL     1       6.895   8.032  17.055  0.00  0.00    +0.000 A 
ATOM     14  C   UNL     1       6.302   6.785  17.146  0.00  0.00    +0.000 A 
ATOM     15  N   UNL     1       5.512   6.371  16.158  0.00  0.00    +0.000 NA
ATOM     16  C   UNL     1       5.060   5.116  16.293  0.00  0.00    +0.000 A 
BRANCH  16  17
ATOM     17  O   UNL     1       5.771   4.233  15.469  0.00  0.00    +0.000 OA
ATOM     18  H   UNL     1       6.206   3.612  16.075  0.00  0.00    +0.000 HD
ENDBRANCH  16  17
ENDBRANCH   6   7
BRANCH   1  19
ATOM     19  N   UNL     1       2.067   5.506  18.181  0.00  0.00    +0.000 N 
ATOM     20  H   UNL     1       1.085   5.639  17.932  0.00  0.00    +0.000 HD
BRANCH  19  21
ATOM     21  S   UNL     1       2.232   6.195  19.747  0.00  0.00    +0.000 S 
ATOM     22  O   UNL     1       3.617   6.105  20.158  0.00  0.00    +0.000 OA
ATOM     23  O   UNL     1       1.154   5.646  20.539  0.00  0.00    +0.000 OA
BRANCH  21  27
ATOM     24  C   UNL     1       1.008  10.521  18.919  0.00  0.00    +0.000 A 
ATOM     25  C   UNL     1       0.786   9.960  20.181  0.00  0.00    +0.000 A 
ATOM     26  C   UNL     1       1.228   8.672  20.482  0.00  0.00    +0.000 A 
ATOM     27  C   UNL     1       1.873   7.924  19.498  0.00  0.00    +0.000 A 
ATOM     28  C   UNL     1       2.144   8.492  18.246  0.00  0.00    +0.000 A 
ATOM     29  C   UNL     1       1.711   9.793  17.959  0.00  0.00    +0.000 A 
BRANCH  24  31
ATOM     30  C   UNL     1      -0.968  11.814  18.639  0.00  0.00    +0.000 C 
ATOM     31  O   UNL     1       0.446  11.756  18.749  0.00  0.00    +0.000 OA
ENDBRANCH  24  31
ENDBRANCH  21  27
ENDBRANCH  19  21
ENDBRANCH   1  19
TORSDOF 6
ENDMDL
MODEL 4
REMARK VINA RESULT:      -7.6      2.329      5.453
REMARK  Name = 
REMARK  7 active torsions:
REMARK  status: ('A' for Active; 'I' for Inactive)
REMARK    1  A    between atoms: C_1  and  O_2
REMARK    2  A    between atoms: O_2  and  C_3
REMARK    3  A    between atoms: C_6  and  S_7
REMARK    4  A    between atoms: S_7  and  N_10
REMARK    5  A    between atoms: N_10  and  C_11
REMARK    6  A    between atoms: C_16  and  C_17
REMARK    7  A    between atoms: C_26  and  O_27
REMARK                            x       y       z     vdW  Elec       q    Type
REMARK                         _______ _______ _______ _____ _____    ______ ____
ROOT
ATOM      1  C   UNL     1       4.298   4.757  18.839  0.00  0.00    +0.000 A 
ATOM      2  C   UNL     1       4.564   3.388  18.658  0.00  0.00    +0.000 A 
ATOM      3  C   UNL     1       3.622   2.565  18.053  0.00  0.00    +0.000 A 
ATOM      4  C   UNL     1       2.423   3.105  17.608  0.00  0.00    +0.000 A 
ATOM      5  C   UNL     1       2.140   4.462  17.810  0.00  0.00    +0.000 A 
ATOM      6  C   UNL     1       3.050   5.325  18.456  0.00  0.00    +0.000 A 
ENDROOT
BRANCH   6   7
ATOM      7  C   UNL     1       2.693   6.754  18.663  0.00  0.00    +0.000 A 
ATOM      8  N   UNL     1       2.156   7.181  19.835  0.00  0.00    +0.000 NA
ATOM      9  C   UNL     1       1.566   8.414  19.815  0.00  0.00    +0.000 A 
ATOM     10  C   UNL     1       1.181   9.101  20.964  0.00  0.00    +0.000 A 
ATOM     11  C   UNL     1       0.477  10.309  20.889  0.00  0.00    +0.000 A 
ATOM     12  C   UNL     1       0.050  10.774  19.653  0.00  0.00    +0.000 A 
ATOM     13  C   UNL     1       0.505  10.146  18.500  0.00  0.00    +0.000 A 
ATOM     14  C   UNL     1       1.364   9.064  18.580  0.00  0.00    +0.000 A 
ATOM     15  N   UNL     1       2.080   8.727  17.510  0.00  0.00    +0.000 NA
ATOM     16  C   UNL     1       2.950   7.727  17.713  0.00  0.00    +0.000 A 
BRANCH  16  17
ATOM     17  O   UNL     1       4.256   8.216  17.854  0.00  0.00    +0.000 OA
ATOM     18  H   UNL     1       4.403   8.282  18.811  0.00  0.00    +0.000 HD
ENDBRANCH  16  17
ENDBRANCH   6   7
BRANCH   1  19
ATOM     19  N   UNL     1       5.389   5.556  19.358  0.00  0.00    +0.000 N 
ATOM     20  H   UNL     1       5.726   5.161  20.240  0.00  0.00    +0.000 HD
BRANCH  19  21
ATOM     21  S   UNL     1       6.771   5.623  18.339  0.00  0.00    +0.000 S 
ATOM     22  O   UNL     1       7.737   4.644  18.788  0.00  0.00    +0.000 OA
ATOM     23  O   UNL     1       7.098   7.026  18.205  0.00  0.00    +0.000 OA
BRANCH  21  27
ATOM     24  C   UNL     1       5.510   4.391  14.121  0.00  0.00    +0.000 A 
ATOM     25  C   UNL     1       6.154   3.471  14.956  0.00  0.00    +0.000 A 
ATOM     26  C   UNL     1       6.470   3.799  16.274  0.00  0.00    +0.000 A 
ATOM     27  C   UNL     1       6.168   5.072  16.755  0.00  0.00    +0.000 A 
ATOM     28  C   UNL     1       5.480   5.985  15.943  0.00  0.00    +0.000 A 
ATOM     29  C   UNL     1       5.152   5.642  14.625  0.00  0.00    +0.000 A 
BRANCH  24  31
ATOM     30  C   UNL     1       6.470   3.390  12.189  0.00  0.00    +0.000 C 
ATOM     31  O   UNL     1       5.340   3.957  12.835  0.00  0.00    +0.000 OA
ENDBRANCH  24  31
ENDBRANCH  21  27
ENDBRANCH  19  21
ENDBRANCH   1  19
TORSDOF 6
ENDMDL
MODEL 5
REMARK VINA RESULT:      -7.4      2.135      5.461
REMARK  Name = 
REMARK  7 active torsions:
REMARK  status: ('A' for Active; 'I' for Inactive)
REMARK    1  A    between atoms: C_1  and  O_2
REMARK    2  A    between atoms: O_2  and  C_3
REMARK    3  A    between atoms: C_6  and  S_7
REMARK    4  A    between atoms: S_7  and  N_10
REMARK    5  A    between atoms: N_10  and  C_11
REMARK    6  A    between atoms: C_16  and  C_17
REMARK    7  A    between atoms: C_26  and  O_27
REMARK                            x       y       z     vdW  Elec       q    Type
REMARK                         _______ _______ _______ _____ _____    ______ ____
ROOT
ATOM      1  C   UNL     1       2.947   4.764  20.235  0.00  0.00    +0.000 A 
ATOM      2  C   UNL     1       2.095   4.748  21.354  0.00  0.00    +0.000 A 
ATOM      3  C   UNL     1       1.635   3.542  21.866  0.00  0.00    +0.000 A 
ATOM      4  C   UNL     1       2.037   2.349  21.283  0.00  0.00    +0.000 A 
ATOM      5  C   UNL     1       2.863   2.359  20.151  0.00  0.00    +0.000 A 
ATOM      6  C   UNL     1       3.320   3.561  19.571  0.00  0.00    +0.000 A 
ENDROOT
BRANCH   6   7
ATOM      7  C   UNL     1       4.180   3.516  18.359  0.00  0.00    +0.000 A 
ATOM      8  N   UNL     1       5.377   4.156  18.323  0.00  0.00    +0.000 NA
ATOM      9  C   UNL     1       5.931   4.334  17.085  0.00  0.00    +0.000 A 
ATOM     10  C   UNL     1       7.244   4.750  16.883  0.00  0.00    +0.000 A 
ATOM     11  C   UNL     1       7.730   5.028  15.599  0.00  0.00    +0.000 A 
ATOM     12  C   UNL     1       6.858   5.003  14.520  0.00  0.00    +0.000 A 
ATOM     13  C   UNL     1       5.574   4.503  14.698  0.00  0.00    +0.000 A 
ATOM     14  C   UNL     1       5.164   4.045  15.938  0.00  0.00    +0.000 A 
ATOM     15  N   UNL     1       4.109   3.236  16.011  0.00  0.00    +0.000 NA
ATOM     16  C   UNL     1       3.846   2.772  17.241  0.00  0.00    +0.000 A 
BRANCH  16  17
ATOM     17  O   UNL     1       4.284   1.449  17.384  0.00  0.00    +0.000 OA
ATOM     18  H   UNL     1       3.742   1.075  18.097  0.00  0.00    +0.000 HD
ENDBRANCH  16  17
ENDBRANCH   6   7
BRANCH   1  19
ATOM     19  N   UNL     1       3.477   6.057  19.854  0.00  0.00    +0.000 N 
ATOM     20  H   UNL     1       4.473   5.979  19.636  0.00  0.00    +0.000 HD
BRANCH  19  21
ATOM     21  S   UNL     1       2.761   6.734  18.445  0.00  0.00    +0.000 S 
ATOM     22  O   UNL     1       1.759   5.820  17.940  0.00  0.00    +0.000 OA
ATOM     23  O   UNL     1       3.858   7.206  17.629  0.00  0.00    +0.000 OA
BRANCH  21  27
ATOM     24  C   UNL     1       0.231  10.268  19.863  0.00  0.00    +0.000 A 
ATOM     25  C   UNL     1       0.690   9.321  20.785  0.00  0.00    +0.000 A 
ATOM     26  C   UNL     1       1.534   8.283  20.388  0.00  0.00    +0.000 A 
ATOM     27  C   UNL     1       1.898   8.173  19.047  0.00  0.00    +0.000 A 
ATOM     28  C   UNL     1       1.484   9.142  18.123  0.00  0.00    +0.000 A 
ATOM     29  C   UNL     1       0.650  10.191  18.534  0.00  0.00    +0.000 A 
BRANCH  24  31
ATOM     30  C   UNL     1      -0.444  11.578  21.728  0.00  0.00    +0.000 C 
ATOM     31  O   UNL     1      -0.650  11.174  20.383  0.00  0.00    +0.000 OA
ENDBRANCH  24  31
ENDBRANCH  21  27
ENDBRANCH  19  21
ENDBRANCH   1  19
TORSDOF 6
ENDMDL
MODEL 6
REMARK VINA RESULT:      -7.4      2.472      5.264
REMARK  Name = 
REMARK  7 active torsions:
REMARK  status: ('A' for Active; 'I' for Inactive)
REMARK    1  A    between atoms: C_1  and  O_2
REMARK    2  A    between atoms: O_2  and  C_3
REMARK    3  A    between atoms: C_6  and  S_7
REMARK    4  A    between atoms: S_7  and  N_10
REMARK    5  A    between atoms: N_10  and  C_11
REMARK    6  A    between atoms: C_16  and  C_17
REMARK    7  A    between atoms: C_26  and  O_27
REMARK                            x       y       z     vdW  Elec       q    Type
REMARK                         _______ _______ _______ _____ _____    ______ ____
ROOT
ATOM      1  C   UNL     1       2.219   4.121  18.229  0.00  0.00    +0.000 A 
ATOM      2  C   UNL     1       1.079   3.337  18.482  0.00  0.00    +0.000 A 
ATOM      3  C   UNL     1       1.195   1.963  18.644  0.00  0.00    +0.000 A 
ATOM      4  C   UNL     1       2.446   1.366  18.577  0.00  0.00    +0.000 A 
ATOM      5  C   UNL     1       3.583   2.137  18.299  0.00  0.00    +0.000 A 
ATOM      6  C   UNL     1       3.506   3.529  18.086  0.00  0.00    +0.000 A 
ENDROOT
BRANCH   6   7
ATOM      7  C   UNL     1       4.741   4.298  17.774  0.00  0.00    +0.000 A 
ATOM      8  N   UNL     1       5.603   4.670  18.756  0.00  0.00    +0.000 NA
ATOM      9  C   UNL     1       6.513   5.635  18.427  0.00  0.00    +0.000 A 
ATOM     10  C   UNL     1       7.608   5.962  19.223  0.00  0.00    +0.000 A 
ATOM     11  C   UNL     1       8.448   7.035  18.900  0.00  0.00    +0.000 A 
ATOM     12  C   UNL     1       8.119   7.863  17.835  0.00  0.00    +0.000 A 
ATOM     13  C   UNL     1       7.083   7.493  16.985  0.00  0.00    +0.000 A 
ATOM     14  C   UNL     1       6.381   6.320  17.202  0.00  0.00    +0.000 A 
ATOM     15  N   UNL     1       5.680   5.793  16.200  0.00  0.00    +0.000 NA
ATOM     16  C   UNL     1       5.111   4.611  16.479  0.00  0.00    +0.000 A 
BRANCH  16  17
ATOM     17  O   UNL     1       5.836   3.557  15.908  0.00  0.00    +0.000 OA
ATOM     18  H   UNL     1       6.302   3.945  15.151  0.00  0.00    +0.000 HD
ENDBRANCH  16  17
ENDBRANCH   6   7
BRANCH   1  19
ATOM     19  N   UNL     1       2.016   5.555  18.204  0.00  0.00    +0.000 N 
ATOM     20  H   UNL     1       1.052   5.769  17.939  0.00  0.00    +0.000 HD
BRANCH  19  21
ATOM     21  S   UNL     1       2.251   6.334  19.718  0.00  0.00    +0.000 S 
ATOM     22  O   UNL     1       3.670   6.426  19.985  0.00  0.00    +0.000 OA
ATOM     23  O   UNL     1       1.330   5.702  20.637  0.00  0.00    +0.000 OA
BRANCH  21  27
ATOM     24  C   UNL     1       1.056  10.715  19.188  0.00  0.00    +0.000 A 
ATOM     25  C   UNL     1       1.566   9.992  18.104  0.00  0.00    +0.000 A 
ATOM     26  C   UNL     1       1.856   8.633  18.220  0.00  0.00    +0.000 A 
ATOM     27  C   UNL     1       1.664   7.995  19.445  0.00  0.00    +0.000 A 
ATOM     28  C   UNL     1       1.108   8.696  20.524  0.00  0.00    +0.000 A 
ATOM     29  C   UNL     1       0.803  10.057  20.393  0.00  0.00    +0.000 A 
BRANCH  24  31
ATOM     30  C   UNL     1      -0.389  12.485  18.530  0.00  0.00    +0.000 C 
ATOM     31  O   UNL     1       0.897  12.051  18.946  0.00  0.00    +0.000 OA
ENDBRANCH  24  31
ENDBRANCH  21  27
ENDBRANCH  19  21
ENDBRANCH   1  19
TORSDOF 6
ENDMDL
MODEL 7
REMARK VINA RESULT:      -7.2      2.615      5.690
REMARK  Name = 
REMARK  7 active torsions:
REMARK  status: ('A' for Active; 'I' for Inactive)
REMARK    1  A    between atoms: C_1  and  O_2
REMARK    2  A    between atoms: O_2  and  C_3
REMARK    3  A    between atoms: C_6  and  S_7
REMARK    4  A    between atoms: S_7  and  N_10
REMARK    5  A    between atoms: N_10  and  C_11
REMARK    6  A    between atoms: C_16  and  C_17
REMARK    7  A    between atoms: C_26  and  O_27
REMARK                            x       y       z     vdW  Elec       q    Type
REMARK                         _______ _______ _______ _____ _____    ______ ____
ROOT
ATOM      1  C   UNL     1       2.471   4.762  20.131  0.00  0.00    +0.000 A 
ATOM      2  C   UNL     1       1.418   4.272  20.924  0.00  0.00    +0.000 A 
ATOM      3  C   UNL     1       1.083   2.924  20.889  0.00  0.00    +0.000 A 
ATOM      4  C   UNL     1       1.806   2.057  20.083  0.00  0.00    +0.000 A 
ATOM      5  C   UNL     1       2.839   2.543  19.270  0.00  0.00    +0.000 A 
ATOM      6  C   UNL     1       3.186   3.909  19.242  0.00  0.00    +0.000 A 
ENDROOT
BRANCH   6   7
ATOM      7  C   UNL     1       4.277   4.376  18.346  0.00  0.00    +0.000 A 
ATOM      8  N   UNL     1       4.036   4.678  17.043  0.00  0.00    +0.000 NA
ATOM      9  C   UNL     1       5.133   4.775  16.233  0.00  0.00    +0.000 A 
ATOM     10  C   UNL     1       5.092   5.302  14.944  0.00  0.00    +0.000 A 
ATOM     11  C   UNL     1       6.217   5.275  14.111  0.00  0.00    +0.000 A 
ATOM     12  C   UNL     1       7.360   4.608  14.529  0.00  0.00    +0.000 A 
ATOM     13  C   UNL     1       7.440   4.160  15.842  0.00  0.00    +0.000 A 
ATOM     14  C   UNL     1       6.391   4.366  16.721  0.00  0.00    +0.000 A 
ATOM     15  N   UNL     1       6.620   4.289  18.030  0.00  0.00    +0.000 NA
ATOM     16  C   UNL     1       5.566   4.595  18.800  0.00  0.00    +0.000 A 
BRANCH  16  17
ATOM     17  O   UNL     1       5.686   5.887  19.328  0.00  0.00    +0.000 OA
ATOM     18  H   UNL     1       6.640   6.060  19.368  0.00  0.00    +0.000 HD
ENDBRANCH  16  17
ENDBRANCH   6   7
BRANCH   1  19
ATOM     19  N   UNL     1       2.829   6.151  20.332  0.00  0.00    +0.000 N 
ATOM     20  H   UNL     1       3.846   6.253  20.343  0.00  0.00    +0.000 HD
BRANCH  19  21
ATOM     21  S   UNL     1       2.284   7.213  19.095  0.00  0.00    +0.000 S 
ATOM     22  O   UNL     1       1.305   6.526  18.280  0.00  0.00    +0.000 OA
ATOM     23  O   UNL     1       3.474   7.812  18.532  0.00  0.00    +0.000 OA
BRANCH  21  27
ATOM     24  C   UNL     1       0.395  10.620  21.489  0.00  0.00    +0.000 A 
ATOM     25  C   UNL     1       0.550  10.739  20.104  0.00  0.00    +0.000 A 
ATOM     26  C   UNL     1       1.044   9.680  19.343  0.00  0.00    +0.000 A 
ATOM     27  C   UNL     1       1.418   8.497  19.979  0.00  0.00    +0.000 A 
ATOM     28  C   UNL     1       1.223   8.348  21.358  0.00  0.00    +0.000 A 
ATOM     29  C   UNL     1       0.710   9.412  22.113  0.00  0.00    +0.000 A 
BRANCH  24  31
ATOM     30  C   UNL     1      -1.235  11.699  22.841  0.00  0.00    +0.000 C 
ATOM     31  O   UNL     1      -0.022  11.766  22.107  0.00  0.00    +0.000 OA
ENDBRANCH  24  31
ENDBRANCH  21  27
ENDBRANCH  19  21
ENDBRANCH   1  19
TORSDOF 6
ENDMDL
MODEL 8
REMARK VINA RESULT:      -7.1      2.500      5.745
REMARK  Name = 
REMARK  7 active torsions:
REMARK  status: ('A' for Active; 'I' for Inactive)
REMARK    1  A    between atoms: C_1  and  O_2
REMARK    2  A    between atoms: O_2  and  C_3
REMARK    3  A    between atoms: C_6  and  S_7
REMARK    4  A    between atoms: S_7  and  N_10
REMARK    5  A    between atoms: N_10  and  C_11
REMARK    6  A    between atoms: C_16  and  C_17
REMARK    7  A    between atoms: C_26  and  O_27
REMARK                            x       y       z     vdW  Elec       q    Type
REMARK                         _______ _______ _______ _____ _____    ______ ____
ROOT
ATOM      1  C   UNL     1       2.461   4.967  20.048  0.00  0.00    +0.000 A 
ATOM      2  C   UNL     1       1.396   4.517  20.850  0.00  0.00    +0.000 A 
ATOM      3  C   UNL     1       1.074   3.167  20.892  0.00  0.00    +0.000 A 
ATOM      4  C   UNL     1       1.821   2.258  20.156  0.00  0.00    +0.000 A 
ATOM      5  C   UNL     1       2.865   2.703  19.334  0.00  0.00    +0.000 A 
ATOM      6  C   UNL     1       3.201   4.069  19.228  0.00  0.00    +0.000 A 
ENDROOT
BRANCH   6   7
ATOM      7  C   UNL     1       4.307   4.490  18.327  0.00  0.00    +0.000 A 
ATOM      8  N   UNL     1       4.073   4.792  17.023  0.00  0.00    +0.000 NA
ATOM      9  C   UNL     1       5.170   4.845  16.209  0.00  0.00    +0.000 A 
ATOM     10  C   UNL     1       5.144   5.365  14.918  0.00  0.00    +0.000 A 
ATOM     11  C   UNL     1       6.266   5.292  14.082  0.00  0.00    +0.000 A 
ATOM     12  C   UNL     1       7.385   4.586  14.501  0.00  0.00    +0.000 A 
ATOM     13  C   UNL     1       7.452   4.143  15.816  0.00  0.00    +0.000 A 
ATOM     14  C   UNL     1       6.414   4.393  16.696  0.00  0.00    +0.000 A 
ATOM     15  N   UNL     1       6.643   4.315  18.005  0.00  0.00    +0.000 NA
ATOM     16  C   UNL     1       5.604   4.664  18.776  0.00  0.00    +0.000 A 
BRANCH  16  17
ATOM     17  O   UNL     1       5.773   5.954  19.296  0.00  0.00    +0.000 OA
ATOM     18  H   UNL     1       4.884   6.246  19.552  0.00  0.00    +0.000 HD
ENDBRANCH  16  17
ENDBRANCH   6   7
BRANCH   1  19
ATOM     19  N   UNL     1       2.803   6.370  20.170  0.00  0.00    +0.000 N 
ATOM     20  H   UNL     1       3.818   6.481  20.223  0.00  0.00    +0.000 HD
BRANCH  19  21
ATOM     21  S   UNL     1       2.314   7.340  18.838  0.00  0.00    +0.000 S 
ATOM     22  O   UNL     1       1.366   6.597  18.036  0.00  0.00    +0.000 OA
ATOM     23  O   UNL     1       3.529   7.895  18.283  0.00  0.00    +0.000 OA
BRANCH  21  27
ATOM     24  C   UNL     1      -0.295  10.643  20.622  0.00  0.00    +0.000 A 
ATOM     25  C   UNL     1       0.180   9.610  21.437  0.00  0.00    +0.000 A 
ATOM     26  C   UNL     1       1.047   8.640  20.933  0.00  0.00    +0.000 A 
ATOM     27  C   UNL     1       1.418   8.686  19.590  0.00  0.00    +0.000 A 
ATOM     28  C   UNL     1       0.987   9.743  18.776  0.00  0.00    +0.000 A 
ATOM     29  C   UNL     1       0.130  10.722  19.295  0.00  0.00    +0.000 A 
BRANCH  24  31
ATOM     30  C   UNL     1      -1.128  11.568  22.648  0.00  0.00    +0.000 C 
ATOM     31  O   UNL     1      -1.198  11.469  21.233  0.00  0.00    +0.000 OA
ENDBRANCH  24  31
ENDBRANCH  21  27
ENDBRANCH  19  21
ENDBRANCH   1  19
TORSDOF 6
ENDMDL
MODEL 9
REMARK VINA RESULT:      -7.1      8.011     12.300
REMARK  Name = 
REMARK  7 active torsions:
REMARK  status: ('A' for Active; 'I' for Inactive)
REMARK    1  A    between atoms: C_1  and  O_2
REMARK    2  A    between atoms: O_2  and  C_3
REMARK    3  A    between atoms: C_6  and  S_7
REMARK    4  A    between atoms: S_7  and  N_10
REMARK    5  A    between atoms: N_10  and  C_11
REMARK    6  A    between atoms: C_16  and  C_17
REMARK    7  A    between atoms: C_26  and  O_27
REMARK                            x       y       z     vdW  Elec       q    Type
REMARK                         _______ _______ _______ _____ _____    ______ ____
ROOT
ATOM      1  C   UNL     1      -5.206  13.462  21.752  0.00  0.00    +0.000 A 
ATOM      2  C   UNL     1      -5.672  14.455  22.633  0.00  0.00    +0.000 A 
ATOM      3  C   UNL     1      -6.695  15.311  22.245  0.00  0.00    +0.000 A 
ATOM      4  C   UNL     1      -7.271  15.169  20.991  0.00  0.00    +0.000 A 
ATOM      5  C   UNL     1      -6.793  14.200  20.098  0.00  0.00    +0.000 A 
ATOM      6  C   UNL     1      -5.729  13.337  20.434  0.00  0.00    +0.000 A 
ENDROOT
BRANCH   6   7
ATOM      7  C   UNL     1      -5.246  12.339  19.443  0.00  0.00    +0.000 A 
ATOM      8  N   UNL     1      -3.938  11.976  19.392  0.00  0.00    +0.000 NA
ATOM      9  C   UNL     1      -3.537  11.320  18.261  0.00  0.00    +0.000 A 
ATOM     10  C   UNL     1      -2.309  10.674  18.142  0.00  0.00    +0.000 A 
ATOM     11  C   UNL     1      -1.895  10.116  16.927  0.00  0.00    +0.000 A 
ATOM     12  C   UNL     1      -2.666  10.310  15.789  0.00  0.00    +0.000 A 
ATOM     13  C   UNL     1      -3.931  10.872  15.916  0.00  0.00    +0.000 A 
ATOM     14  C   UNL     1      -4.413  11.245  17.159  0.00  0.00    +0.000 A 
ATOM     15  N   UNL     1      -5.724  11.412  17.320  0.00  0.00    +0.000 NA
ATOM     16  C   UNL     1      -6.102  11.681  18.578  0.00  0.00    +0.000 A 
BRANCH  16  17
ATOM     17  O   UNL     1      -6.644  10.545  19.194  0.00  0.00    +0.000 OA
ATOM     18  H   UNL     1      -7.115  10.877  19.975  0.00  0.00    +0.000 HD
ENDBRANCH  16  17
ENDBRANCH   6   7
BRANCH   1  19
ATOM     19  N   UNL     1      -4.230  12.538  22.292  0.00  0.00    +0.000 N 
ATOM     20  H   UNL     1      -4.062  11.777  21.629  0.00  0.00    +0.000 HD
BRANCH  19  21
ATOM     21  S   UNL     1      -2.683  13.226  22.587  0.00  0.00    +0.000 S 
ATOM     22  O   UNL     1      -2.568  13.540  23.996  0.00  0.00    +0.000 OA
ATOM     23  O   UNL     1      -2.487  14.221  21.555  0.00  0.00    +0.000 OA
BRANCH  21  27
ATOM     24  C   UNL     1       0.505  10.029  21.870  0.00  0.00    +0.000 A 
ATOM     25  C   UNL     1      -0.364   9.919  22.961  0.00  0.00    +0.000 A 
ATOM     26  C   UNL     1      -1.398  10.836  23.150  0.00  0.00    +0.000 A 
ATOM     27  C   UNL     1      -1.546  11.895  22.255  0.00  0.00    +0.000 A 
ATOM     28  C   UNL     1      -0.712  11.988  21.132  0.00  0.00    +0.000 A 
ATOM     29  C   UNL     1       0.314  11.053  20.941  0.00  0.00    +0.000 A 
BRANCH  24  31
ATOM     30  C   UNL     1       1.299   7.918  21.119  0.00  0.00    +0.000 C 
ATOM     31  O   UNL     1       1.515   9.108  21.863  0.00  0.00    +0.000 OA
ENDBRANCH  24  31
ENDBRANCH  21  27
ENDBRANCH  19  21
ENDBRANCH   1  19
TORSDOF 6
ENDMDL
