MODEL 1
REMARK VINA RESULT:      -6.4      0.000      0.000
REMARK  Name = 
REMARK  12 active torsions:
REMARK  status: ('A' for Active; 'I' for Inactive)
REMARK    1  A    between atoms: C_1  and  C_2
REMARK    2  A    between atoms: C_2  and  C_3
REMARK    3  A    between atoms: C_3  and  C_4
REMARK    4  A    between atoms: C_4  and  C_5
REMARK    5  A    between atoms: C_5  and  C_6
REMARK    6  A    between atoms: C_6  and  C_7
REMARK    7  A    between atoms: C_7  and  C_8
REMARK    8  A    between atoms: C_8  and  C_9
REMARK    9  A    between atoms: C_9  and  S_10
REMARK   10  A    between atoms: S_10  and  C_11
REMARK   11  A    between atoms: C_14  and  C_15
REMARK   12  A    between atoms: C_15  and  O_17
REMARK                            x       y       z     vdW  Elec       q    Type
REMARK                         _______ _______ _______ _____ _____    ______ ____
ROOT
ATOM      1  C   UNL     1       6.427   5.114  16.266  0.00  0.00    +0.000 A 
ATOM      2  N   UNL     1       5.561   4.180  16.073  0.00  0.00    +0.000 NA
ATOM      3  C   UNL     1       5.522   3.634  14.809  0.00  0.00    +0.000 A 
ATOM      4  C   UNL     1       6.270   4.020  13.765  0.00  0.00    +0.000 A 
ATOM      5  C   UNL     1       7.244   5.091  14.030  0.00  0.00    +0.000 A 
ATOM      6  O   UNL     1       7.974   5.513  13.133  0.00  0.00    +0.000 OA
ATOM      7  N   UNL     1       7.277   5.569  15.308  0.00  0.00    +0.000 N 
ATOM      8  H   UNL     1       7.942   6.293  15.539  0.00  0.00    +0.000 HD
ENDROOT
BRANCH   4   9
ATOM      9  C   UNL     1       6.066   3.380  12.447  0.00  0.00    +0.000 C 
ATOM     10  O   UNL     1       4.998   3.375  11.867  0.00  0.00    +0.000 OA
BRANCH   9  11
ATOM     11  O   UNL     1       7.173   2.811  11.913  0.00  0.00    +0.000 OA
ATOM     12  H   UNL     1       7.104   1.845  11.726  0.00  0.00    +0.000 HD
ENDBRANCH   9  11
ENDBRANCH   4   9
BRANCH   1  13
ATOM     13  S   UNL     1       6.648   5.913  17.779  0.00  0.00    +0.000 S 
BRANCH  13  14
ATOM     14  C   UNL     1       5.809   4.778  18.941  0.00  0.00    +0.000 C 
BRANCH  14  15
ATOM     15  C   UNL     1       4.507   5.404  19.468  0.00  0.00    +0.000 C 
BRANCH  15  16
ATOM     16  C   UNL     1       3.752   6.178  18.383  0.00  0.00    +0.000 C 
BRANCH  16  17
ATOM     17  C   UNL     1       2.327   5.661  18.210  0.00  0.00    +0.000 C 
BRANCH  17  18
ATOM     18  C   UNL     1       2.320   4.282  17.554  0.00  0.00    +0.000 C 
BRANCH  18  19
ATOM     19  C   UNL     1       1.238   3.391  18.161  0.00  0.00    +0.000 C 
BRANCH  19  20
ATOM     20  C   UNL     1       1.762   2.663  19.396  0.00  0.00    +0.000 C 
BRANCH  20  22
ATOM     21  C   UNL     1       2.191   3.417  21.748  0.00  0.00    +0.000 C 
ATOM     22  C   UNL     1       1.138   3.223  20.671  0.00  0.00    +0.000 C 
ENDBRANCH  20  22
ENDBRANCH  19  20
ENDBRANCH  18  19
ENDBRANCH  17  18
ENDBRANCH  16  17
ENDBRANCH  15  16
ENDBRANCH  14  15
ENDBRANCH  13  14
ENDBRANCH   1  13
TORSDOF 11
ENDMDL
MODEL 2
REMARK VINA RESULT:      -6.4      3.088      4.495
REMARK  Name = 
REMARK  12 active torsions:
REMARK  status: ('A' for Active; 'I' for Inactive)
REMARK    1  A    between atoms: C_1  and  C_2
REMARK    2  A    between atoms: C_2  and  C_3
REMARK    3  A    between atoms: C_3  and  C_4
REMARK    4  A    between atoms: C_4  and  C_5
REMARK    5  A    between atoms: C_5  and  C_6
REMARK    6  A    between atoms: C_6  and  C_7
REMARK    7  A    between atoms: C_7  and  C_8
REMARK    8  A    between atoms: C_8  and  C_9
REMARK    9  A    between atoms: C_9  and  S_10
REMARK   10  A    between atoms: S_10  and  C_11
REMARK   11  A    between atoms: C_14  and  C_15
REMARK   12  A    between atoms: C_15  and  O_17
REMARK                            x       y       z     vdW  Elec       q    Type
REMARK                         _______ _______ _______ _____ _____    ______ ____
ROOT
ATOM      1  C   UNL     1       4.186   3.002  18.210  0.00  0.00    +0.000 A 
ATOM      2  N   UNL     1       3.782   3.405  17.055  0.00  0.00    +0.000 NA
ATOM      3  C   UNL     1       4.510   4.418  16.471  0.00  0.00    +0.000 A 
ATOM      4  C   UNL     1       5.564   5.041  17.019  0.00  0.00    +0.000 A 
ATOM      5  C   UNL     1       5.991   4.550  18.339  0.00  0.00    +0.000 A 
ATOM      6  O   UNL     1       6.948   5.061  18.921  0.00  0.00    +0.000 OA
ATOM      7  N   UNL     1       5.267   3.515  18.856  0.00  0.00    +0.000 N 
ATOM      8  H   UNL     1       5.534   3.135  19.753  0.00  0.00    +0.000 HD
ENDROOT
BRANCH   4   9
ATOM      9  C   UNL     1       6.205   6.160  16.294  0.00  0.00    +0.000 C 
ATOM     10  O   UNL     1       5.582   6.973  15.639  0.00  0.00    +0.000 OA
BRANCH   9  11
ATOM     11  O   UNL     1       7.549   6.232  16.432  0.00  0.00    +0.000 OA
ATOM     12  H   UNL     1       7.884   7.024  16.918  0.00  0.00    +0.000 HD
ENDBRANCH   9  11
ENDBRANCH   4   9
BRANCH   1  13
ATOM     13  S   UNL     1       3.425   1.734  19.099  0.00  0.00    +0.000 S 
BRANCH  13  14
ATOM     14  C   UNL     1       3.803   2.195  20.828  0.00  0.00    +0.000 C 
BRANCH  14  15
ATOM     15  C   UNL     1       2.563   2.790  21.515  0.00  0.00    +0.000 C 
BRANCH  15  16
ATOM     16  C   UNL     1       1.322   2.742  20.620  0.00  0.00    +0.000 C 
BRANCH  16  17
ATOM     17  C   UNL     1       0.786   4.140  20.325  0.00  0.00    +0.000 C 
BRANCH  17  18
ATOM     18  C   UNL     1       1.857   5.201  20.571  0.00  0.00    +0.000 C 
BRANCH  18  19
ATOM     19  C   UNL     1       2.331   5.817  19.257  0.00  0.00    +0.000 C 
BRANCH  19  20
ATOM     20  C   UNL     1       2.475   7.331  19.386  0.00  0.00    +0.000 C 
BRANCH  20  22
ATOM     21  C   UNL     1       1.599   9.069  17.804  0.00  0.00    +0.000 C 
ATOM     22  C   UNL     1       2.644   7.987  18.018  0.00  0.00    +0.000 C 
ENDBRANCH  20  22
ENDBRANCH  19  20
ENDBRANCH  18  19
ENDBRANCH  17  18
ENDBRANCH  16  17
ENDBRANCH  15  16
ENDBRANCH  14  15
ENDBRANCH  13  14
ENDBRANCH   1  13
TORSDOF 11
ENDMDL
MODEL 3
REMARK VINA RESULT:      -6.3      3.337      4.879
REMARK  Name = 
REMARK  12 active torsions:
REMARK  status: ('A' for Active; 'I' for Inactive)
REMARK    1  A    between atoms: C_1  and  C_2
REMARK    2  A    between atoms: C_2  and  C_3
REMARK    3  A    between atoms: C_3  and  C_4
REMARK    4  A    between atoms: C_4  and  C_5
REMARK    5  A    between atoms: C_5  and  C_6
REMARK    6  A    between atoms: C_6  and  C_7
REMARK    7  A    between atoms: C_7  and  C_8
REMARK    8  A    between atoms: C_8  and  C_9
REMARK    9  A    between atoms: C_9  and  S_10
REMARK   10  A    between atoms: S_10  and  C_11
REMARK   11  A    between atoms: C_14  and  C_15
REMARK   12  A    between atoms: C_15  and  O_17
REMARK                            x       y       z     vdW  Elec       q    Type
REMARK                         _______ _______ _______ _____ _____    ______ ____
ROOT
ATOM      1  C   UNL     1       4.773   3.843  17.705  0.00  0.00    +0.000 A 
ATOM      2  N   UNL     1       4.911   4.575  16.654  0.00  0.00    +0.000 NA
ATOM      3  C   UNL     1       5.820   5.606  16.741  0.00  0.00    +0.000 A 
ATOM      4  C   UNL     1       6.530   5.934  17.830  0.00  0.00    +0.000 A 
ATOM      5  C   UNL     1       6.341   5.074  19.009  0.00  0.00    +0.000 A 
ATOM      6  O   UNL     1       6.949   5.298  20.055  0.00  0.00    +0.000 OA
ATOM      7  N   UNL     1       5.465   4.038  18.860  0.00  0.00    +0.000 N 
ATOM      8  H   UNL     1       5.316   3.411  19.638  0.00  0.00    +0.000 HD
ENDROOT
BRANCH   4   9
ATOM      9  C   UNL     1       7.421   7.115  17.789  0.00  0.00    +0.000 C 
ATOM     10  O   UNL     1       7.328   7.991  16.951  0.00  0.00    +0.000 OA
BRANCH   9  11
ATOM     11  O   UNL     1       8.345   7.165  18.777  0.00  0.00    +0.000 OA
ATOM     12  H   UNL     1       8.178   6.567  19.544  0.00  0.00    +0.000 HD
ENDBRANCH   9  11
ENDBRANCH   4   9
BRANCH   1  13
ATOM     13  S   UNL     1       3.703   2.493  17.796  0.00  0.00    +0.000 S 
BRANCH  13  14
ATOM     14  C   UNL     1       2.063   3.292  17.678  0.00  0.00    +0.000 C 
BRANCH  14  15
ATOM     15  C   UNL     1       1.074   2.655  18.668  0.00  0.00    +0.000 C 
BRANCH  15  16
ATOM     16  C   UNL     1       1.750   2.233  19.976  0.00  0.00    +0.000 C 
BRANCH  16  17
ATOM     17  C   UNL     1       1.373   3.160  21.129  0.00  0.00    +0.000 C 
BRANCH  17  18
ATOM     18  C   UNL     1       2.287   4.384  21.169  0.00  0.00    +0.000 C 
BRANCH  18  19
ATOM     19  C   UNL     1       1.574   5.618  20.620  0.00  0.00    +0.000 C 
BRANCH  19  20
ATOM     20  C   UNL     1       2.478   6.387  19.661  0.00  0.00    +0.000 C 
BRANCH  20  22
ATOM     21  C   UNL     1       1.412   8.312  20.862  0.00  0.00    +0.000 C 
ATOM     22  C   UNL     1       2.064   7.853  19.569  0.00  0.00    +0.000 C 
ENDBRANCH  20  22
ENDBRANCH  19  20
ENDBRANCH  18  19
ENDBRANCH  17  18
ENDBRANCH  16  17
ENDBRANCH  15  16
ENDBRANCH  14  15
ENDBRANCH  13  14
ENDBRANCH   1  13
TORSDOF 11
ENDMDL
MODEL 4
REMARK VINA RESULT:      -6.1      3.020      4.852
REMARK  Name = 
REMARK  12 active torsions:
REMARK  status: ('A' for Active; 'I' for Inactive)
REMARK    1  A    between atoms: C_1  and  C_2
REMARK    2  A    between atoms: C_2  and  C_3
REMARK    3  A    between atoms: C_3  and  C_4
REMARK    4  A    between atoms: C_4  and  C_5
REMARK    5  A    between atoms: C_5  and  C_6
REMARK    6  A    between atoms: C_6  and  C_7
REMARK    7  A    between atoms: C_7  and  C_8
REMARK    8  A    between atoms: C_8  and  C_9
REMARK    9  A    between atoms: C_9  and  S_10
REMARK   10  A    between atoms: S_10  and  C_11
REMARK   11  A    between atoms: C_14  and  C_15
REMARK   12  A    between atoms: C_15  and  O_17
REMARK                            x       y       z     vdW  Elec       q    Type
REMARK                         _______ _______ _______ _____ _____    ______ ____
ROOT
ATOM      1  C   UNL     1       4.643   4.138  17.868  0.00  0.00    +0.000 A 
ATOM      2  N   UNL     1       5.441   4.239  18.874  0.00  0.00    +0.000 NA
ATOM      3  C   UNL     1       6.355   5.268  18.829  0.00  0.00    +0.000 A 
ATOM      4  C   UNL     1       6.511   6.134  17.817  0.00  0.00    +0.000 A 
ATOM      5  C   UNL     1       5.580   5.981  16.687  0.00  0.00    +0.000 A 
ATOM      6  O   UNL     1       5.647   6.729  15.711  0.00  0.00    +0.000 OA
ATOM      7  N   UNL     1       4.663   4.977  16.798  0.00  0.00    +0.000 N 
ATOM      8  H   UNL     1       3.993   4.846  16.053  0.00  0.00    +0.000 HD
ENDROOT
BRANCH   4   9
ATOM      9  C   UNL     1       7.586   7.148  17.885  0.00  0.00    +0.000 C 
ATOM     10  O   UNL     1       7.743   8.011  17.042  0.00  0.00    +0.000 OA
BRANCH   9  11
ATOM     11  O   UNL     1       8.381   7.062  18.977  0.00  0.00    +0.000 OA
ATOM     12  H   UNL     1       8.041   7.517  19.785  0.00  0.00    +0.000 HD
ENDBRANCH   9  11
ENDBRANCH   4   9
BRANCH   1  13
ATOM     13  S   UNL     1       3.415   2.932  17.740  0.00  0.00    +0.000 S 
BRANCH  13  14
ATOM     14  C   UNL     1       3.148   2.466  19.488  0.00  0.00    +0.000 C 
BRANCH  14  15
ATOM     15  C   UNL     1       1.646   2.385  19.805  0.00  0.00    +0.000 C 
BRANCH  15  16
ATOM     16  C   UNL     1       1.141   3.623  20.553  0.00  0.00    +0.000 C 
BRANCH  16  17
ATOM     17  C   UNL     1       2.284   4.565  20.920  0.00  0.00    +0.000 C 
BRANCH  17  18
ATOM     18  C   UNL     1       1.922   6.015  20.603  0.00  0.00    +0.000 C 
BRANCH  18  19
ATOM     19  C   UNL     1       2.895   6.615  19.591  0.00  0.00    +0.000 C 
BRANCH  19  20
ATOM     20  C   UNL     1       2.177   6.979  18.295  0.00  0.00    +0.000 C 
BRANCH  20  22
ATOM     21  C   UNL     1       1.279   9.270  17.811  0.00  0.00    +0.000 C 
ATOM     22  C   UNL     1       2.523   8.399  17.853  0.00  0.00    +0.000 C 
ENDBRANCH  20  22
ENDBRANCH  19  20
ENDBRANCH  18  19
ENDBRANCH  17  18
ENDBRANCH  16  17
ENDBRANCH  15  16
ENDBRANCH  14  15
ENDBRANCH  13  14
ENDBRANCH   1  13
TORSDOF 11
ENDMDL
MODEL 5
REMARK VINA RESULT:      -6.1      0.950      1.584
REMARK  Name = 
REMARK  12 active torsions:
REMARK  status: ('A' for Active; 'I' for Inactive)
REMARK    1  A    between atoms: C_1  and  C_2
REMARK    2  A    between atoms: C_2  and  C_3
REMARK    3  A    between atoms: C_3  and  C_4
REMARK    4  A    between atoms: C_4  and  C_5
REMARK    5  A    between atoms: C_5  and  C_6
REMARK    6  A    between atoms: C_6  and  C_7
REMARK    7  A    between atoms: C_7  and  C_8
REMARK    8  A    between atoms: C_8  and  C_9
REMARK    9  A    between atoms: C_9  and  S_10
REMARK   10  A    between atoms: S_10  and  C_11
REMARK   11  A    between atoms: C_14  and  C_15
REMARK   12  A    between atoms: C_15  and  O_17
REMARK                            x       y       z     vdW  Elec       q    Type
REMARK                         _______ _______ _______ _____ _____    ______ ____
ROOT
ATOM      1  C   UNL     1       6.624   4.902  16.557  0.00  0.00    +0.000 A 
ATOM      2  N   UNL     1       5.773   3.977  16.271  0.00  0.00    +0.000 NA
ATOM      3  C   UNL     1       5.710   3.590  14.951  0.00  0.00    +0.000 A 
ATOM      4  C   UNL     1       6.420   4.121  13.944  0.00  0.00    +0.000 A 
ATOM      5  C   UNL     1       7.377   5.176  14.314  0.00  0.00    +0.000 A 
ATOM      6  O   UNL     1       8.072   5.724  13.458  0.00  0.00    +0.000 OA
ATOM      7  N   UNL     1       7.437   5.493  15.640  0.00  0.00    +0.000 N 
ATOM      8  H   UNL     1       8.092   6.200  15.942  0.00  0.00    +0.000 HD
ENDROOT
BRANCH   4   9
ATOM      9  C   UNL     1       6.192   3.644  12.563  0.00  0.00    +0.000 C 
ATOM     10  O   UNL     1       5.114   3.247  12.164  0.00  0.00    +0.000 OA
BRANCH   9  11
ATOM     11  O   UNL     1       7.277   3.701  11.755  0.00  0.00    +0.000 OA
ATOM     12  H   UNL     1       8.089   3.263  12.104  0.00  0.00    +0.000 HD
ENDBRANCH   9  11
ENDBRANCH   4   9
BRANCH   1  13
ATOM     13  S   UNL     1       6.871   5.514  18.151  0.00  0.00    +0.000 S 
BRANCH  13  14
ATOM     14  C   UNL     1       5.266   5.160  18.953  0.00  0.00    +0.000 C 
BRANCH  14  15
ATOM     15  C   UNL     1       4.163   6.067  18.385  0.00  0.00    +0.000 C 
BRANCH  15  16
ATOM     16  C   UNL     1       3.006   6.263  19.370  0.00  0.00    +0.000 C 
BRANCH  16  17
ATOM     17  C   UNL     1       2.796   5.031  20.245  0.00  0.00    +0.000 C 
BRANCH  17  18
ATOM     18  C   UNL     1       1.324   4.869  20.620  0.00  0.00    +0.000 C 
BRANCH  18  19
ATOM     19  C   UNL     1       0.765   3.549  20.094  0.00  0.00    +0.000 C 
BRANCH  19  20
ATOM     20  C   UNL     1       1.386   3.193  18.746  0.00  0.00    +0.000 C 
BRANCH  20  22
ATOM     21  C   UNL     1       3.402   1.882  18.036  0.00  0.00    +0.000 C 
ATOM     22  C   UNL     1       2.091   1.841  18.804  0.00  0.00    +0.000 C 
ENDBRANCH  20  22
ENDBRANCH  19  20
ENDBRANCH  18  19
ENDBRANCH  17  18
ENDBRANCH  16  17
ENDBRANCH  15  16
ENDBRANCH  14  15
ENDBRANCH  13  14
ENDBRANCH   1  13
TORSDOF 11
ENDMDL
MODEL 6
REMARK VINA RESULT:      -6.1      2.756      4.649
REMARK  Name = 
REMARK  12 active torsions:
REMARK  status: ('A' for Active; 'I' for Inactive)
REMARK    1  A    between atoms: C_1  and  C_2
REMARK    2  A    between atoms: C_2  and  C_3
REMARK    3  A    between atoms: C_3  and  C_4
REMARK    4  A    between atoms: C_4  and  C_5
REMARK    5  A    between atoms: C_5  and  C_6
REMARK    6  A    between atoms: C_6  and  C_7
REMARK    7  A    between atoms: C_7  and  C_8
REMARK    8  A    between atoms: C_8  and  C_9
REMARK    9  A    between atoms: C_9  and  S_10
REMARK   10  A    between atoms: S_10  and  C_11
REMARK   11  A    between atoms: C_14  and  C_15
REMARK   12  A    between atoms: C_15  and  O_17
REMARK                            x       y       z     vdW  Elec       q    Type
REMARK                         _______ _______ _______ _____ _____    ______ ____
ROOT
ATOM      1  C   UNL     1       4.470   3.846  17.490  0.00  0.00    +0.000 A 
ATOM      2  N   UNL     1       5.045   3.981  18.635  0.00  0.00    +0.000 NA
ATOM      3  C   UNL     1       6.012   4.958  18.722  0.00  0.00    +0.000 A 
ATOM      4  C   UNL     1       6.429   5.739  17.715  0.00  0.00    +0.000 A 
ATOM      5  C   UNL     1       5.746   5.551  16.425  0.00  0.00    +0.000 A 
ATOM      6  O   UNL     1       6.062   6.221  15.442  0.00  0.00    +0.000 OA
ATOM      7  N   UNL     1       4.765   4.603  16.400  0.00  0.00    +0.000 N 
ATOM      8  H   UNL     1       4.258   4.451  15.539  0.00  0.00    +0.000 HD
ENDROOT
BRANCH   4   9
ATOM      9  C   UNL     1       7.528   6.702  17.948  0.00  0.00    +0.000 C 
ATOM     10  O   UNL     1       8.271   6.646  18.909  0.00  0.00    +0.000 OA
BRANCH   9  11
ATOM     11  O   UNL     1       7.667   7.650  16.992  0.00  0.00    +0.000 OA
ATOM     12  H   UNL     1       7.570   8.582  17.302  0.00  0.00    +0.000 HD
ENDBRANCH   9  11
ENDBRANCH   4   9
BRANCH   1  13
ATOM     13  S   UNL     1       3.222   2.696  17.178  0.00  0.00    +0.000 S 
BRANCH  13  14
ATOM     14  C   UNL     1       3.202   1.720  18.724  0.00  0.00    +0.000 C 
BRANCH  14  15
ATOM     15  C   UNL     1       2.117   2.240  19.681  0.00  0.00    +0.000 C 
BRANCH  15  16
ATOM     16  C   UNL     1       2.693   2.676  21.032  0.00  0.00    +0.000 C 
BRANCH  16  17
ATOM     17  C   UNL     1       2.155   4.038  21.461  0.00  0.00    +0.000 C 
BRANCH  17  18
ATOM     18  C   UNL     1       1.499   4.763  20.286  0.00  0.00    +0.000 C 
BRANCH  18  19
ATOM     19  C   UNL     1       2.315   5.984  19.870  0.00  0.00    +0.000 C 
BRANCH  19  20
ATOM     20  C   UNL     1       2.232   6.207  18.363  0.00  0.00    +0.000 C 
BRANCH  20  22
ATOM     21  C   UNL     1       1.971   8.648  17.855  0.00  0.00    +0.000 C 
ATOM     22  C   UNL     1       2.950   7.491  17.955  0.00  0.00    +0.000 C 
ENDBRANCH  20  22
ENDBRANCH  19  20
ENDBRANCH  18  19
ENDBRANCH  17  18
ENDBRANCH  16  17
ENDBRANCH  15  16
ENDBRANCH  14  15
ENDBRANCH  13  14
ENDBRANCH   1  13
TORSDOF 11
ENDMDL
MODEL 7
REMARK VINA RESULT:      -6.1      3.801      7.007
REMARK  Name = 
REMARK  12 active torsions:
REMARK  status: ('A' for Active; 'I' for Inactive)
REMARK    1  A    between atoms: C_1  and  C_2
REMARK    2  A    between atoms: C_2  and  C_3
REMARK    3  A    between atoms: C_3  and  C_4
REMARK    4  A    between atoms: C_4  and  C_5
REMARK    5  A    between atoms: C_5  and  C_6
REMARK    6  A    between atoms: C_6  and  C_7
REMARK    7  A    between atoms: C_7  and  C_8
REMARK    8  A    between atoms: C_8  and  C_9
REMARK    9  A    between atoms: C_9  and  S_10
REMARK   10  A    between atoms: S_10  and  C_11
REMARK   11  A    between atoms: C_14  and  C_15
REMARK   12  A    between atoms: C_15  and  O_17
REMARK                            x       y       z     vdW  Elec       q    Type
REMARK                         _______ _______ _______ _____ _____    ______ ____
ROOT
ATOM      1  C   UNL     1       5.139   4.648  18.665  0.00  0.00    +0.000 A 
ATOM      2  N   UNL     1       4.299   5.443  19.233  0.00  0.00    +0.000 NA
ATOM      3  C   UNL     1       3.143   4.869  19.713  0.00  0.00    +0.000 A 
ATOM      4  C   UNL     1       2.804   3.577  19.599  0.00  0.00    +0.000 A 
ATOM      5  C   UNL     1       3.791   2.705  18.943  0.00  0.00    +0.000 A 
ATOM      6  O   UNL     1       3.567   1.504  18.791  0.00  0.00    +0.000 OA
ATOM      7  N   UNL     1       4.940   3.310  18.525  0.00  0.00    +0.000 N 
ATOM      8  H   UNL     1       5.653   2.747  18.083  0.00  0.00    +0.000 HD
ENDROOT
BRANCH   4   9
ATOM      9  C   UNL     1       1.491   3.121  20.108  0.00  0.00    +0.000 C 
ATOM     10  O   UNL     1       1.179   3.168  21.283  0.00  0.00    +0.000 OA
BRANCH   9  11
ATOM     11  O   UNL     1       0.641   2.663  19.160  0.00  0.00    +0.000 OA
ATOM     12  H   UNL     1      -0.319   2.734  19.382  0.00  0.00    +0.000 HD
ENDBRANCH   9  11
ENDBRANCH   4   9
BRANCH   1  13
ATOM     13  S   UNL     1       6.653   5.162  18.016  0.00  0.00    +0.000 S 
BRANCH  13  14
ATOM     14  C   UNL     1       6.141   6.425  16.797  0.00  0.00    +0.000 C 
BRANCH  14  15
ATOM     15  C   UNL     1       5.061   5.866  15.856  0.00  0.00    +0.000 C 
BRANCH  15  16
ATOM     16  C   UNL     1       5.561   4.669  15.042  0.00  0.00    +0.000 C 
BRANCH  16  17
ATOM     17  C   UNL     1       6.851   4.996  14.295  0.00  0.00    +0.000 C 
BRANCH  17  18
ATOM     18  C   UNL     1       6.850   4.372  12.900  0.00  0.00    +0.000 C 
BRANCH  18  19
ATOM     19  C   UNL     1       5.868   3.206  12.821  0.00  0.00    +0.000 C 
BRANCH  19  20
ATOM     20  C   UNL     1       5.289   3.075  11.416  0.00  0.00    +0.000 C 
BRANCH  20  22
ATOM     21  C   UNL     1       3.324   3.735  10.004  0.00  0.00    +0.000 C 
ATOM     22  C   UNL     1       3.794   3.383  11.406  0.00  0.00    +0.000 C 
ENDBRANCH  20  22
ENDBRANCH  19  20
ENDBRANCH  18  19
ENDBRANCH  17  18
ENDBRANCH  16  17
ENDBRANCH  15  16
ENDBRANCH  14  15
ENDBRANCH  13  14
ENDBRANCH   1  13
TORSDOF 11
ENDMDL
MODEL 8
REMARK VINA RESULT:      -6.1      4.039      7.144
REMARK  Name = 
REMARK  12 active torsions:
REMARK  status: ('A' for Active; 'I' for Inactive)
REMARK    1  A    between atoms: C_1  and  C_2
REMARK    2  A    between atoms: C_2  and  C_3
REMARK    3  A    between atoms: C_3  and  C_4
REMARK    4  A    between atoms: C_4  and  C_5
REMARK    5  A    between atoms: C_5  and  C_6
REMARK    6  A    between atoms: C_6  and  C_7
REMARK    7  A    between atoms: C_7  and  C_8
REMARK    8  A    between atoms: C_8  and  C_9
REMARK    9  A    between atoms: C_9  and  S_10
REMARK   10  A    between atoms: S_10  and  C_11
REMARK   11  A    between atoms: C_14  and  C_15
REMARK   12  A    between atoms: C_15  and  O_17
REMARK                            x       y       z     vdW  Elec       q    Type
REMARK                         _______ _______ _______ _____ _____    ______ ____
ROOT
ATOM      1  C   UNL     1       5.767   4.502  18.483  0.00  0.00    +0.000 A 
ATOM      2  N   UNL     1       4.965   5.504  18.595  0.00  0.00    +0.000 NA
ATOM      3  C   UNL     1       3.799   5.279  19.294  0.00  0.00    +0.000 A 
ATOM      4  C   UNL     1       3.415   4.107  19.821  0.00  0.00    +0.000 A 
ATOM      5  C   UNL     1       4.360   2.989  19.667  0.00  0.00    +0.000 A 
ATOM      6  O   UNL     1       4.094   1.875  20.117  0.00  0.00    +0.000 OA
ATOM      7  N   UNL     1       5.521   3.272  19.008  0.00  0.00    +0.000 N 
ATOM      8  H   UNL     1       6.206   2.539  18.894  0.00  0.00    +0.000 HD
ENDROOT
BRANCH   4   9
ATOM      9  C   UNL     1       2.099   4.006  20.488  0.00  0.00    +0.000 C 
ATOM     10  O   UNL     1       1.968   3.922  21.694  0.00  0.00    +0.000 OA
BRANCH   9  11
ATOM     11  O   UNL     1       1.034   4.036  19.653  0.00  0.00    +0.000 OA
ATOM     12  H   UNL     1       0.449   3.242  19.684  0.00  0.00    +0.000 HD
ENDBRANCH   9  11
ENDBRANCH   4   9
BRANCH   1  13
ATOM     13  S   UNL     1       7.284   4.579  17.664  0.00  0.00    +0.000 S 
BRANCH  13  14
ATOM     14  C   UNL     1       7.097   6.088  16.647  0.00  0.00    +0.000 C 
BRANCH  14  15
ATOM     15  C   UNL     1       6.968   5.728  15.158  0.00  0.00    +0.000 C 
BRANCH  15  16
ATOM     16  C   UNL     1       5.614   5.091  14.828  0.00  0.00    +0.000 C 
BRANCH  16  17
ATOM     17  C   UNL     1       5.774   3.665  14.309  0.00  0.00    +0.000 C 
BRANCH  17  18
ATOM     18  C   UNL     1       6.396   3.656  12.913  0.00  0.00    +0.000 C 
BRANCH  18  19
ATOM     19  C   UNL     1       5.505   2.910  11.922  0.00  0.00    +0.000 C 
BRANCH  19  20
ATOM     20  C   UNL     1       4.229   3.698  11.637  0.00  0.00    +0.000 C 
BRANCH  20  22
ATOM     21  C   UNL     1       2.883   4.235   9.591  0.00  0.00    +0.000 C 
ATOM     22  C   UNL     1       3.485   3.124  10.434  0.00  0.00    +0.000 C 
ENDBRANCH  20  22
ENDBRANCH  19  20
ENDBRANCH  18  19
ENDBRANCH  17  18
ENDBRANCH  16  17
ENDBRANCH  15  16
ENDBRANCH  14  15
ENDBRANCH  13  14
ENDBRANCH   1  13
TORSDOF 11
ENDMDL
MODEL 9
REMARK VINA RESULT:      -6.1      5.772      8.185
REMARK  Name = 
REMARK  12 active torsions:
REMARK  status: ('A' for Active; 'I' for Inactive)
REMARK    1  A    between atoms: C_1  and  C_2
REMARK    2  A    between atoms: C_2  and  C_3
REMARK    3  A    between atoms: C_3  and  C_4
REMARK    4  A    between atoms: C_4  and  C_5
REMARK    5  A    between atoms: C_5  and  C_6
REMARK    6  A    between atoms: C_6  and  C_7
REMARK    7  A    between atoms: C_7  and  C_8
REMARK    8  A    between atoms: C_8  and  C_9
REMARK    9  A    between atoms: C_9  and  S_10
REMARK   10  A    between atoms: S_10  and  C_11
REMARK   11  A    between atoms: C_14  and  C_15
REMARK   12  A    between atoms: C_15  and  O_17
REMARK                            x       y       z     vdW  Elec       q    Type
REMARK                         _______ _______ _______ _____ _____    ______ ____
ROOT
ATOM      1  C   UNL     1       4.379   3.862  17.669  0.00  0.00    +0.000 A 
ATOM      2  N   UNL     1       3.167   4.280  17.797  0.00  0.00    +0.000 NA
ATOM      3  C   UNL     1       2.518   3.927  18.958  0.00  0.00    +0.000 A 
ATOM      4  C   UNL     1       3.021   3.156  19.934  0.00  0.00    +0.000 A 
ATOM      5  C   UNL     1       4.407   2.699  19.746  0.00  0.00    +0.000 A 
ATOM      6  O   UNL     1       4.954   1.986  20.588  0.00  0.00    +0.000 OA
ATOM      7  N   UNL     1       5.024   3.113  18.602  0.00  0.00    +0.000 N 
ATOM      8  H   UNL     1       5.982   2.837  18.439  0.00  0.00    +0.000 HD
ENDROOT
BRANCH   4   9
ATOM      9  C   UNL     1       2.174   2.807  21.096  0.00  0.00    +0.000 C 
ATOM     10  O   UNL     1       2.626   2.498  22.181  0.00  0.00    +0.000 OA
BRANCH   9  11
ATOM     11  O   UNL     1       0.841   2.877  20.870  0.00  0.00    +0.000 OA
ATOM     12  H   UNL     1       0.504   2.303  20.141  0.00  0.00    +0.000 HD
ENDBRANCH   9  11
ENDBRANCH   4   9
BRANCH   1  13
ATOM     13  S   UNL     1       5.371   4.211  16.300  0.00  0.00    +0.000 S 
BRANCH  13  14
ATOM     14  C   UNL     1       6.849   4.958  17.075  0.00  0.00    +0.000 C 
BRANCH  14  15
ATOM     15  C   UNL     1       6.625   6.455  17.342  0.00  0.00    +0.000 C 
BRANCH  15  16
ATOM     16  C   UNL     1       7.925   7.184  17.695  0.00  0.00    +0.000 C 
BRANCH  16  17
ATOM     17  C   UNL     1       7.734   8.698  17.718  0.00  0.00    +0.000 C 
BRANCH  17  18
ATOM     18  C   UNL     1       8.672   9.354  18.730  0.00  0.00    +0.000 C 
BRANCH  18  19
ATOM     19  C   UNL     1       9.297  10.624  18.156  0.00  0.00    +0.000 C 
BRANCH  19  20
ATOM     20  C   UNL     1      10.056  11.393  19.233  0.00  0.00    +0.000 C 
BRANCH  20  22
ATOM     21  C   UNL     1      12.180  12.622  19.748  0.00  0.00    +0.000 C 
ATOM     22  C   UNL     1      11.512  11.613  18.831  0.00  0.00    +0.000 C 
ENDBRANCH  20  22
ENDBRANCH  19  20
ENDBRANCH  18  19
ENDBRANCH  17  18
ENDBRANCH  16  17
ENDBRANCH  15  16
ENDBRANCH  14  15
ENDBRANCH  13  14
ENDBRANCH   1  13
TORSDOF 11
ENDMDL
