MODEL 1
REMARK VINA RESULT:      -7.6      0.000      0.000
REMARK  Name = 
REMARK  6 active torsions:
REMARK  status: ('A' for Active; 'I' for Inactive)
REMARK    1  A    between atoms: C_1  and  C_2
REMARK    2  A    between atoms: C_5  and  N_6
REMARK    3  A    between atoms: C_11  and  N_12
REMARK    4  A    between atoms: C_13  and  C_15
REMARK    5  A    between atoms: C_16  and  C_17
REMARK    6  A    between atoms: C_27  and  C_28
REMARK                            x       y       z     vdW  Elec       q    Type
REMARK                         _______ _______ _______ _____ _____    ______ ____
ROOT
ATOM      1  N   UNL     1      -3.044  12.641  19.508  0.00  0.00    +0.000 N 
ATOM      2  C   UNL     1      -2.578  13.732  20.216  0.00  0.00    +0.000 C 
ATOM      3  O   UNL     1      -3.254  14.503  20.891  0.00  0.00    +0.000 OA
ATOM      4  H   UNL     1      -2.335  11.953  19.328  0.00  0.00    +0.000 HD
ENDROOT
BRANCH   1  10
ATOM      5  C   UNL     1      -7.567  12.671  21.531  0.00  0.00    +0.000 C 
ATOM      6  C   UNL     1      -6.628  12.189  20.464  0.00  0.00    +0.000 A 
ATOM      7  C   UNL     1      -7.087  11.359  19.445  0.00  0.00    +0.000 A 
ATOM      8  C   UNL     1      -6.223  10.950  18.431  0.00  0.00    +0.000 A 
ATOM      9  C   UNL     1      -4.880  11.384  18.395  0.00  0.00    +0.000 A 
ATOM     10  C   UNL     1      -4.392  12.203  19.441  0.00  0.00    +0.000 A 
ATOM     11  C   UNL     1      -5.281  12.586  20.466  0.00  0.00    +0.000 A 
BRANCH   9  12
ATOM     12  N   UNL     1      -4.073  10.872  17.327  0.00  0.00    +0.000 N 
ATOM     13  C   UNL     1      -4.028  11.397  16.043  0.00  0.00    +0.000 A 
ATOM     14  C   UNL     1      -3.185  10.637  15.263  0.00  0.00    +0.000 A 
ATOM     15  C   UNL     1      -2.655   9.631  16.092  0.00  0.00    +0.000 A 
ATOM     16  C   UNL     1      -3.168   9.828  17.356  0.00  0.00    +0.000 A 
ENDBRANCH   9  12
ENDBRANCH   1  10
BRANCH   2  17
ATOM     17  C   UNL     1      -1.125  13.826  20.183  0.00  0.00    +0.000 A 
ATOM     18  C   UNL     1      -0.106  12.911  20.619  0.00  0.00    +0.000 A 
ATOM     19  N   UNL     1       1.104  13.413  20.311  0.00  0.00    +0.000 NA
ATOM     20  O   UNL     1       0.904  14.653  19.768  0.00  0.00    +0.000 OA
ATOM     21  C   UNL     1      -0.421  14.906  19.679  0.00  0.00    +0.000 A 
ATOM     22  C   UNL     1      -0.795  16.211  19.101  0.00  0.00    +0.000 C 
BRANCH  18  23
ATOM     23  C   UNL     1      -0.198  11.581  21.247  0.00  0.00    +0.000 A 
ATOM     24  C   UNL     1      -0.721  11.400  22.544  0.00  0.00    +0.000 A 
ATOM     25 CL   UNL     1      -1.461  12.672  23.462  0.00  0.00    +0.000 Cl
ATOM     26  C   UNL     1      -0.771  10.128  23.140  0.00  0.00    +0.000 A 
ATOM     27  C   UNL     1      -0.382   8.998  22.434  0.00  0.00    +0.000 A 
ATOM     28  C   UNL     1       0.069   9.136  21.128  0.00  0.00    +0.000 A 
ATOM     29  C   UNL     1       0.182  10.410  20.544  0.00  0.00    +0.000 A 
ATOM     30 CL   UNL     1       0.820  10.418  18.929  0.00  0.00    +0.000 Cl
ENDBRANCH  18  23
ENDBRANCH   2  17
TORSDOF 4
ENDMDL
MODEL 2
REMARK VINA RESULT:      -7.5      0.213      1.720
REMARK  Name = 
REMARK  6 active torsions:
REMARK  status: ('A' for Active; 'I' for Inactive)
REMARK    1  A    between atoms: C_1  and  C_2
REMARK    2  A    between atoms: C_5  and  N_6
REMARK    3  A    between atoms: C_11  and  N_12
REMARK    4  A    between atoms: C_13  and  C_15
REMARK    5  A    between atoms: C_16  and  C_17
REMARK    6  A    between atoms: C_27  and  C_28
REMARK                            x       y       z     vdW  Elec       q    Type
REMARK                         _______ _______ _______ _____ _____    ______ ____
ROOT
ATOM      1  N   UNL     1      -2.966  12.539  19.388  0.00  0.00    +0.000 N 
ATOM      2  C   UNL     1      -2.462  13.643  20.050  0.00  0.00    +0.000 C 
ATOM      3  O   UNL     1      -3.111  14.461  20.696  0.00  0.00    +0.000 OA
ATOM      4  H   UNL     1      -2.281  11.823  19.233  0.00  0.00    +0.000 HD
ENDROOT
BRANCH   1  10
ATOM      5  C   UNL     1      -7.445  12.674  21.504  0.00  0.00    +0.000 C 
ATOM      6  C   UNL     1      -6.542  12.181  20.412  0.00  0.00    +0.000 A 
ATOM      7  C   UNL     1      -7.047  11.380  19.391  0.00  0.00    +0.000 A 
ATOM      8  C   UNL     1      -6.216  10.960  18.353  0.00  0.00    +0.000 A 
ATOM      9  C   UNL     1      -4.862  11.354  18.295  0.00  0.00    +0.000 A 
ATOM     10  C   UNL     1      -4.328  12.143  19.343  0.00  0.00    +0.000 A 
ATOM     11  C   UNL     1      -5.184  12.537  20.391  0.00  0.00    +0.000 A 
BRANCH   9  12
ATOM     12  N   UNL     1      -4.093  10.834  17.204  0.00  0.00    +0.000 N 
ATOM     13  C   UNL     1      -4.153  11.298  15.896  0.00  0.00    +0.000 A 
ATOM     14  C   UNL     1      -3.317  10.547  15.102  0.00  0.00    +0.000 A 
ATOM     15  C   UNL     1      -2.683   9.612  15.940  0.00  0.00    +0.000 A 
ATOM     16  C   UNL     1      -3.131   9.843  17.224  0.00  0.00    +0.000 A 
ENDBRANCH   9  12
ENDBRANCH   1  10
BRANCH   2  17
ATOM     17  C   UNL     1      -1.008  13.688  20.009  0.00  0.00    +0.000 A 
ATOM     18  C   UNL     1      -0.016  12.757  20.477  0.00  0.00    +0.000 A 
ATOM     19  N   UNL     1       1.207  13.208  20.146  0.00  0.00    +0.000 NA
ATOM     20  O   UNL     1       1.046  14.432  19.556  0.00  0.00    +0.000 OA
ATOM     21  C   UNL     1      -0.271  14.724  19.461  0.00  0.00    +0.000 A 
ATOM     22  C   UNL     1      -0.606  16.017  18.835  0.00  0.00    +0.000 C 
BRANCH  18  23
ATOM     23  C   UNL     1      -0.149  11.457  21.156  0.00  0.00    +0.000 A 
ATOM     24  C   UNL     1       0.301  10.256  20.569  0.00  0.00    +0.000 A 
ATOM     25 CL   UNL     1       1.203  10.196  19.089  0.00  0.00    +0.000 Cl
ATOM     26  C   UNL     1       0.137   9.020  21.217  0.00  0.00    +0.000 A 
ATOM     27  C   UNL     1      -0.403   8.956  22.495  0.00  0.00    +0.000 A 
ATOM     28  C   UNL     1      -0.789  10.129  23.128  0.00  0.00    +0.000 A 
ATOM     29  C   UNL     1      -0.686  11.364  22.465  0.00  0.00    +0.000 A 
ATOM     30 CL   UNL     1      -1.269  12.728  23.368  0.00  0.00    +0.000 Cl
ENDBRANCH  18  23
ENDBRANCH   2  17
TORSDOF 4
ENDMDL
MODEL 3
REMARK VINA RESULT:      -7.5      2.830      5.322
REMARK  Name = 
REMARK  6 active torsions:
REMARK  status: ('A' for Active; 'I' for Inactive)
REMARK    1  A    between atoms: C_1  and  C_2
REMARK    2  A    between atoms: C_5  and  N_6
REMARK    3  A    between atoms: C_11  and  N_12
REMARK    4  A    between atoms: C_13  and  C_15
REMARK    5  A    between atoms: C_16  and  C_17
REMARK    6  A    between atoms: C_27  and  C_28
REMARK                            x       y       z     vdW  Elec       q    Type
REMARK                         _______ _______ _______ _____ _____    ______ ____
ROOT
ATOM      1  N   UNL     1      -2.981  12.924  19.885  0.00  0.00    +0.000 N 
ATOM      2  C   UNL     1      -2.595  13.001  21.211  0.00  0.00    +0.000 C 
ATOM      3  O   UNL     1      -1.937  12.166  21.825  0.00  0.00    +0.000 OA
ATOM      4  H   UNL     1      -3.185  13.819  19.480  0.00  0.00    +0.000 HD
ENDROOT
BRANCH   1  10
ATOM      5  C   UNL     1       0.450   9.897  17.983  0.00  0.00    +0.000 C 
ATOM      6  C   UNL     1      -0.967  10.390  18.018  0.00  0.00    +0.000 A 
ATOM      7  C   UNL     1      -1.934   9.808  17.204  0.00  0.00    +0.000 A 
ATOM      8  C   UNL     1      -3.259  10.239  17.271  0.00  0.00    +0.000 A 
ATOM      9  C   UNL     1      -3.655  11.246  18.176  0.00  0.00    +0.000 A 
ATOM     10  C   UNL     1      -2.676  11.869  18.988  0.00  0.00    +0.000 A 
ATOM     11  C   UNL     1      -1.340  11.429  18.886  0.00  0.00    +0.000 A 
BRANCH   9  12
ATOM     12  N   UNL     1      -5.034  11.635  18.133  0.00  0.00    +0.000 N 
ATOM     13  C   UNL     1      -5.637  12.311  17.081  0.00  0.00    +0.000 A 
ATOM     14  C   UNL     1      -6.955  12.563  17.389  0.00  0.00    +0.000 A 
ATOM     15  C   UNL     1      -7.197  11.994  18.654  0.00  0.00    +0.000 A 
ATOM     16  C   UNL     1      -6.027  11.388  19.061  0.00  0.00    +0.000 A 
ENDBRANCH   9  12
ENDBRANCH   1  10
BRANCH   2  17
ATOM     17  C   UNL     1      -2.958  14.276  21.813  0.00  0.00    +0.000 A 
ATOM     18  C   UNL     1      -4.176  14.717  22.438  0.00  0.00    +0.000 A 
ATOM     19  N   UNL     1      -4.005  15.965  22.911  0.00  0.00    +0.000 NA
ATOM     20  O   UNL     1      -2.752  16.373  22.543  0.00  0.00    +0.000 OA
ATOM     21  C   UNL     1      -2.116  15.371  21.896  0.00  0.00    +0.000 A 
ATOM     22  C   UNL     1      -0.742  15.661  21.442  0.00  0.00    +0.000 C 
BRANCH  18  23
ATOM     23  C   UNL     1      -5.456  14.025  22.667  0.00  0.00    +0.000 A 
ATOM     24  C   UNL     1      -6.579  14.235  21.840  0.00  0.00    +0.000 A 
ATOM     25 CL   UNL     1      -6.531  15.176  20.385  0.00  0.00    +0.000 Cl
ATOM     26  C   UNL     1      -7.802  13.591  22.092  0.00  0.00    +0.000 A 
ATOM     27  C   UNL     1      -7.917  12.664  23.121  0.00  0.00    +0.000 A 
ATOM     28  C   UNL     1      -6.808  12.383  23.907  0.00  0.00    +0.000 A 
ATOM     29  C   UNL     1      -5.597  13.066  23.702  0.00  0.00    +0.000 A 
ATOM     30 CL   UNL     1      -4.325  12.646  24.808  0.00  0.00    +0.000 Cl
ENDBRANCH  18  23
ENDBRANCH   2  17
TORSDOF 4
ENDMDL
MODEL 4
REMARK VINA RESULT:      -7.4      2.835      5.276
REMARK  Name = 
REMARK  6 active torsions:
REMARK  status: ('A' for Active; 'I' for Inactive)
REMARK    1  A    between atoms: C_1  and  C_2
REMARK    2  A    between atoms: C_5  and  N_6
REMARK    3  A    between atoms: C_11  and  N_12
REMARK    4  A    between atoms: C_13  and  C_15
REMARK    5  A    between atoms: C_16  and  C_17
REMARK    6  A    between atoms: C_27  and  C_28
REMARK                            x       y       z     vdW  Elec       q    Type
REMARK                         _______ _______ _______ _____ _____    ______ ____
ROOT
ATOM      1  N   UNL     1      -2.936  12.879  19.871  0.00  0.00    +0.000 N 
ATOM      2  C   UNL     1      -2.623  12.902  21.218  0.00  0.00    +0.000 C 
ATOM      3  O   UNL     1      -2.068  12.007  21.849  0.00  0.00    +0.000 OA
ATOM      4  H   UNL     1      -3.046  13.795  19.475  0.00  0.00    +0.000 HD
ENDROOT
BRANCH   1  10
ATOM      5  C   UNL     1       0.409   9.786  17.924  0.00  0.00    +0.000 C 
ATOM      6  C   UNL     1      -0.997  10.307  17.977  0.00  0.00    +0.000 A 
ATOM      7  C   UNL     1      -1.986   9.745  17.175  0.00  0.00    +0.000 A 
ATOM      8  C   UNL     1      -3.300  10.202  17.259  0.00  0.00    +0.000 A 
ATOM      9  C   UNL     1      -3.665  11.217  18.169  0.00  0.00    +0.000 A 
ATOM     10  C   UNL     1      -2.664  11.819  18.969  0.00  0.00    +0.000 A 
ATOM     11  C   UNL     1      -1.338  11.353  18.850  0.00  0.00    +0.000 A 
BRANCH   9  12
ATOM     12  N   UNL     1      -5.036  11.634  18.144  0.00  0.00    +0.000 N 
ATOM     13  C   UNL     1      -5.637  12.329  17.103  0.00  0.00    +0.000 A 
ATOM     14  C   UNL     1      -6.946  12.605  17.428  0.00  0.00    +0.000 A 
ATOM     15  C   UNL     1      -7.186  12.032  18.690  0.00  0.00    +0.000 A 
ATOM     16  C   UNL     1      -6.025  11.399  19.081  0.00  0.00    +0.000 A 
ENDBRANCH   9  12
ENDBRANCH   1  10
BRANCH   2  17
ATOM     17  C   UNL     1      -2.918  14.191  21.826  0.00  0.00    +0.000 A 
ATOM     18  C   UNL     1      -4.097  14.679  22.490  0.00  0.00    +0.000 A 
ATOM     19  N   UNL     1      -3.865  15.921  22.952  0.00  0.00    +0.000 NA
ATOM     20  O   UNL     1      -2.611  16.282  22.540  0.00  0.00    +0.000 OA
ATOM     21  C   UNL     1      -2.034  15.256  21.876  0.00  0.00    +0.000 A 
ATOM     22  C   UNL     1      -0.667  15.494  21.375  0.00  0.00    +0.000 C 
BRANCH  18  23
ATOM     23  C   UNL     1      -5.393  14.035  22.764  0.00  0.00    +0.000 A 
ATOM     24  C   UNL     1      -5.539  13.035  23.749  0.00  0.00    +0.000 A 
ATOM     25 CL   UNL     1      -4.275  12.584  24.846  0.00  0.00    +0.000 Cl
ATOM     26  C   UNL     1      -6.777  12.408  23.975  0.00  0.00    +0.000 A 
ATOM     27  C   UNL     1      -7.914  12.815  23.288  0.00  0.00    +0.000 A 
ATOM     28  C   UNL     1      -7.816  13.846  22.364  0.00  0.00    +0.000 A 
ATOM     29  C   UNL     1      -6.571  14.438  22.086  0.00  0.00    +0.000 A 
ATOM     30 CL   UNL     1      -6.606  15.670  20.862  0.00  0.00    +0.000 Cl
ENDBRANCH  18  23
ENDBRANCH   2  17
TORSDOF 4
ENDMDL
MODEL 5
REMARK VINA RESULT:      -7.4      8.255     11.705
REMARK  Name = 
REMARK  6 active torsions:
REMARK  status: ('A' for Active; 'I' for Inactive)
REMARK    1  A    between atoms: C_1  and  C_2
REMARK    2  A    between atoms: C_5  and  N_6
REMARK    3  A    between atoms: C_11  and  N_12
REMARK    4  A    between atoms: C_13  and  C_15
REMARK    5  A    between atoms: C_16  and  C_17
REMARK    6  A    between atoms: C_27  and  C_28
REMARK                            x       y       z     vdW  Elec       q    Type
REMARK                         _______ _______ _______ _____ _____    ______ ____
ROOT
ATOM      1  N   UNL     1       7.842  14.681  18.589  0.00  0.00    +0.000 N 
ATOM      2  C   UNL     1       7.332  15.003  19.833  0.00  0.00    +0.000 C 
ATOM      3  O   UNL     1       7.622  14.465  20.897  0.00  0.00    +0.000 OA
ATOM      4  H   UNL     1       7.769  15.431  17.925  0.00  0.00    +0.000 HD
ENDROOT
BRANCH   1  10
ATOM      5  C   UNL     1       8.849   9.850  18.151  0.00  0.00    +0.000 C 
ATOM      6  C   UNL     1       9.312  11.276  18.134  0.00  0.00    +0.000 A 
ATOM      7  C   UNL     1      10.639  11.581  17.841  0.00  0.00    +0.000 A 
ATOM      8  C   UNL     1      11.057  12.910  17.782  0.00  0.00    +0.000 A 
ATOM      9  C   UNL     1      10.150  13.971  17.987  0.00  0.00    +0.000 A 
ATOM     10  C   UNL     1       8.805  13.676  18.316  0.00  0.00    +0.000 A 
ATOM     11  C   UNL     1       8.412  12.324  18.390  0.00  0.00    +0.000 A 
BRANCH   9  12
ATOM     12  N   UNL     1      10.696  15.295  17.939  0.00  0.00    +0.000 N 
ATOM     13  C   UNL     1      11.341  15.928  18.993  0.00  0.00    +0.000 A 
ATOM     14  C   UNL     1      11.699  17.203  18.617  0.00  0.00    +0.000 A 
ATOM     15  C   UNL     1      11.304  17.361  17.275  0.00  0.00    +0.000 A 
ATOM     16  C   UNL     1      10.746  16.168  16.869  0.00  0.00    +0.000 A 
ENDBRANCH   9  12
ENDBRANCH   1  10
BRANCH   2  17
ATOM     17  C   UNL     1       6.463  16.170  19.783  0.00  0.00    +0.000 A 
ATOM     18  C   UNL     1       5.031  16.284  19.720  0.00  0.00    +0.000 A 
ATOM     19  N   UNL     1       4.686  17.583  19.766  0.00  0.00    +0.000 NA
ATOM     20  O   UNL     1       5.844  18.313  19.773  0.00  0.00    +0.000 OA
ATOM     21  C   UNL     1       6.909  17.480  19.792  0.00  0.00    +0.000 A 
ATOM     22  C   UNL     1       8.236  18.124  19.810  0.00  0.00    +0.000 C 
BRANCH  18  23
ATOM     23  C   UNL     1       3.975  15.256  19.680  0.00  0.00    +0.000 A 
ATOM     24  C   UNL     1       3.611  14.511  20.821  0.00  0.00    +0.000 A 
ATOM     25 CL   UNL     1       4.227  14.835  22.409  0.00  0.00    +0.000 Cl
ATOM     26  C   UNL     1       2.624  13.512  20.756  0.00  0.00    +0.000 A 
ATOM     27  C   UNL     1       1.921  13.286  19.580  0.00  0.00    +0.000 A 
ATOM     28  C   UNL     1       2.207  14.053  18.459  0.00  0.00    +0.000 A 
ATOM     29  C   UNL     1       3.234  15.012  18.496  0.00  0.00    +0.000 A 
ATOM     30 CL   UNL     1       3.510  15.843  16.996  0.00  0.00    +0.000 Cl
ENDBRANCH  18  23
ENDBRANCH   2  17
TORSDOF 4
ENDMDL
MODEL 6
REMARK VINA RESULT:      -7.2      2.299      4.466
REMARK  Name = 
REMARK  6 active torsions:
REMARK  status: ('A' for Active; 'I' for Inactive)
REMARK    1  A    between atoms: C_1  and  C_2
REMARK    2  A    between atoms: C_5  and  N_6
REMARK    3  A    between atoms: C_11  and  N_12
REMARK    4  A    between atoms: C_13  and  C_15
REMARK    5  A    between atoms: C_16  and  C_17
REMARK    6  A    between atoms: C_27  and  C_28
REMARK                            x       y       z     vdW  Elec       q    Type
REMARK                         _______ _______ _______ _____ _____    ______ ____
ROOT
ATOM      1  N   UNL     1      -2.047  12.422  19.197  0.00  0.00    +0.000 N 
ATOM      2  C   UNL     1      -1.033  11.727  19.827  0.00  0.00    +0.000 C 
ATOM      3  O   UNL     1      -0.771  10.536  19.684  0.00  0.00    +0.000 OA
ATOM      4  H   UNL     1      -1.885  13.412  19.159  0.00  0.00    +0.000 HD
ENDROOT
BRANCH   1  10
ATOM      5  C   UNL     1      -2.762  10.170  14.842  0.00  0.00    +0.000 C 
ATOM      6  C   UNL     1      -3.324  10.802  16.081  0.00  0.00    +0.000 A 
ATOM      7  C   UNL     1      -4.700  10.836  16.291  0.00  0.00    +0.000 A 
ATOM      8  C   UNL     1      -5.217  11.385  17.464  0.00  0.00    +0.000 A 
ATOM      9  C   UNL     1      -4.367  11.888  18.472  0.00  0.00    +0.000 A 
ATOM     10  C   UNL     1      -2.967  11.888  18.259  0.00  0.00    +0.000 A 
ATOM     11  C   UNL     1      -2.471  11.347  17.055  0.00  0.00    +0.000 A 
BRANCH   9  12
ATOM     12  N   UNL     1      -5.008  12.461  19.619  0.00  0.00    +0.000 N 
ATOM     13  C   UNL     1      -5.918  11.800  20.434  0.00  0.00    +0.000 A 
ATOM     14  C   UNL     1      -6.367  12.657  21.413  0.00  0.00    +0.000 A 
ATOM     15  C   UNL     1      -5.691  13.878  21.232  0.00  0.00    +0.000 A 
ATOM     16  C   UNL     1      -4.830  13.716  20.168  0.00  0.00    +0.000 A 
ENDBRANCH   9  12
ENDBRANCH   1  10
BRANCH   2  17
ATOM     17  C   UNL     1      -0.187  12.600  20.629  0.00  0.00    +0.000 A 
ATOM     18  C   UNL     1      -0.442  13.299  21.859  0.00  0.00    +0.000 A 
ATOM     19  N   UNL     1       0.681  13.926  22.254  0.00  0.00    +0.000 NA
ATOM     20  O   UNL     1       1.624  13.725  21.284  0.00  0.00    +0.000 OA
ATOM     21  C   UNL     1       1.121  12.928  20.315  0.00  0.00    +0.000 A 
ATOM     22  C   UNL     1       2.030  12.612  19.197  0.00  0.00    +0.000 C 
BRANCH  18  23
ATOM     23  C   UNL     1      -1.645  13.366  22.707  0.00  0.00    +0.000 A 
ATOM     24  C   UNL     1      -2.202  12.218  23.309  0.00  0.00    +0.000 A 
ATOM     25 CL   UNL     1      -1.450  10.657  23.265  0.00  0.00    +0.000 Cl
ATOM     26  C   UNL     1      -3.369  12.296  24.088  0.00  0.00    +0.000 A 
ATOM     27  C   UNL     1      -3.963  13.523  24.355  0.00  0.00    +0.000 A 
ATOM     28  C   UNL     1      -3.396  14.678  23.836  0.00  0.00    +0.000 A 
ATOM     29  C   UNL     1      -2.264  14.606  23.005  0.00  0.00    +0.000 A 
ATOM     30 CL   UNL     1      -1.715  16.133  22.386  0.00  0.00    +0.000 Cl
ENDBRANCH  18  23
ENDBRANCH   2  17
TORSDOF 4
ENDMDL
MODEL 7
REMARK VINA RESULT:      -7.1      2.726      4.657
REMARK  Name = 
REMARK  6 active torsions:
REMARK  status: ('A' for Active; 'I' for Inactive)
REMARK    1  A    between atoms: C_1  and  C_2
REMARK    2  A    between atoms: C_5  and  N_6
REMARK    3  A    between atoms: C_11  and  N_12
REMARK    4  A    between atoms: C_13  and  C_15
REMARK    5  A    between atoms: C_16  and  C_17
REMARK    6  A    between atoms: C_27  and  C_28
REMARK                            x       y       z     vdW  Elec       q    Type
REMARK                         _______ _______ _______ _____ _____    ______ ____
ROOT
ATOM      1  N   UNL     1      -3.853  13.456  21.552  0.00  0.00    +0.000 N 
ATOM      2  C   UNL     1      -3.168  12.919  22.626  0.00  0.00    +0.000 C 
ATOM      3  O   UNL     1      -3.577  12.044  23.383  0.00  0.00    +0.000 OA
ATOM      4  H   UNL     1      -3.249  13.873  20.867  0.00  0.00    +0.000 HD
ENDROOT
BRANCH   1  10
ATOM      5  C   UNL     1      -6.662  10.356  18.897  0.00  0.00    +0.000 C 
ATOM      6  C   UNL     1      -6.542  11.567  19.774  0.00  0.00    +0.000 A 
ATOM      7  C   UNL     1      -7.680  12.276  20.153  0.00  0.00    +0.000 A 
ATOM      8  C   UNL     1      -7.570  13.375  21.004  0.00  0.00    +0.000 A 
ATOM      9  C   UNL     1      -6.320  13.777  21.522  0.00  0.00    +0.000 A 
ATOM     10  C   UNL     1      -5.152  13.085  21.121  0.00  0.00    +0.000 A 
ATOM     11  C   UNL     1      -5.288  11.990  20.242  0.00  0.00    +0.000 A 
BRANCH   9  12
ATOM     12  N   UNL     1      -6.321  14.941  22.358  0.00  0.00    +0.000 N 
ATOM     13  C   UNL     1      -6.639  16.224  21.934  0.00  0.00    +0.000 A 
ATOM     14  C   UNL     1      -6.496  17.105  22.981  0.00  0.00    +0.000 A 
ATOM     15  C   UNL     1      -6.115  16.349  24.105  0.00  0.00    +0.000 A 
ATOM     16  C   UNL     1      -6.069  15.028  23.714  0.00  0.00    +0.000 A 
ENDBRANCH   9  12
ENDBRANCH   1  10
BRANCH   2  17
ATOM     17  C   UNL     1      -1.806  13.427  22.716  0.00  0.00    +0.000 A 
ATOM     18  C   UNL     1      -0.594  13.009  22.066  0.00  0.00    +0.000 A 
ATOM     19  N   UNL     1       0.406  13.837  22.416  0.00  0.00    +0.000 NA
ATOM     20  O   UNL     1      -0.098  14.722  23.330  0.00  0.00    +0.000 OA
ATOM     21  C   UNL     1      -1.418  14.493  23.509  0.00  0.00    +0.000 A 
ATOM     22  C   UNL     1      -2.107  15.379  24.466  0.00  0.00    +0.000 C 
BRANCH  18  23
ATOM     23  C   UNL     1      -0.333  11.926  21.102  0.00  0.00    +0.000 A 
ATOM     24  C   UNL     1      -0.189  10.582  21.505  0.00  0.00    +0.000 A 
ATOM     25 CL   UNL     1      -0.471  10.036  23.126  0.00  0.00    +0.000 Cl
ATOM     26  C   UNL     1       0.093   9.567  20.574  0.00  0.00    +0.000 A 
ATOM     27  C   UNL     1       0.157   9.848  19.216  0.00  0.00    +0.000 A 
ATOM     28  C   UNL     1      -0.052  11.150  18.782  0.00  0.00    +0.000 A 
ATOM     29  C   UNL     1      -0.274  12.184  19.708  0.00  0.00    +0.000 A 
ATOM     30 CL   UNL     1      -0.454  13.764  19.010  0.00  0.00    +0.000 Cl
ENDBRANCH  18  23
ENDBRANCH   2  17
TORSDOF 4
ENDMDL
MODEL 8
REMARK VINA RESULT:      -7.1      2.900      5.853
REMARK  Name = 
REMARK  6 active torsions:
REMARK  status: ('A' for Active; 'I' for Inactive)
REMARK    1  A    between atoms: C_1  and  C_2
REMARK    2  A    between atoms: C_5  and  N_6
REMARK    3  A    between atoms: C_11  and  N_12
REMARK    4  A    between atoms: C_13  and  C_15
REMARK    5  A    between atoms: C_16  and  C_17
REMARK    6  A    between atoms: C_27  and  C_28
REMARK                            x       y       z     vdW  Elec       q    Type
REMARK                         _______ _______ _______ _____ _____    ______ ____
ROOT
ATOM      1  N   UNL     1      -3.954  12.894  19.093  0.00  0.00    +0.000 N 
ATOM      2  C   UNL     1      -5.235  12.670  19.561  0.00  0.00    +0.000 C 
ATOM      3  O   UNL     1      -5.812  11.587  19.606  0.00  0.00    +0.000 OA
ATOM      4  H   UNL     1      -3.540  13.734  19.456  0.00  0.00    +0.000 HD
ENDROOT
BRANCH   1  10
ATOM      5  C   UNL     1      -2.919   9.623  15.519  0.00  0.00    +0.000 C 
ATOM      6  C   UNL     1      -2.570  10.261  16.831  0.00  0.00    +0.000 A 
ATOM      7  C   UNL     1      -1.405   9.900  17.501  0.00  0.00    +0.000 A 
ATOM      8  C   UNL     1      -1.061  10.527  18.698  0.00  0.00    +0.000 A 
ATOM      9  C   UNL     1      -1.862  11.554  19.242  0.00  0.00    +0.000 A 
ATOM     10  C   UNL     1      -3.066  11.910  18.587  0.00  0.00    +0.000 A 
ATOM     11  C   UNL     1      -3.401  11.246  17.389  0.00  0.00    +0.000 A 
BRANCH   9  12
ATOM     12  N   UNL     1      -1.432  12.102  20.494  0.00  0.00    +0.000 N 
ATOM     13  C   UNL     1      -0.789  13.323  20.648  0.00  0.00    +0.000 A 
ATOM     14  C   UNL     1      -0.482  13.518  21.976  0.00  0.00    +0.000 A 
ATOM     15  C   UNL     1      -0.981  12.407  22.681  0.00  0.00    +0.000 A 
ATOM     16  C   UNL     1      -1.604  11.586  21.764  0.00  0.00    +0.000 A 
ENDBRANCH   9  12
ENDBRANCH   1  10
BRANCH   2  17
ATOM     17  C   UNL     1      -5.827  13.871  20.133  0.00  0.00    +0.000 A 
ATOM     18  C   UNL     1      -5.863  14.359  21.485  0.00  0.00    +0.000 A 
ATOM     19  N   UNL     1      -6.468  15.560  21.507  0.00  0.00    +0.000 NA
ATOM     20  O   UNL     1      -6.894  15.827  20.235  0.00  0.00    +0.000 OA
ATOM     21  C   UNL     1      -6.509  14.831  19.405  0.00  0.00    +0.000 A 
ATOM     22  C   UNL     1      -6.891  14.982  17.988  0.00  0.00    +0.000 C 
BRANCH  18  23
ATOM     23  C   UNL     1      -5.320  13.799  22.734  0.00  0.00    +0.000 A 
ATOM     24  C   UNL     1      -4.122  14.272  23.309  0.00  0.00    +0.000 A 
ATOM     25 CL   UNL     1      -3.262  15.657  22.718  0.00  0.00    +0.000 Cl
ATOM     26  C   UNL     1      -3.601  13.704  24.484  0.00  0.00    +0.000 A 
ATOM     27  C   UNL     1      -4.297  12.710  25.160  0.00  0.00    +0.000 A 
ATOM     28  C   UNL     1      -5.515  12.274  24.658  0.00  0.00    +0.000 A 
ATOM     29  C   UNL     1      -6.016  12.792  23.451  0.00  0.00    +0.000 A 
ATOM     30 CL   UNL     1      -7.519  12.098  22.926  0.00  0.00    +0.000 Cl
ENDBRANCH  18  23
ENDBRANCH   2  17
TORSDOF 4
ENDMDL
MODEL 9
REMARK VINA RESULT:      -7.1      0.972      1.077
REMARK  Name = 
REMARK  6 active torsions:
REMARK  status: ('A' for Active; 'I' for Inactive)
REMARK    1  A    between atoms: C_1  and  C_2
REMARK    2  A    between atoms: C_5  and  N_6
REMARK    3  A    between atoms: C_11  and  N_12
REMARK    4  A    between atoms: C_13  and  C_15
REMARK    5  A    between atoms: C_16  and  C_17
REMARK    6  A    between atoms: C_27  and  C_28
REMARK                            x       y       z     vdW  Elec       q    Type
REMARK                         _______ _______ _______ _____ _____    ______ ____
ROOT
ATOM      1  N   UNL     1      -3.128  12.827  19.620  0.00  0.00    +0.000 N 
ATOM      2  C   UNL     1      -2.468  12.790  20.834  0.00  0.00    +0.000 C 
ATOM      3  O   UNL     1      -2.921  12.369  21.895  0.00  0.00    +0.000 OA
ATOM      4  H   UNL     1      -2.506  12.860  18.833  0.00  0.00    +0.000 HD
ENDROOT
BRANCH   1  10
ATOM      5  C   UNL     1      -7.911  12.962  20.904  0.00  0.00    +0.000 C 
ATOM      6  C   UNL     1      -6.818  12.414  20.034  0.00  0.00    +0.000 A 
ATOM      7  C   UNL     1      -7.115  11.510  19.018  0.00  0.00    +0.000 A 
ATOM      8  C   UNL     1      -6.103  11.037  18.184  0.00  0.00    +0.000 A 
ATOM      9  C   UNL     1      -4.771  11.478  18.326  0.00  0.00    +0.000 A 
ATOM     10  C   UNL     1      -4.449  12.374  19.375  0.00  0.00    +0.000 A 
ATOM     11  C   UNL     1      -5.487  12.822  20.218  0.00  0.00    +0.000 A 
BRANCH   9  12
ATOM     12  N   UNL     1      -3.808  10.899  17.437  0.00  0.00    +0.000 N 
ATOM     13  C   UNL     1      -3.789  11.076  16.061  0.00  0.00    +0.000 A 
ATOM     14  C   UNL     1      -2.759  10.344  15.515  0.00  0.00    +0.000 A 
ATOM     15  C   UNL     1      -2.086   9.722  16.583  0.00  0.00    +0.000 A 
ATOM     16  C   UNL     1      -2.710  10.118  17.747  0.00  0.00    +0.000 A 
ENDBRANCH   9  12
ENDBRANCH   1  10
BRANCH   2  17
ATOM     17  C   UNL     1      -1.078  13.208  20.715  0.00  0.00    +0.000 A 
ATOM     18  C   UNL     1       0.144  12.450  20.720  0.00  0.00    +0.000 A 
ATOM     19  N   UNL     1       1.181  13.278  20.505  0.00  0.00    +0.000 NA
ATOM     20  O   UNL     1       0.682  14.551  20.444  0.00  0.00    +0.000 OA
ATOM     21  C   UNL     1      -0.665  14.520  20.558  0.00  0.00    +0.000 A 
ATOM     22  C   UNL     1      -1.351  15.824  20.501  0.00  0.00    +0.000 C 
BRANCH  18  23
ATOM     23  C   UNL     1       0.389  11.003  20.855  0.00  0.00    +0.000 A 
ATOM     24  C   UNL     1       0.047  10.291  22.023  0.00  0.00    +0.000 A 
ATOM     25 CL   UNL     1      -0.842  10.987  23.340  0.00  0.00    +0.000 Cl
ATOM     26  C   UNL     1       0.318   8.918  22.147  0.00  0.00    +0.000 A 
ATOM     27  C   UNL     1       0.858   8.203  21.085  0.00  0.00    +0.000 A 
ATOM     28  C   UNL     1       1.138   8.863  19.896  0.00  0.00    +0.000 A 
ATOM     29  C   UNL     1       0.928  10.248  19.783  0.00  0.00    +0.000 A 
ATOM     30 CL   UNL     1       1.387  10.933  18.254  0.00  0.00    +0.000 Cl
ENDBRANCH  18  23
ENDBRANCH   2  17
TORSDOF 4
ENDMDL
