MODEL 1
REMARK VINA RESULT:      -7.8      0.000      0.000
REMARK  Name = 
REMARK  10 active torsions:
REMARK  status: ('A' for Active; 'I' for Inactive)
REMARK    1  A    between atoms: C_1  and  N_2
REMARK    2  A    between atoms: C_8  and  C_9
REMARK    3  A    between atoms: C_11  and  N_12
REMARK    4  A    between atoms: N_15  and  C_16
REMARK    5  A    between atoms: C_16  and  C_17
REMARK    6  A    between atoms: C_17  and  C_18
REMARK    7  A    between atoms: C_18  and  C_19
REMARK    8  A    between atoms: C_18  and  C_20
REMARK    9  A    between atoms: C_18  and  C_21
REMARK   10  A    between atoms: C_25  and  C_26
REMARK                            x       y       z     vdW  Elec       q    Type
REMARK                         _______ _______ _______ _____ _____    ______ ____
ROOT
ATOM      1  C   UNL     1      -0.074  12.089  20.124  0.00  0.00    +0.000 A 
ATOM      2  C   UNL     1       0.157  10.839  19.502  0.00  0.00    +0.000 A 
ATOM      3  C   UNL     1       1.220  10.580  18.625  0.00  0.00    +0.000 A 
ATOM      4  C   UNL     1       2.106  11.623  18.370  0.00  0.00    +0.000 A 
ATOM      5  F   UNL     1       3.154  11.423  17.555  0.00  0.00    +0.000 F 
ATOM      6  C   UNL     1       1.897  12.886  18.919  0.00  0.00    +0.000 A 
ATOM      7  C   UNL     1       0.816  13.143  19.790  0.00  0.00    +0.000 A 
ATOM      8  C   UNL     1       0.671  14.546  20.314  0.00  0.00    +0.000 C 
ENDROOT
BRANCH   1  16
ATOM      9  C   UNL     1      -7.726  13.243  24.097  0.00  0.00    +0.000 C 
ATOM     10  N   UNL     1      -6.361  13.139  24.551  0.00  0.00    +0.000 N 
ATOM     11  C   UNL     1      -5.405  13.093  23.551  0.00  0.00    +0.000 A 
ATOM     12  N   UNL     1      -5.621  13.687  22.371  0.00  0.00    +0.000 NA
ATOM     13  C   UNL     1      -4.637  13.599  21.465  0.00  0.00    +0.000 A 
ATOM     14  C   UNL     1      -3.452  12.941  21.704  0.00  0.00    +0.000 A 
ATOM     15  C   UNL     1      -2.404  12.828  20.765  0.00  0.00    +0.000 A 
ATOM     16  C   UNL     1      -1.201  12.182  21.095  0.00  0.00    +0.000 A 
ATOM     17  C   UNL     1      -1.170  11.690  22.394  0.00  0.00    +0.000 A 
ATOM     18  N   UNL     1      -2.189  11.749  23.293  0.00  0.00    +0.000 NA
ATOM     19  C   UNL     1      -3.320  12.367  22.959  0.00  0.00    +0.000 A 
ATOM     20  N   UNL     1      -4.292  12.428  23.861  0.00  0.00    +0.000 NA
ATOM     21  H   UNL     1      -6.155  12.375  25.185  0.00  0.00    +0.000 HD
ENDBRANCH   1  16
BRANCH   3  22
ATOM     22  N   UNL     1       1.435   9.312  18.023  0.00  0.00    +0.000 N 
ATOM     23  C   UNL     1       1.938   8.222  18.695  0.00  0.00    +0.000 C 
ATOM     24  O   UNL     1       2.175   8.186  19.901  0.00  0.00    +0.000 OA
ATOM     25  N   UNL     1       2.191   7.130  17.887  0.00  0.00    +0.000 N 
ATOM     26  H   UNL     1       1.007   9.163  17.122  0.00  0.00    +0.000 HD
ATOM     27  H   UNL     1       1.656   7.043  17.038  0.00  0.00    +0.000 HD
BRANCH  25  28
ATOM     28  C   UNL     1       2.589   5.912  18.573  0.00  0.00    +0.000 C 
BRANCH  28  29
ATOM     29  C   UNL     1       1.876   4.642  18.109  0.00  0.00    +0.000 C 
BRANCH  29  30
ATOM     30  C   UNL     1       1.704   3.581  19.242  0.00  0.00    +0.000 C 
ATOM     31  C   UNL     1       3.067   3.036  19.704  0.00  0.00    +0.000 C 
ATOM     32  C   UNL     1       1.011   4.238  20.451  0.00  0.00    +0.000 C 
ATOM     33  C   UNL     1       0.826   2.401  18.779  0.00  0.00    +0.000 C 
ENDBRANCH  29  30
ENDBRANCH  28  29
ENDBRANCH  25  28
ENDBRANCH   3  22
TORSDOF 5
ENDMDL
MODEL 2
REMARK VINA RESULT:      -7.7      3.817      9.745
REMARK  Name = 
REMARK  10 active torsions:
REMARK  status: ('A' for Active; 'I' for Inactive)
REMARK    1  A    between atoms: C_1  and  N_2
REMARK    2  A    between atoms: C_8  and  C_9
REMARK    3  A    between atoms: C_11  and  N_12
REMARK    4  A    between atoms: N_15  and  C_16
REMARK    5  A    between atoms: C_16  and  C_17
REMARK    6  A    between atoms: C_17  and  C_18
REMARK    7  A    between atoms: C_18  and  C_19
REMARK    8  A    between atoms: C_18  and  C_20
REMARK    9  A    between atoms: C_18  and  C_21
REMARK   10  A    between atoms: C_25  and  C_26
REMARK                            x       y       z     vdW  Elec       q    Type
REMARK                         _______ _______ _______ _____ _____    ______ ____
ROOT
ATOM      1  C   UNL     1       0.974   9.175  19.914  0.00  0.00    +0.000 A 
ATOM      2  C   UNL     1       0.155   9.809  18.948  0.00  0.00    +0.000 A 
ATOM      3  C   UNL     1      -0.681  10.901  19.219  0.00  0.00    +0.000 A 
ATOM      4  C   UNL     1      -0.686  11.394  20.521  0.00  0.00    +0.000 A 
ATOM      5  F   UNL     1      -1.451  12.453  20.829  0.00  0.00    +0.000 F 
ATOM      6  C   UNL     1       0.065  10.778  21.519  0.00  0.00    +0.000 A 
ATOM      7  C   UNL     1       0.894   9.670  21.242  0.00  0.00    +0.000 A 
ATOM      8  C   UNL     1       1.649   9.068  22.396  0.00  0.00    +0.000 C 
ENDROOT
BRANCH   1  16
ATOM      9  C   UNL     1       6.933   4.248  15.928  0.00  0.00    +0.000 C 
ATOM     10  N   UNL     1       5.764   3.968  16.725  0.00  0.00    +0.000 N 
ATOM     11  C   UNL     1       4.997   5.071  17.061  0.00  0.00    +0.000 A 
ATOM     12  N   UNL     1       4.961   6.147  16.267  0.00  0.00    +0.000 NA
ATOM     13  C   UNL     1       4.185   7.164  16.667  0.00  0.00    +0.000 A 
ATOM     14  C   UNL     1       3.449   7.135  17.830  0.00  0.00    +0.000 A 
ATOM     15  C   UNL     1       2.630   8.195  18.277  0.00  0.00    +0.000 A 
ATOM     16  C   UNL     1       1.869   8.077  19.451  0.00  0.00    +0.000 A 
ATOM     17  C   UNL     1       2.012   6.851  20.089  0.00  0.00    +0.000 A 
ATOM     18  N   UNL     1       2.833   5.840  19.696  0.00  0.00    +0.000 NA
ATOM     19  C   UNL     1       3.545   5.973  18.580  0.00  0.00    +0.000 A 
ATOM     20  N   UNL     1       4.324   4.964  18.207  0.00  0.00    +0.000 NA
ATOM     21  H   UNL     1       5.917   3.448  17.582  0.00  0.00    +0.000 HD
ENDBRANCH   1  16
BRANCH   3  22
ATOM     22  N   UNL     1      -1.484  11.524  18.227  0.00  0.00    +0.000 N 
ATOM     23  C   UNL     1      -2.752  11.106  17.896  0.00  0.00    +0.000 C 
ATOM     24  O   UNL     1      -3.371  10.213  18.471  0.00  0.00    +0.000 OA
ATOM     25  N   UNL     1      -3.299  11.769  16.814  0.00  0.00    +0.000 N 
ATOM     26  H   UNL     1      -1.179  12.431  17.905  0.00  0.00    +0.000 HD
ATOM     27  H   UNL     1      -2.969  12.701  16.622  0.00  0.00    +0.000 HD
BRANCH  25  28
ATOM     28  C   UNL     1      -4.688  11.461  16.517  0.00  0.00    +0.000 C 
BRANCH  28  29
ATOM     29  C   UNL     1      -5.688  12.563  16.864  0.00  0.00    +0.000 C 
BRANCH  29  30
ATOM     30  C   UNL     1      -6.431  12.322  18.216  0.00  0.00    +0.000 C 
ATOM     31  C   UNL     1      -5.573  12.779  19.410  0.00  0.00    +0.000 C 
ATOM     32  C   UNL     1      -7.742  13.129  18.226  0.00  0.00    +0.000 C 
ATOM     33  C   UNL     1      -6.791  10.834  18.401  0.00  0.00    +0.000 C 
ENDBRANCH  29  30
ENDBRANCH  28  29
ENDBRANCH  25  28
ENDBRANCH   3  22
TORSDOF 5
ENDMDL
MODEL 3
REMARK VINA RESULT:      -7.7      4.451      7.168
REMARK  Name = 
REMARK  10 active torsions:
REMARK  status: ('A' for Active; 'I' for Inactive)
REMARK    1  A    between atoms: C_1  and  N_2
REMARK    2  A    between atoms: C_8  and  C_9
REMARK    3  A    between atoms: C_11  and  N_12
REMARK    4  A    between atoms: N_15  and  C_16
REMARK    5  A    between atoms: C_16  and  C_17
REMARK    6  A    between atoms: C_17  and  C_18
REMARK    7  A    between atoms: C_18  and  C_19
REMARK    8  A    between atoms: C_18  and  C_20
REMARK    9  A    between atoms: C_18  and  C_21
REMARK   10  A    between atoms: C_25  and  C_26
REMARK                            x       y       z     vdW  Elec       q    Type
REMARK                         _______ _______ _______ _____ _____    ______ ____
ROOT
ATOM      1  C   UNL     1       2.736   6.131  19.504  0.00  0.00    +0.000 A 
ATOM      2  C   UNL     1       3.926   6.137  18.737  0.00  0.00    +0.000 A 
ATOM      3  C   UNL     1       4.621   4.982  18.351  0.00  0.00    +0.000 A 
ATOM      4  C   UNL     1       4.087   3.756  18.740  0.00  0.00    +0.000 A 
ATOM      5  F   UNL     1       4.699   2.618  18.378  0.00  0.00    +0.000 F 
ATOM      6  C   UNL     1       2.944   3.696  19.535  0.00  0.00    +0.000 A 
ATOM      7  C   UNL     1       2.259   4.865  19.932  0.00  0.00    +0.000 A 
ATOM      8  C   UNL     1       1.046   4.689  20.806  0.00  0.00    +0.000 C 
ENDROOT
BRANCH   1  16
ATOM      9  C   UNL     1      -1.003  13.151  23.027  0.00  0.00    +0.000 C 
ATOM     10  N   UNL     1      -0.969  12.587  21.700  0.00  0.00    +0.000 N 
ATOM     11  C   UNL     1      -0.352  11.352  21.596  0.00  0.00    +0.000 A 
ATOM     12  N   UNL     1      -0.346  10.502  22.630  0.00  0.00    +0.000 NA
ATOM     13  C   UNL     1       0.266   9.325  22.436  0.00  0.00    +0.000 A 
ATOM     14  C   UNL     1       0.866   8.977  21.247  0.00  0.00    +0.000 A 
ATOM     15  C   UNL     1       1.524   7.748  21.021  0.00  0.00    +0.000 A 
ATOM     16  C   UNL     1       2.072   7.440  19.765  0.00  0.00    +0.000 A 
ATOM     17  C   UNL     1       1.900   8.443  18.820  0.00  0.00    +0.000 A 
ATOM     18  N   UNL     1       1.312   9.650  19.037  0.00  0.00    +0.000 NA
ATOM     19  C   UNL     1       0.798   9.921  20.234  0.00  0.00    +0.000 A 
ATOM     20  N   UNL     1       0.212  11.098  20.415  0.00  0.00    +0.000 NA
ATOM     21  H   UNL     1      -0.572  13.172  20.972  0.00  0.00    +0.000 HD
ENDBRANCH   1  16
BRANCH   3  22
ATOM     22  N   UNL     1       5.806   5.017  17.571  0.00  0.00    +0.000 N 
ATOM     23  C   UNL     1       5.842   4.760  16.221  0.00  0.00    +0.000 C 
ATOM     24  O   UNL     1       4.853   4.560  15.516  0.00  0.00    +0.000 OA
ATOM     25  N   UNL     1       7.116   4.717  15.688  0.00  0.00    +0.000 N 
ATOM     26  H   UNL     1       6.613   5.448  17.998  0.00  0.00    +0.000 HD
ATOM     27  H   UNL     1       7.836   5.242  16.158  0.00  0.00    +0.000 HD
BRANCH  25  28
ATOM     28  C   UNL     1       7.196   4.589  14.243  0.00  0.00    +0.000 C 
BRANCH  28  29
ATOM     29  C   UNL     1       6.395   3.431  13.647  0.00  0.00    +0.000 C 
BRANCH  29  30
ATOM     30  C   UNL     1       6.369   3.437  12.085  0.00  0.00    +0.000 C 
ATOM     31  C   UNL     1       7.019   2.163  11.515  0.00  0.00    +0.000 C 
ATOM     32  C   UNL     1       4.907   3.491  11.603  0.00  0.00    +0.000 C 
ATOM     33  C   UNL     1       7.099   4.669  11.515  0.00  0.00    +0.000 C 
ENDBRANCH  29  30
ENDBRANCH  28  29
ENDBRANCH  25  28
ENDBRANCH   3  22
TORSDOF 5
ENDMDL
MODEL 4
REMARK VINA RESULT:      -7.6      1.193      1.824
REMARK  Name = 
REMARK  10 active torsions:
REMARK  status: ('A' for Active; 'I' for Inactive)
REMARK    1  A    between atoms: C_1  and  N_2
REMARK    2  A    between atoms: C_8  and  C_9
REMARK    3  A    between atoms: C_11  and  N_12
REMARK    4  A    between atoms: N_15  and  C_16
REMARK    5  A    between atoms: C_16  and  C_17
REMARK    6  A    between atoms: C_17  and  C_18
REMARK    7  A    between atoms: C_18  and  C_19
REMARK    8  A    between atoms: C_18  and  C_20
REMARK    9  A    between atoms: C_18  and  C_21
REMARK   10  A    between atoms: C_25  and  C_26
REMARK                            x       y       z     vdW  Elec       q    Type
REMARK                         _______ _______ _______ _____ _____    ______ ____
ROOT
ATOM      1  C   UNL     1      -0.838  12.264  19.315  0.00  0.00    +0.000 A 
ATOM      2  C   UNL     1      -0.327  10.966  19.075  0.00  0.00    +0.000 A 
ATOM      3  C   UNL     1       0.968  10.703  18.605  0.00  0.00    +0.000 A 
ATOM      4  C   UNL     1       1.799  11.796  18.380  0.00  0.00    +0.000 A 
ATOM      5  F   UNL     1       3.056  11.600  17.952  0.00  0.00    +0.000 F 
ATOM      6  C   UNL     1       1.330  13.097  18.555  0.00  0.00    +0.000 A 
ATOM      7  C   UNL     1       0.021  13.354  19.014  0.00  0.00    +0.000 A 
ATOM      8  C   UNL     1      -0.391  14.795  19.153  0.00  0.00    +0.000 C 
ENDROOT
BRANCH   1  16
ATOM      9  C   UNL     1      -7.793  13.587  24.369  0.00  0.00    +0.000 C 
ATOM     10  N   UNL     1      -7.554  12.836  23.161  0.00  0.00    +0.000 N 
ATOM     11  C   UNL     1      -6.234  12.781  22.748  0.00  0.00    +0.000 A 
ATOM     12  N   UNL     1      -5.236  12.859  23.637  0.00  0.00    +0.000 NA
ATOM     13  C   UNL     1      -3.989  12.788  23.148  0.00  0.00    +0.000 A 
ATOM     14  C   UNL     1      -3.715  12.642  21.807  0.00  0.00    +0.000 A 
ATOM     15  C   UNL     1      -2.413  12.573  21.266  0.00  0.00    +0.000 A 
ATOM     16  C   UNL     1      -2.208  12.375  19.891  0.00  0.00    +0.000 A 
ATOM     17  C   UNL     1      -3.386  12.263  19.162  0.00  0.00    +0.000 A 
ATOM     18  N   UNL     1      -4.646  12.376  19.661  0.00  0.00    +0.000 NA
ATOM     19  C   UNL     1      -4.816  12.562  20.968  0.00  0.00    +0.000 A 
ATOM     20  N   UNL     1      -6.057  12.650  21.433  0.00  0.00    +0.000 NA
ATOM     21  H   UNL     1      -8.102  13.102  22.349  0.00  0.00    +0.000 HD
ENDBRANCH   1  16
BRANCH   3  22
ATOM     22  N   UNL     1       1.458   9.389  18.384  0.00  0.00    +0.000 N 
ATOM     23  C   UNL     1       1.696   8.482  19.390  0.00  0.00    +0.000 C 
ATOM     24  O   UNL     1       1.434   8.663  20.578  0.00  0.00    +0.000 OA
ATOM     25  N   UNL     1       2.297   7.313  18.964  0.00  0.00    +0.000 N 
ATOM     26  H   UNL     1       1.431   9.053  17.433  0.00  0.00    +0.000 HD
ATOM     27  H   UNL     1       2.148   7.034  18.007  0.00  0.00    +0.000 HD
BRANCH  25  28
ATOM     28  C   UNL     1       2.439   6.271  19.966  0.00  0.00    +0.000 C 
BRANCH  28  29
ATOM     29  C   UNL     1       3.124   4.992  19.483  0.00  0.00    +0.000 C 
BRANCH  29  30
ATOM     30  C   UNL     1       2.122   3.839  19.157  0.00  0.00    +0.000 C 
ATOM     31  C   UNL     1       1.490   4.029  17.767  0.00  0.00    +0.000 C 
ATOM     32  C   UNL     1       2.875   2.495  19.167  0.00  0.00    +0.000 C 
ATOM     33  C   UNL     1       0.998   3.757  20.209  0.00  0.00    +0.000 C 
ENDBRANCH  29  30
ENDBRANCH  28  29
ENDBRANCH  25  28
ENDBRANCH   3  22
TORSDOF 5
ENDMDL
MODEL 5
REMARK VINA RESULT:      -7.6      4.335     11.613
REMARK  Name = 
REMARK  10 active torsions:
REMARK  status: ('A' for Active; 'I' for Inactive)
REMARK    1  A    between atoms: C_1  and  N_2
REMARK    2  A    between atoms: C_8  and  C_9
REMARK    3  A    between atoms: C_11  and  N_12
REMARK    4  A    between atoms: N_15  and  C_16
REMARK    5  A    between atoms: C_16  and  C_17
REMARK    6  A    between atoms: C_17  and  C_18
REMARK    7  A    between atoms: C_18  and  C_19
REMARK    8  A    between atoms: C_18  and  C_20
REMARK    9  A    between atoms: C_18  and  C_21
REMARK   10  A    between atoms: C_25  and  C_26
REMARK                            x       y       z     vdW  Elec       q    Type
REMARK                         _______ _______ _______ _____ _____    ______ ____
ROOT
ATOM      1  C   UNL     1       3.717   4.027  18.846  0.00  0.00    +0.000 A 
ATOM      2  C   UNL     1       3.029   5.072  19.507  0.00  0.00    +0.000 A 
ATOM      3  C   UNL     1       2.093   4.875  20.533  0.00  0.00    +0.000 A 
ATOM      4  C   UNL     1       1.845   3.563  20.927  0.00  0.00    +0.000 A 
ATOM      5  F   UNL     1       0.975   3.319  21.919  0.00  0.00    +0.000 F 
ATOM      6  C   UNL     1       2.460   2.495  20.277  0.00  0.00    +0.000 A 
ATOM      7  C   UNL     1       3.391   2.702  19.236  0.00  0.00    +0.000 A 
ATOM      8  C   UNL     1       3.984   1.479  18.589  0.00  0.00    +0.000 C 
ENDROOT
BRANCH   1  16
ATOM      9  C   UNL     1       8.131   5.873  11.581  0.00  0.00    +0.000 C 
ATOM     10  N   UNL     1       8.509   5.548  12.934  0.00  0.00    +0.000 N 
ATOM     11  C   UNL     1       7.468   5.182  13.770  0.00  0.00    +0.000 A 
ATOM     12  N   UNL     1       6.369   4.597  13.277  0.00  0.00    +0.000 NA
ATOM     13  C   UNL     1       5.416   4.269  14.161  0.00  0.00    +0.000 A 
ATOM     14  C   UNL     1       5.530   4.506  15.512  0.00  0.00    +0.000 A 
ATOM     15  C   UNL     1       4.538   4.177  16.462  0.00  0.00    +0.000 A 
ATOM     16  C   UNL     1       4.743   4.404  17.832  0.00  0.00    +0.000 A 
ATOM     17  C   UNL     1       5.979   4.965  18.126  0.00  0.00    +0.000 A 
ATOM     18  N   UNL     1       6.923   5.332  17.219  0.00  0.00    +0.000 NA
ATOM     19  C   UNL     1       6.709   5.107  15.925  0.00  0.00    +0.000 A 
ATOM     20  N   UNL     1       7.655   5.456  15.061  0.00  0.00    +0.000 NA
ATOM     21  H   UNL     1       9.048   6.249  13.432  0.00  0.00    +0.000 HD
ENDBRANCH   1  16
BRANCH   3  22
ATOM     22  N   UNL     1       1.425   5.944  21.186  0.00  0.00    +0.000 N 
ATOM     23  C   UNL     1       1.539   7.261  20.807  0.00  0.00    +0.000 C 
ATOM     24  O   UNL     1       2.150   7.660  19.817  0.00  0.00    +0.000 OA
ATOM     25  N   UNL     1       0.912   8.149  21.661  0.00  0.00    +0.000 N 
ATOM     26  H   UNL     1       0.685   5.691  21.822  0.00  0.00    +0.000 HD
ATOM     27  H   UNL     1       0.135   7.806  22.203  0.00  0.00    +0.000 HD
BRANCH  25  28
ATOM     28  C   UNL     1       0.885   9.536  21.227  0.00  0.00    +0.000 C 
BRANCH  28  29
ATOM     29  C   UNL     1      -0.474  10.037  20.738  0.00  0.00    +0.000 C 
BRANCH  29  30
ATOM     30  C   UNL     1      -0.394  10.830  19.395  0.00  0.00    +0.000 C 
ATOM     31  C   UNL     1      -1.435  10.315  18.384  0.00  0.00    +0.000 C 
ATOM     32  C   UNL     1      -0.678  12.319  19.666  0.00  0.00    +0.000 C 
ATOM     33  C   UNL     1       1.009  10.725  18.763  0.00  0.00    +0.000 C 
ENDBRANCH  29  30
ENDBRANCH  28  29
ENDBRANCH  25  28
ENDBRANCH   3  22
TORSDOF 5
ENDMDL
MODEL 6
REMARK VINA RESULT:      -7.6      4.408      6.956
REMARK  Name = 
REMARK  10 active torsions:
REMARK  status: ('A' for Active; 'I' for Inactive)
REMARK    1  A    between atoms: C_1  and  N_2
REMARK    2  A    between atoms: C_8  and  C_9
REMARK    3  A    between atoms: C_11  and  N_12
REMARK    4  A    between atoms: N_15  and  C_16
REMARK    5  A    between atoms: C_16  and  C_17
REMARK    6  A    between atoms: C_17  and  C_18
REMARK    7  A    between atoms: C_18  and  C_19
REMARK    8  A    between atoms: C_18  and  C_20
REMARK    9  A    between atoms: C_18  and  C_21
REMARK   10  A    between atoms: C_25  and  C_26
REMARK                            x       y       z     vdW  Elec       q    Type
REMARK                         _______ _______ _______ _____ _____    ______ ____
ROOT
ATOM      1  C   UNL     1       2.839   6.821  19.086  0.00  0.00    +0.000 A 
ATOM      2  C   UNL     1       3.989   6.780  18.263  0.00  0.00    +0.000 A 
ATOM      3  C   UNL     1       4.856   5.681  18.172  0.00  0.00    +0.000 A 
ATOM      4  C   UNL     1       4.545   4.559  18.936  0.00  0.00    +0.000 A 
ATOM      5  F   UNL     1       5.328   3.471  18.871  0.00  0.00    +0.000 F 
ATOM      6  C   UNL     1       3.451   4.565  19.799  0.00  0.00    +0.000 A 
ATOM      7  C   UNL     1       2.592   5.680  19.895  0.00  0.00    +0.000 A 
ATOM      8  C   UNL     1       1.450   5.589  20.871  0.00  0.00    +0.000 C 
ENDROOT
BRANCH   1  16
ATOM      9  C   UNL     1      -2.005  13.857  20.727  0.00  0.00    +0.000 C 
ATOM     10  N   UNL     1      -1.866  12.971  19.598  0.00  0.00    +0.000 N 
ATOM     11  C   UNL     1      -1.061  11.865  19.807  0.00  0.00    +0.000 A 
ATOM     12  N   UNL     1      -0.933  11.334  21.030  0.00  0.00    +0.000 NA
ATOM     13  C   UNL     1      -0.140  10.258  21.137  0.00  0.00    +0.000 A 
ATOM     14  C   UNL     1       0.522   9.702  20.066  0.00  0.00    +0.000 A 
ATOM     15  C   UNL     1       1.368   8.575  20.154  0.00  0.00    +0.000 A 
ATOM     16  C   UNL     1       1.974   8.032  19.010  0.00  0.00    +0.000 A 
ATOM     17  C   UNL     1       1.656   8.706  17.837  0.00  0.00    +0.000 A 
ATOM     18  N   UNL     1       0.883   9.821  17.743  0.00  0.00    +0.000 NA
ATOM     19  C   UNL     1       0.318  10.318  18.841  0.00  0.00    +0.000 A 
ATOM     20  N   UNL     1      -0.448  11.395  18.720  0.00  0.00    +0.000 NA
ATOM     21  H   UNL     1      -1.557  13.394  18.729  0.00  0.00    +0.000 HD
ENDBRANCH   1  16
BRANCH   3  22
ATOM     22  N   UNL     1       5.997   5.663  17.328  0.00  0.00    +0.000 N 
ATOM     23  C   UNL     1       5.974   5.239  16.021  0.00  0.00    +0.000 C 
ATOM     24  O   UNL     1       4.961   4.913  15.403  0.00  0.00    +0.000 OA
ATOM     25  N   UNL     1       7.220   5.179  15.426  0.00  0.00    +0.000 N 
ATOM     26  H   UNL     1       6.804   6.176  17.652  0.00  0.00    +0.000 HD
ATOM     27  H   UNL     1       7.939   5.786  15.786  0.00  0.00    +0.000 HD
BRANCH  25  28
ATOM     28  C   UNL     1       7.231   4.872  14.005  0.00  0.00    +0.000 C 
BRANCH  28  29
ATOM     29  C   UNL     1       6.544   3.563  13.617  0.00  0.00    +0.000 C 
BRANCH  29  30
ATOM     30  C   UNL     1       6.302   3.424  12.080  0.00  0.00    +0.000 C 
ATOM     31  C   UNL     1       6.761   2.047  11.568  0.00  0.00    +0.000 C 
ATOM     32  C   UNL     1       4.796   3.570  11.789  0.00  0.00    +0.000 C 
ATOM     33  C   UNL     1       7.043   4.522  11.293  0.00  0.00    +0.000 C 
ENDBRANCH  29  30
ENDBRANCH  28  29
ENDBRANCH  25  28
ENDBRANCH   3  22
TORSDOF 5
ENDMDL
MODEL 7
REMARK VINA RESULT:      -7.4      2.031      2.622
REMARK  Name = 
REMARK  10 active torsions:
REMARK  status: ('A' for Active; 'I' for Inactive)
REMARK    1  A    between atoms: C_1  and  N_2
REMARK    2  A    between atoms: C_8  and  C_9
REMARK    3  A    between atoms: C_11  and  N_12
REMARK    4  A    between atoms: N_15  and  C_16
REMARK    5  A    between atoms: C_16  and  C_17
REMARK    6  A    between atoms: C_17  and  C_18
REMARK    7  A    between atoms: C_18  and  C_19
REMARK    8  A    between atoms: C_18  and  C_20
REMARK    9  A    between atoms: C_18  and  C_21
REMARK   10  A    between atoms: C_25  and  C_26
REMARK                            x       y       z     vdW  Elec       q    Type
REMARK                         _______ _______ _______ _____ _____    ______ ____
ROOT
ATOM      1  C   UNL     1       0.042  10.085  20.281  0.00  0.00    +0.000 A 
ATOM      2  C   UNL     1       0.725   8.968  20.820  0.00  0.00    +0.000 A 
ATOM      3  C   UNL     1       1.609   8.158  20.092  0.00  0.00    +0.000 A 
ATOM      4  C   UNL     1       1.831   8.493  18.759  0.00  0.00    +0.000 A 
ATOM      5  F   UNL     1       2.685   7.765  18.023  0.00  0.00    +0.000 F 
ATOM      6  C   UNL     1       1.148   9.554  18.167  0.00  0.00    +0.000 A 
ATOM      7  C   UNL     1       0.250  10.356  18.903  0.00  0.00    +0.000 A 
ATOM      8  C   UNL     1      -0.449  11.465  18.163  0.00  0.00    +0.000 C 
ENDROOT
BRANCH   1  16
ATOM      9  C   UNL     1      -5.893  15.309  23.907  0.00  0.00    +0.000 C 
ATOM     10  N   UNL     1      -4.616  14.789  24.330  0.00  0.00    +0.000 N 
ATOM     11  C   UNL     1      -3.915  14.082  23.368  0.00  0.00    +0.000 A 
ATOM     12  N   UNL     1      -4.070  14.358  22.068  0.00  0.00    +0.000 NA
ATOM     13  C   UNL     1      -3.345  13.629  21.208  0.00  0.00    +0.000 A 
ATOM     14  C   UNL     1      -2.475  12.641  21.608  0.00  0.00    +0.000 A 
ATOM     15  C   UNL     1      -1.705  11.855  20.723  0.00  0.00    +0.000 A 
ATOM     16  C   UNL     1      -0.801  10.895  21.205  0.00  0.00    +0.000 A 
ATOM     17  C   UNL     1      -0.758  10.815  22.591  0.00  0.00    +0.000 A 
ATOM     18  N   UNL     1      -1.527  11.531  23.455  0.00  0.00    +0.000 NA
ATOM     19  C   UNL     1      -2.377  12.436  22.976  0.00  0.00    +0.000 A 
ATOM     20  N   UNL     1      -3.103  13.136  23.840  0.00  0.00    +0.000 NA
ATOM     21  H   UNL     1      -4.618  14.216  25.168  0.00  0.00    +0.000 HD
ENDBRANCH   1  16
BRANCH   3  22
ATOM     22  N   UNL     1       2.289   7.050  20.662  0.00  0.00    +0.000 N 
ATOM     23  C   UNL     1       1.818   5.759  20.619  0.00  0.00    +0.000 C 
ATOM     24  O   UNL     1       0.810   5.397  20.013  0.00  0.00    +0.000 OA
ATOM     25  N   UNL     1       2.569   4.860  21.350  0.00  0.00    +0.000 N 
ATOM     26  H   UNL     1       3.251   7.200  20.927  0.00  0.00    +0.000 HD
ATOM     27  H   UNL     1       3.542   5.076  21.498  0.00  0.00    +0.000 HD
BRANCH  25  28
ATOM     28  C   UNL     1       2.192   3.462  21.220  0.00  0.00    +0.000 C 
BRANCH  28  29
ATOM     29  C   UNL     1       3.205   2.579  20.492  0.00  0.00    +0.000 C 
BRANCH  29  30
ATOM     30  C   UNL     1       2.925   2.449  18.961  0.00  0.00    +0.000 C 
ATOM     31  C   UNL     1       3.662   1.237  18.363  0.00  0.00    +0.000 C 
ATOM     32  C   UNL     1       1.414   2.256  18.737  0.00  0.00    +0.000 C 
ATOM     33  C   UNL     1       3.356   3.719  18.201  0.00  0.00    +0.000 C 
ENDBRANCH  29  30
ENDBRANCH  28  29
ENDBRANCH  25  28
ENDBRANCH   3  22
TORSDOF 5
ENDMDL
MODEL 8
REMARK VINA RESULT:      -7.4      1.320      1.843
REMARK  Name = 
REMARK  10 active torsions:
REMARK  status: ('A' for Active; 'I' for Inactive)
REMARK    1  A    between atoms: C_1  and  N_2
REMARK    2  A    between atoms: C_8  and  C_9
REMARK    3  A    between atoms: C_11  and  N_12
REMARK    4  A    between atoms: N_15  and  C_16
REMARK    5  A    between atoms: C_16  and  C_17
REMARK    6  A    between atoms: C_17  and  C_18
REMARK    7  A    between atoms: C_18  and  C_19
REMARK    8  A    between atoms: C_18  and  C_20
REMARK    9  A    between atoms: C_18  and  C_21
REMARK   10  A    between atoms: C_25  and  C_26
REMARK                            x       y       z     vdW  Elec       q    Type
REMARK                         _______ _______ _______ _____ _____    ______ ____
ROOT
ATOM      1  C   UNL     1      -0.711  12.459  19.293  0.00  0.00    +0.000 A 
ATOM      2  C   UNL     1      -0.214  11.226  18.807  0.00  0.00    +0.000 A 
ATOM      3  C   UNL     1       1.081  11.042  18.302  0.00  0.00    +0.000 A 
ATOM      4  C   UNL     1       1.928  12.147  18.298  0.00  0.00    +0.000 A 
ATOM      5  F   UNL     1       3.185  12.020  17.847  0.00  0.00    +0.000 F 
ATOM      6  C   UNL     1       1.474  13.394  18.722  0.00  0.00    +0.000 A 
ATOM      7  C   UNL     1       0.164  13.575  19.216  0.00  0.00    +0.000 A 
ATOM      8  C   UNL     1      -0.230  14.967  19.631  0.00  0.00    +0.000 C 
ENDROOT
BRANCH   1  16
ATOM      9  C   UNL     1      -7.744  13.405  24.324  0.00  0.00    +0.000 C 
ATOM     10  N   UNL     1      -7.440  12.617  23.155  0.00  0.00    +0.000 N 
ATOM     11  C   UNL     1      -6.122  12.661  22.735  0.00  0.00    +0.000 A 
ATOM     12  N   UNL     1      -5.132  12.877  23.611  0.00  0.00    +0.000 NA
ATOM     13  C   UNL     1      -3.886  12.894  23.117  0.00  0.00    +0.000 A 
ATOM     14  C   UNL     1      -3.604  12.704  21.783  0.00  0.00    +0.000 A 
ATOM     15  C   UNL     1      -2.302  12.725  21.237  0.00  0.00    +0.000 A 
ATOM     16  C   UNL     1      -2.083  12.475  19.873  0.00  0.00    +0.000 A 
ATOM     17  C   UNL     1      -3.248  12.217  19.160  0.00  0.00    +0.000 A 
ATOM     18  N   UNL     1      -4.511  12.240  19.662  0.00  0.00    +0.000 NA
ATOM     19  C   UNL     1      -4.695  12.479  20.958  0.00  0.00    +0.000 A 
ATOM     20  N   UNL     1      -5.937  12.477  21.428  0.00  0.00    +0.000 NA
ATOM     21  H   UNL     1      -8.012  12.788  22.334  0.00  0.00    +0.000 HD
ENDBRANCH   1  16
BRANCH   3  22
ATOM     22  N   UNL     1       1.556   9.790  17.830  0.00  0.00    +0.000 N 
ATOM     23  C   UNL     1       1.787   8.705  18.643  0.00  0.00    +0.000 C 
ATOM     24  O   UNL     1       1.530   8.657  19.845  0.00  0.00    +0.000 OA
ATOM     25  N   UNL     1       2.374   7.633  17.998  0.00  0.00    +0.000 N 
ATOM     26  H   UNL     1       1.523   9.643  16.833  0.00  0.00    +0.000 HD
ATOM     27  H   UNL     1       2.220   7.543  17.006  0.00  0.00    +0.000 HD
BRANCH  25  28
ATOM     28  C   UNL     1       2.508   6.416  18.782  0.00  0.00    +0.000 C 
BRANCH  28  29
ATOM     29  C   UNL     1       2.141   5.126  18.048  0.00  0.00    +0.000 C 
BRANCH  29  30
ATOM     30  C   UNL     1       3.316   4.099  17.978  0.00  0.00    +0.000 C 
ATOM     31  C   UNL     1       4.331   4.491  16.889  0.00  0.00    +0.000 C 
ATOM     32  C   UNL     1       4.047   4.073  19.334  0.00  0.00    +0.000 C 
ATOM     33  C   UNL     1       2.801   2.675  17.692  0.00  0.00    +0.000 C 
ENDBRANCH  29  30
ENDBRANCH  28  29
ENDBRANCH  25  28
ENDBRANCH   3  22
TORSDOF 5
ENDMDL
MODEL 9
REMARK VINA RESULT:      -7.4      4.290     11.703
REMARK  Name = 
REMARK  10 active torsions:
REMARK  status: ('A' for Active; 'I' for Inactive)
REMARK    1  A    between atoms: C_1  and  N_2
REMARK    2  A    between atoms: C_8  and  C_9
REMARK    3  A    between atoms: C_11  and  N_12
REMARK    4  A    between atoms: N_15  and  C_16
REMARK    5  A    between atoms: C_16  and  C_17
REMARK    6  A    between atoms: C_17  and  C_18
REMARK    7  A    between atoms: C_18  and  C_19
REMARK    8  A    between atoms: C_18  and  C_20
REMARK    9  A    between atoms: C_18  and  C_21
REMARK   10  A    between atoms: C_25  and  C_26
REMARK                            x       y       z     vdW  Elec       q    Type
REMARK                         _______ _______ _______ _____ _____    ______ ____
ROOT
ATOM      1  C   UNL     1       3.680   4.050  18.855  0.00  0.00    +0.000 A 
ATOM      2  C   UNL     1       3.013   5.097  19.534  0.00  0.00    +0.000 A 
ATOM      3  C   UNL     1       2.072   4.900  20.556  0.00  0.00    +0.000 A 
ATOM      4  C   UNL     1       1.797   3.586  20.925  0.00  0.00    +0.000 A 
ATOM      5  F   UNL     1       0.922   3.341  21.913  0.00  0.00    +0.000 F 
ATOM      6  C   UNL     1       2.392   2.518  20.256  0.00  0.00    +0.000 A 
ATOM      7  C   UNL     1       3.327   2.725  19.220  0.00  0.00    +0.000 A 
ATOM      8  C   UNL     1       3.896   1.502  18.551  0.00  0.00    +0.000 C 
ENDROOT
BRANCH   1  16
ATOM      9  C   UNL     1       8.144   5.907  11.624  0.00  0.00    +0.000 C 
ATOM     10  N   UNL     1       8.513   5.570  12.976  0.00  0.00    +0.000 N 
ATOM     11  C   UNL     1       7.465   5.207  13.804  0.00  0.00    +0.000 A 
ATOM     12  N   UNL     1       6.363   4.636  13.302  0.00  0.00    +0.000 NA
ATOM     13  C   UNL     1       5.403   4.310  14.179  0.00  0.00    +0.000 A 
ATOM     14  C   UNL     1       5.513   4.536  15.532  0.00  0.00    +0.000 A 
ATOM     15  C   UNL     1       4.513   4.209  16.475  0.00  0.00    +0.000 A 
ATOM     16  C   UNL     1       4.713   4.425  17.848  0.00  0.00    +0.000 A 
ATOM     17  C   UNL     1       5.953   4.973  18.152  0.00  0.00    +0.000 A 
ATOM     18  N   UNL     1       6.905   5.337  17.252  0.00  0.00    +0.000 NA
ATOM     19  C   UNL     1       6.695   5.123  15.955  0.00  0.00    +0.000 A 
ATOM     20  N   UNL     1       7.648   5.470  15.098  0.00  0.00    +0.000 NA
ATOM     21  H   UNL     1       9.056   6.262  13.481  0.00  0.00    +0.000 HD
ENDBRANCH   1  16
BRANCH   3  22
ATOM     22  N   UNL     1       1.425   5.970  21.228  0.00  0.00    +0.000 N 
ATOM     23  C   UNL     1       1.541   7.288  20.855  0.00  0.00    +0.000 C 
ATOM     24  O   UNL     1       2.135   7.688  19.855  0.00  0.00    +0.000 OA
ATOM     25  N   UNL     1       0.938   8.175  21.726  0.00  0.00    +0.000 N 
ATOM     26  H   UNL     1       0.695   5.718  21.877  0.00  0.00    +0.000 HD
ATOM     27  H   UNL     1       0.170   7.835  22.281  0.00  0.00    +0.000 HD
BRANCH  25  28
ATOM     28  C   UNL     1       0.913   9.565  21.301  0.00  0.00    +0.000 C 
BRANCH  28  29
ATOM     29  C   UNL     1      -0.454  10.082  20.850  0.00  0.00    +0.000 C 
BRANCH  29  30
ATOM     30  C   UNL     1      -0.737  11.551  21.298  0.00  0.00    +0.000 C 
ATOM     31  C   UNL     1      -1.092  11.616  22.794  0.00  0.00    +0.000 C 
ATOM     32  C   UNL     1       0.523  12.405  21.062  0.00  0.00    +0.000 C 
ATOM     33  C   UNL     1      -1.889  12.174  20.484  0.00  0.00    +0.000 C 
ENDBRANCH  29  30
ENDBRANCH  28  29
ENDBRANCH  25  28
ENDBRANCH   3  22
TORSDOF 5
ENDMDL
