MODEL 1
REMARK VINA RESULT:      -7.9      0.000      0.000
REMARK  Name = 
REMARK  12 active torsions:
REMARK  status: ('A' for Active; 'I' for Inactive)
REMARK    1  A    between atoms: C_1  and  C_2
REMARK    2  A    between atoms: C_2  and  C_3
REMARK    3  A    between atoms: C_3  and  O_4
REMARK    4  A    between atoms: O_4  and  C_5
REMARK    5  A    between atoms: C_8  and  C_9
REMARK    6  A    between atoms: C_11  and  O_12
REMARK    7  A    between atoms: O_12  and  C_13
REMARK    8  A    between atoms: C_13  and  C_14
REMARK    9  A    between atoms: C_14  and  C_15
REMARK   10  A    between atoms: C_14  and  N_16
REMARK   11  A    between atoms: N_16  and  C_17
REMARK   12  A    between atoms: N_16  and  C_18
REMARK                            x       y       z     vdW  Elec       q    Type
REMARK                         _______ _______ _______ _____ _____    ______ ____
ROOT
ATOM      1  C   UNL     1       3.454   6.373  17.869  0.00  0.00    +0.000 A 
ATOM      2  C   UNL     1       3.136   5.703  19.032  0.00  0.00    +0.000 A 
ATOM      3  C   UNL     1       2.285   6.217  19.990  0.00  0.00    +0.000 A 
ATOM      4  C   UNL     1       1.863   7.548  19.846  0.00  0.00    +0.000 A 
ATOM      5  C   UNL     1       1.153   8.207  20.865  0.00  0.00    +0.000 A 
ATOM      6  C   UNL     1       0.775   9.543  20.707  0.00  0.00    +0.000 A 
ATOM      7  C   UNL     1       1.056  10.215  19.514  0.00  0.00    +0.000 A 
ATOM      8  C   UNL     1       1.756   9.570  18.483  0.00  0.00    +0.000 A 
ATOM      9  C   UNL     1       2.200   8.245  18.648  0.00  0.00    +0.000 A 
ATOM     10  N   UNL     1       2.963   7.632  17.683  0.00  0.00    +0.000 NA
ENDROOT
BRANCH   1  14
ATOM     11  C   UNL     1       5.976   4.345  14.941  0.00  0.00    +0.000 A 
ATOM     12  C   UNL     1       5.820   5.737  14.895  0.00  0.00    +0.000 A 
ATOM     13  C   UNL     1       5.040   6.381  15.843  0.00  0.00    +0.000 A 
ATOM     14  C   UNL     1       4.380   5.668  16.893  0.00  0.00    +0.000 A 
ATOM     15  C   UNL     1       4.588   4.291  16.969  0.00  0.00    +0.000 A 
ATOM     16  C   UNL     1       5.377   3.643  15.998  0.00  0.00    +0.000 A 
BRANCH  11  17
ATOM     17  O   UNL     1       6.683   3.657  14.003  0.00  0.00    +0.000 OA
BRANCH  17  18
ATOM     18  C   UNL     1       6.679   3.895  12.632  0.00  0.00    +0.000 C 
BRANCH  18  20
ATOM     19  C   UNL     1       4.408   3.330  11.605  0.00  0.00    +0.000 C 
ATOM     20  C   UNL     1       5.829   2.845  11.904  0.00  0.00    +0.000 C 
ENDBRANCH  18  20
ENDBRANCH  17  18
ENDBRANCH  11  17
ENDBRANCH   1  14
BRANCH   3  21
ATOM     21  O   UNL     1       1.896   5.428  21.033  0.00  0.00    +0.000 OA
BRANCH  21  22
ATOM     22  C   UNL     1       2.518   4.214  21.368  0.00  0.00    +0.000 C 
BRANCH  22  23
ATOM     23  C   UNL     1       1.788   2.949  20.882  0.00  0.00    +0.000 C 
ATOM     24  C   UNL     1       0.494   3.410  20.197  0.00  0.00    +0.000 C 
BRANCH  23  25
ATOM     25  N   UNL     1       2.600   2.030  20.022  0.00  0.00    +0.000 NA
ATOM     26  C   UNL     1       2.192   2.072  18.594  0.00  0.00    +0.000 C 
ATOM     27  C   UNL     1       4.028   2.418  20.080  0.00  0.00    +0.000 C 
ENDBRANCH  23  25
ENDBRANCH  22  23
ENDBRANCH  21  22
ENDBRANCH   3  21
TORSDOF 8
ENDMDL
MODEL 2
REMARK VINA RESULT:      -7.9      2.064      7.325
REMARK  Name = 
REMARK  12 active torsions:
REMARK  status: ('A' for Active; 'I' for Inactive)
REMARK    1  A    between atoms: C_1  and  C_2
REMARK    2  A    between atoms: C_2  and  C_3
REMARK    3  A    between atoms: C_3  and  O_4
REMARK    4  A    between atoms: O_4  and  C_5
REMARK    5  A    between atoms: C_8  and  C_9
REMARK    6  A    between atoms: C_11  and  O_12
REMARK    7  A    between atoms: O_12  and  C_13
REMARK    8  A    between atoms: C_13  and  C_14
REMARK    9  A    between atoms: C_14  and  C_15
REMARK   10  A    between atoms: C_14  and  N_16
REMARK   11  A    between atoms: N_16  and  C_17
REMARK   12  A    between atoms: N_16  and  C_18
REMARK                            x       y       z     vdW  Elec       q    Type
REMARK                         _______ _______ _______ _____ _____    ______ ____
ROOT
ATOM      1  C   UNL     1       3.117   6.840  18.070  0.00  0.00    +0.000 A 
ATOM      2  C   UNL     1       2.516   5.617  17.859  0.00  0.00    +0.000 A 
ATOM      3  C   UNL     1       3.181   4.534  17.317  0.00  0.00    +0.000 A 
ATOM      4  C   UNL     1       4.472   4.745  16.807  0.00  0.00    +0.000 A 
ATOM      5  C   UNL     1       5.143   3.751  16.074  0.00  0.00    +0.000 A 
ATOM      6  C   UNL     1       6.414   4.001  15.550  0.00  0.00    +0.000 A 
ATOM      7  C   UNL     1       7.046   5.223  15.797  0.00  0.00    +0.000 A 
ATOM      8  C   UNL     1       6.395   6.224  16.534  0.00  0.00    +0.000 A 
ATOM      9  C   UNL     1       5.089   6.013  17.017  0.00  0.00    +0.000 A 
ATOM     10  N   UNL     1       4.406   7.017  17.663  0.00  0.00    +0.000 NA
ENDROOT
BRANCH   1  14
ATOM     11  C   UNL     1       0.532   9.860  19.871  0.00  0.00    +0.000 A 
ATOM     12  C   UNL     1       1.044   8.814  20.650  0.00  0.00    +0.000 A 
ATOM     13  C   UNL     1       1.887   7.871  20.081  0.00  0.00    +0.000 A 
ATOM     14  C   UNL     1       2.269   7.929  18.704  0.00  0.00    +0.000 A 
ATOM     15  C   UNL     1       1.805   9.007  17.949  0.00  0.00    +0.000 A 
ATOM     16  C   UNL     1       0.943   9.957  18.532  0.00  0.00    +0.000 A 
BRANCH  11  17
ATOM     17  O   UNL     1      -0.344  10.778  20.364  0.00  0.00    +0.000 OA
BRANCH  17  18
ATOM     18  C   UNL     1      -0.038  11.827  21.224  0.00  0.00    +0.000 C 
BRANCH  18  20
ATOM     19  C   UNL     1      -0.999  10.473  23.166  0.00  0.00    +0.000 C 
ATOM     20  C   UNL     1      -0.974  11.820  22.440  0.00  0.00    +0.000 C 
ENDBRANCH  18  20
ENDBRANCH  17  18
ENDBRANCH  11  17
ENDBRANCH   1  14
BRANCH   3  21
ATOM     21  O   UNL     1       2.565   3.317  17.288  0.00  0.00    +0.000 OA
BRANCH  21  22
ATOM     22  C   UNL     1       1.487   2.966  18.116  0.00  0.00    +0.000 C 
BRANCH  22  23
ATOM     23  C   UNL     1       1.841   2.044  19.296  0.00  0.00    +0.000 C 
ATOM     24  C   UNL     1       3.321   1.667  19.147  0.00  0.00    +0.000 C 
BRANCH  23  25
ATOM     25  N   UNL     1       1.517   2.586  20.654  0.00  0.00    +0.000 NA
ATOM     26  C   UNL     1       2.705   2.647  21.545  0.00  0.00    +0.000 C 
ATOM     27  C   UNL     1       0.990   3.965  20.533  0.00  0.00    +0.000 C 
ENDBRANCH  23  25
ENDBRANCH  22  23
ENDBRANCH  21  22
ENDBRANCH   3  21
TORSDOF 8
ENDMDL
MODEL 3
REMARK VINA RESULT:      -7.6      1.940      7.272
REMARK  Name = 
REMARK  12 active torsions:
REMARK  status: ('A' for Active; 'I' for Inactive)
REMARK    1  A    between atoms: C_1  and  C_2
REMARK    2  A    between atoms: C_2  and  C_3
REMARK    3  A    between atoms: C_3  and  O_4
REMARK    4  A    between atoms: O_4  and  C_5
REMARK    5  A    between atoms: C_8  and  C_9
REMARK    6  A    between atoms: C_11  and  O_12
REMARK    7  A    between atoms: O_12  and  C_13
REMARK    8  A    between atoms: C_13  and  C_14
REMARK    9  A    between atoms: C_14  and  C_15
REMARK   10  A    between atoms: C_14  and  N_16
REMARK   11  A    between atoms: N_16  and  C_17
REMARK   12  A    between atoms: N_16  and  C_18
REMARK                            x       y       z     vdW  Elec       q    Type
REMARK                         _______ _______ _______ _____ _____    ______ ____
ROOT
ATOM      1  C   UNL     1       3.463   6.875  18.281  0.00  0.00    +0.000 A 
ATOM      2  C   UNL     1       3.815   5.800  19.070  0.00  0.00    +0.000 A 
ATOM      3  C   UNL     1       4.744   4.854  18.685  0.00  0.00    +0.000 A 
ATOM      4  C   UNL     1       5.221   4.902  17.366  0.00  0.00    +0.000 A 
ATOM      5  C   UNL     1       6.021   3.874  16.837  0.00  0.00    +0.000 A 
ATOM      6  C   UNL     1       6.454   3.932  15.510  0.00  0.00    +0.000 A 
ATOM      7  C   UNL     1       6.137   5.039  14.717  0.00  0.00    +0.000 A 
ATOM      8  C   UNL     1       5.349   6.079  15.231  0.00  0.00    +0.000 A 
ATOM      9  C   UNL     1       4.851   6.009  16.547  0.00  0.00    +0.000 A 
ATOM     10  N   UNL     1       4.004   6.976  17.033  0.00  0.00    +0.000 NA
ENDROOT
BRANCH   1  14
ATOM     11  C   UNL     1       0.418   9.558  19.884  0.00  0.00    +0.000 A 
ATOM     12  C   UNL     1       0.981   8.564  20.696  0.00  0.00    +0.000 A 
ATOM     13  C   UNL     1       1.968   7.731  20.191  0.00  0.00    +0.000 A 
ATOM     14  C   UNL     1       2.449   7.853  18.850  0.00  0.00    +0.000 A 
ATOM     15  C   UNL     1       1.928   8.882  18.066  0.00  0.00    +0.000 A 
ATOM     16  C   UNL     1       0.921   9.720  18.584  0.00  0.00    +0.000 A 
BRANCH  11  17
ATOM     17  O   UNL     1      -0.593  10.364  20.311  0.00  0.00    +0.000 OA
BRANCH  17  18
ATOM     18  C   UNL     1      -0.452  11.582  20.968  0.00  0.00    +0.000 C 
BRANCH  18  20
ATOM     19  C   UNL     1      -0.968  10.438  23.194  0.00  0.00    +0.000 C 
ATOM     20  C   UNL     1      -1.289  11.602  22.254  0.00  0.00    +0.000 C 
ENDBRANCH  18  20
ENDBRANCH  17  18
ENDBRANCH  11  17
ENDBRANCH   1  14
BRANCH   3  21
ATOM     21  O   UNL     1       5.153   3.913  19.585  0.00  0.00    +0.000 OA
BRANCH  21  22
ATOM     22  C   UNL     1       4.440   2.735  19.864  0.00  0.00    +0.000 C 
BRANCH  22  23
ATOM     23  C   UNL     1       3.142   2.551  19.058  0.00  0.00    +0.000 C 
ATOM     24  C   UNL     1       3.407   1.451  18.021  0.00  0.00    +0.000 C 
BRANCH  23  25
ATOM     25  N   UNL     1       1.912   2.292  19.873  0.00  0.00    +0.000 NA
ATOM     26  C   UNL     1       1.752   3.257  20.991  0.00  0.00    +0.000 C 
ATOM     27  C   UNL     1       0.709   2.408  19.019  0.00  0.00    +0.000 C 
ENDBRANCH  23  25
ENDBRANCH  22  23
ENDBRANCH  21  22
ENDBRANCH   3  21
TORSDOF 8
ENDMDL
MODEL 4
REMARK VINA RESULT:      -7.6      2.102      7.322
REMARK  Name = 
REMARK  12 active torsions:
REMARK  status: ('A' for Active; 'I' for Inactive)
REMARK    1  A    between atoms: C_1  and  C_2
REMARK    2  A    between atoms: C_2  and  C_3
REMARK    3  A    between atoms: C_3  and  O_4
REMARK    4  A    between atoms: O_4  and  C_5
REMARK    5  A    between atoms: C_8  and  C_9
REMARK    6  A    between atoms: C_11  and  O_12
REMARK    7  A    between atoms: O_12  and  C_13
REMARK    8  A    between atoms: C_13  and  C_14
REMARK    9  A    between atoms: C_14  and  C_15
REMARK   10  A    between atoms: C_14  and  N_16
REMARK   11  A    between atoms: N_16  and  C_17
REMARK   12  A    between atoms: N_16  and  C_18
REMARK                            x       y       z     vdW  Elec       q    Type
REMARK                         _______ _______ _______ _____ _____    ______ ____
ROOT
ATOM      1  C   UNL     1       3.112   6.814  18.076  0.00  0.00    +0.000 A 
ATOM      2  C   UNL     1       2.582   5.570  17.809  0.00  0.00    +0.000 A 
ATOM      3  C   UNL     1       3.324   4.532  17.278  0.00  0.00    +0.000 A 
ATOM      4  C   UNL     1       4.627   4.815  16.839  0.00  0.00    +0.000 A 
ATOM      5  C   UNL     1       5.380   3.870  16.120  0.00  0.00    +0.000 A 
ATOM      6  C   UNL     1       6.661   4.192  15.667  0.00  0.00    +0.000 A 
ATOM      7  C   UNL     1       7.222   5.435  15.970  0.00  0.00    +0.000 A 
ATOM      8  C   UNL     1       6.488   6.387  16.696  0.00  0.00    +0.000 A 
ATOM      9  C   UNL     1       5.172   6.105  17.107  0.00  0.00    +0.000 A 
ATOM     10  N   UNL     1       4.411   7.060  17.739  0.00  0.00    +0.000 NA
ENDROOT
BRANCH   1  14
ATOM     11  C   UNL     1       0.586   9.898  19.850  0.00  0.00    +0.000 A 
ATOM     12  C   UNL     1       0.861   9.916  18.477  0.00  0.00    +0.000 A 
ATOM     13  C   UNL     1       1.642   8.919  17.911  0.00  0.00    +0.000 A 
ATOM     14  C   UNL     1       2.183   7.848  18.689  0.00  0.00    +0.000 A 
ATOM     15  C   UNL     1       1.855   7.802  20.044  0.00  0.00    +0.000 A 
ATOM     16  C   UNL     1       1.067   8.822  20.612  0.00  0.00    +0.000 A 
BRANCH  11  17
ATOM     17  O   UNL     1      -0.126  10.882  20.466  0.00  0.00    +0.000 OA
BRANCH  17  18
ATOM     18  C   UNL     1       0.114  11.400  21.734  0.00  0.00    +0.000 C 
BRANCH  18  20
ATOM     19  C   UNL     1      -2.029  11.945  23.016  0.00  0.00    +0.000 C 
ATOM     20  C   UNL     1      -0.943  10.904  22.730  0.00  0.00    +0.000 C 
ENDBRANCH  18  20
ENDBRANCH  17  18
ENDBRANCH  11  17
ENDBRANCH   1  14
BRANCH   3  21
ATOM     21  O   UNL     1       2.768   3.288  17.192  0.00  0.00    +0.000 OA
BRANCH  21  22
ATOM     22  C   UNL     1       1.773   2.815  18.062  0.00  0.00    +0.000 C 
BRANCH  22  23
ATOM     23  C   UNL     1       2.284   2.285  19.414  0.00  0.00    +0.000 C 
ATOM     24  C   UNL     1       3.715   1.779  19.189  0.00  0.00    +0.000 C 
BRANCH  23  25
ATOM     25  N   UNL     1       2.184   3.246  20.559  0.00  0.00    +0.000 NA
ATOM     26  C   UNL     1       0.988   4.122  20.469  0.00  0.00    +0.000 C 
ATOM     27  C   UNL     1       2.086   2.500  21.834  0.00  0.00    +0.000 C 
ENDBRANCH  23  25
ENDBRANCH  22  23
ENDBRANCH  21  22
ENDBRANCH   3  21
TORSDOF 8
ENDMDL
MODEL 5
REMARK VINA RESULT:      -7.6      1.964      7.290
REMARK  Name = 
REMARK  12 active torsions:
REMARK  status: ('A' for Active; 'I' for Inactive)
REMARK    1  A    between atoms: C_1  and  C_2
REMARK    2  A    between atoms: C_2  and  C_3
REMARK    3  A    between atoms: C_3  and  O_4
REMARK    4  A    between atoms: O_4  and  C_5
REMARK    5  A    between atoms: C_8  and  C_9
REMARK    6  A    between atoms: C_11  and  O_12
REMARK    7  A    between atoms: O_12  and  C_13
REMARK    8  A    between atoms: C_13  and  C_14
REMARK    9  A    between atoms: C_14  and  C_15
REMARK   10  A    between atoms: C_14  and  N_16
REMARK   11  A    between atoms: N_16  and  C_17
REMARK   12  A    between atoms: N_16  and  C_18
REMARK                            x       y       z     vdW  Elec       q    Type
REMARK                         _______ _______ _______ _____ _____    ______ ____
ROOT
ATOM      1  C   UNL     1       3.360   6.806  18.452  0.00  0.00    +0.000 A 
ATOM      2  C   UNL     1       3.736   5.695  19.178  0.00  0.00    +0.000 A 
ATOM      3  C   UNL     1       4.687   4.793  18.739  0.00  0.00    +0.000 A 
ATOM      4  C   UNL     1       5.162   4.928  17.425  0.00  0.00    +0.000 A 
ATOM      5  C   UNL     1       5.983   3.950  16.838  0.00  0.00    +0.000 A 
ATOM      6  C   UNL     1       6.414   4.095  15.517  0.00  0.00    +0.000 A 
ATOM      7  C   UNL     1       6.072   5.238  14.789  0.00  0.00    +0.000 A 
ATOM      8  C   UNL     1       5.260   6.229  15.362  0.00  0.00    +0.000 A 
ATOM      9  C   UNL     1       4.765   6.072  16.671  0.00  0.00    +0.000 A 
ATOM     10  N   UNL     1       3.897   6.990  17.212  0.00  0.00    +0.000 NA
ENDROOT
BRANCH   1  14
ATOM     11  C   UNL     1       0.522   9.567  20.284  0.00  0.00    +0.000 A 
ATOM     12  C   UNL     1       0.921   9.746  18.953  0.00  0.00    +0.000 A 
ATOM     13  C   UNL     1       1.802   8.851  18.366  0.00  0.00    +0.000 A 
ATOM     14  C   UNL     1       2.325   7.725  19.076  0.00  0.00    +0.000 A 
ATOM     15  C   UNL     1       1.877   7.518  20.381  0.00  0.00    +0.000 A 
ATOM     16  C   UNL     1       0.987   8.436  20.973  0.00  0.00    +0.000 A 
BRANCH  11  17
ATOM     17  O   UNL     1      -0.295  10.446  20.927  0.00  0.00    +0.000 OA
BRANCH  17  18
ATOM     18  C   UNL     1      -0.621  11.729  20.500  0.00  0.00    +0.000 C 
BRANCH  18  20
ATOM     19  C   UNL     1      -1.391  11.848  22.934  0.00  0.00    +0.000 C 
ATOM     20  C   UNL     1      -0.943  12.632  21.698  0.00  0.00    +0.000 C 
ENDBRANCH  18  20
ENDBRANCH  17  18
ENDBRANCH  11  17
ENDBRANCH   1  14
BRANCH   3  21
ATOM     21  O   UNL     1       5.118   3.812  19.584  0.00  0.00    +0.000 OA
BRANCH  21  22
ATOM     22  C   UNL     1       4.320   2.734  20.002  0.00  0.00    +0.000 C 
BRANCH  22  23
ATOM     23  C   UNL     1       3.176   2.357  19.043  0.00  0.00    +0.000 C 
ATOM     24  C   UNL     1       3.676   1.191  18.179  0.00  0.00    +0.000 C 
BRANCH  23  25
ATOM     25  N   UNL     1       1.860   2.067  19.698  0.00  0.00    +0.000 NA
ATOM     26  C   UNL     1       1.706   2.756  21.004  0.00  0.00    +0.000 C 
ATOM     27  C   UNL     1       0.754   2.527  18.827  0.00  0.00    +0.000 C 
ENDBRANCH  23  25
ENDBRANCH  22  23
ENDBRANCH  21  22
ENDBRANCH   3  21
TORSDOF 8
ENDMDL
MODEL 6
REMARK VINA RESULT:      -7.6      2.120      7.058
REMARK  Name = 
REMARK  12 active torsions:
REMARK  status: ('A' for Active; 'I' for Inactive)
REMARK    1  A    between atoms: C_1  and  C_2
REMARK    2  A    between atoms: C_2  and  C_3
REMARK    3  A    between atoms: C_3  and  O_4
REMARK    4  A    between atoms: O_4  and  C_5
REMARK    5  A    between atoms: C_8  and  C_9
REMARK    6  A    between atoms: C_11  and  O_12
REMARK    7  A    between atoms: O_12  and  C_13
REMARK    8  A    between atoms: C_13  and  C_14
REMARK    9  A    between atoms: C_14  and  C_15
REMARK   10  A    between atoms: C_14  and  N_16
REMARK   11  A    between atoms: N_16  and  C_17
REMARK   12  A    between atoms: N_16  and  C_18
REMARK                            x       y       z     vdW  Elec       q    Type
REMARK                         _______ _______ _______ _____ _____    ______ ____
ROOT
ATOM      1  C   UNL     1       3.042   6.901  18.124  0.00  0.00    +0.000 A 
ATOM      2  C   UNL     1       2.478   5.669  17.867  0.00  0.00    +0.000 A 
ATOM      3  C   UNL     1       3.193   4.606  17.350  0.00  0.00    +0.000 A 
ATOM      4  C   UNL     1       4.505   4.848  16.914  0.00  0.00    +0.000 A 
ATOM      5  C   UNL     1       5.235   3.876  16.207  0.00  0.00    +0.000 A 
ATOM      6  C   UNL     1       6.526   4.157  15.756  0.00  0.00    +0.000 A 
ATOM      7  C   UNL     1       7.120   5.388  16.049  0.00  0.00    +0.000 A 
ATOM      8  C   UNL     1       6.410   6.367  16.762  0.00  0.00    +0.000 A 
ATOM      9  C   UNL     1       5.085   6.126  17.170  0.00  0.00    +0.000 A 
ATOM     10  N   UNL     1       4.348   7.107  17.789  0.00  0.00    +0.000 NA
ENDROOT
BRANCH   1  14
ATOM     11  C   UNL     1       0.595  10.072  19.856  0.00  0.00    +0.000 A 
ATOM     12  C   UNL     1       0.877  10.069  18.484  0.00  0.00    +0.000 A 
ATOM     13  C   UNL     1       1.632   9.045  17.932  0.00  0.00    +0.000 A 
ATOM     14  C   UNL     1       2.139   7.966  18.722  0.00  0.00    +0.000 A 
ATOM     15  C   UNL     1       1.804   7.943  20.076  0.00  0.00    +0.000 A 
ATOM     16  C   UNL     1       1.041   8.990  20.630  0.00  0.00    +0.000 A 
BRANCH  11  17
ATOM     17  O   UNL     1      -0.093  11.081  20.458  0.00  0.00    +0.000 OA
BRANCH  17  18
ATOM     18  C   UNL     1      -0.536  12.251  19.851  0.00  0.00    +0.000 C 
BRANCH  18  20
ATOM     19  C   UNL     1      -2.580  11.578  18.472  0.00  0.00    +0.000 C 
ATOM     20  C   UNL     1      -2.067  12.257  19.744  0.00  0.00    +0.000 C 
ENDBRANCH  18  20
ENDBRANCH  17  18
ENDBRANCH  11  17
ENDBRANCH   1  14
BRANCH   3  21
ATOM     21  O   UNL     1       2.604   3.377  17.275  0.00  0.00    +0.000 OA
BRANCH  21  22
ATOM     22  C   UNL     1       1.532   2.973  18.087  0.00  0.00    +0.000 C 
BRANCH  22  23
ATOM     23  C   UNL     1       1.891   1.957  19.186  0.00  0.00    +0.000 C 
ATOM     24  C   UNL     1       3.326   1.485  18.914  0.00  0.00    +0.000 C 
BRANCH  23  25
ATOM     25  N   UNL     1       1.698   2.438  20.592  0.00  0.00    +0.000 NA
ATOM     26  C   UNL     1       2.983   2.641  21.309  0.00  0.00    +0.000 C 
ATOM     27  C   UNL     1       0.990   3.739  20.585  0.00  0.00    +0.000 C 
ENDBRANCH  23  25
ENDBRANCH  22  23
ENDBRANCH  21  22
ENDBRANCH   3  21
TORSDOF 8
ENDMDL
MODEL 7
REMARK VINA RESULT:      -7.6      1.943      7.019
REMARK  Name = 
REMARK  12 active torsions:
REMARK  status: ('A' for Active; 'I' for Inactive)
REMARK    1  A    between atoms: C_1  and  C_2
REMARK    2  A    between atoms: C_2  and  C_3
REMARK    3  A    between atoms: C_3  and  O_4
REMARK    4  A    between atoms: O_4  and  C_5
REMARK    5  A    between atoms: C_8  and  C_9
REMARK    6  A    between atoms: C_11  and  O_12
REMARK    7  A    between atoms: O_12  and  C_13
REMARK    8  A    between atoms: C_13  and  C_14
REMARK    9  A    between atoms: C_14  and  C_15
REMARK   10  A    between atoms: C_14  and  N_16
REMARK   11  A    between atoms: N_16  and  C_17
REMARK   12  A    between atoms: N_16  and  C_18
REMARK                            x       y       z     vdW  Elec       q    Type
REMARK                         _______ _______ _______ _____ _____    ______ ____
ROOT
ATOM      1  C   UNL     1       3.396   6.837  18.231  0.00  0.00    +0.000 A 
ATOM      2  C   UNL     1       3.745   5.761  19.020  0.00  0.00    +0.000 A 
ATOM      3  C   UNL     1       4.699   4.833  18.650  0.00  0.00    +0.000 A 
ATOM      4  C   UNL     1       5.207   4.901  17.343  0.00  0.00    +0.000 A 
ATOM      5  C   UNL     1       6.036   3.890  16.825  0.00  0.00    +0.000 A 
ATOM      6  C   UNL     1       6.500   3.967  15.510  0.00  0.00    +0.000 A 
ATOM      7  C   UNL     1       6.185   5.075  14.719  0.00  0.00    +0.000 A 
ATOM      8  C   UNL     1       5.367   6.098  15.222  0.00  0.00    +0.000 A 
ATOM      9  C   UNL     1       4.838   6.008  16.524  0.00  0.00    +0.000 A 
ATOM     10  N   UNL     1       3.964   6.958  16.998  0.00  0.00    +0.000 NA
ENDROOT
BRANCH   1  14
ATOM     11  C   UNL     1       0.531   9.709  19.839  0.00  0.00    +0.000 A 
ATOM     12  C   UNL     1       0.882   9.746  18.483  0.00  0.00    +0.000 A 
ATOM     13  C   UNL     1       1.771   8.815  17.970  0.00  0.00    +0.000 A 
ATOM     14  C   UNL     1       2.352   7.793  18.784  0.00  0.00    +0.000 A 
ATOM     15  C   UNL     1       1.953   7.724  20.119  0.00  0.00    +0.000 A 
ATOM     16  C   UNL     1       1.054   8.678  20.634  0.00  0.00    +0.000 A 
BRANCH  11  17
ATOM     17  O   UNL     1      -0.292  10.633  20.407  0.00  0.00    +0.000 OA
BRANCH  17  18
ATOM     18  C   UNL     1      -0.074  12.006  20.461  0.00  0.00    +0.000 C 
BRANCH  18  20
ATOM     19  C   UNL     1      -0.326  13.526  18.421  0.00  0.00    +0.000 C 
ATOM     20  C   UNL     1      -1.042  12.744  19.526  0.00  0.00    +0.000 C 
ENDBRANCH  18  20
ENDBRANCH  17  18
ENDBRANCH  11  17
ENDBRANCH   1  14
BRANCH   3  21
ATOM     21  O   UNL     1       5.102   3.891  19.552  0.00  0.00    +0.000 OA
BRANCH  21  22
ATOM     22  C   UNL     1       4.291   2.832  19.991  0.00  0.00    +0.000 C 
BRANCH  22  23
ATOM     23  C   UNL     1       3.123   2.472  19.056  0.00  0.00    +0.000 C 
ATOM     24  C   UNL     1       3.598   1.318  18.162  0.00  0.00    +0.000 C 
BRANCH  23  25
ATOM     25  N   UNL     1       1.823   2.176  19.738  0.00  0.00    +0.000 NA
ATOM     26  C   UNL     1       1.625   2.982  20.970  0.00  0.00    +0.000 C 
ATOM     27  C   UNL     1       0.696   2.483  18.828  0.00  0.00    +0.000 C 
ENDBRANCH  23  25
ENDBRANCH  22  23
ENDBRANCH  21  22
ENDBRANCH   3  21
TORSDOF 8
ENDMDL
MODEL 8
REMARK VINA RESULT:      -7.5      2.098      6.939
REMARK  Name = 
REMARK  12 active torsions:
REMARK  status: ('A' for Active; 'I' for Inactive)
REMARK    1  A    between atoms: C_1  and  C_2
REMARK    2  A    between atoms: C_2  and  C_3
REMARK    3  A    between atoms: C_3  and  O_4
REMARK    4  A    between atoms: O_4  and  C_5
REMARK    5  A    between atoms: C_8  and  C_9
REMARK    6  A    between atoms: C_11  and  O_12
REMARK    7  A    between atoms: O_12  and  C_13
REMARK    8  A    between atoms: C_13  and  C_14
REMARK    9  A    between atoms: C_14  and  C_15
REMARK   10  A    between atoms: C_14  and  N_16
REMARK   11  A    between atoms: N_16  and  C_17
REMARK   12  A    between atoms: N_16  and  C_18
REMARK                            x       y       z     vdW  Elec       q    Type
REMARK                         _______ _______ _______ _____ _____    ______ ____
ROOT
ATOM      1  C   UNL     1       3.150   6.961  18.010  0.00  0.00    +0.000 A 
ATOM      2  C   UNL     1       2.515   5.753  17.809  0.00  0.00    +0.000 A 
ATOM      3  C   UNL     1       3.158   4.638  17.306  0.00  0.00    +0.000 A 
ATOM      4  C   UNL     1       4.467   4.797  16.825  0.00  0.00    +0.000 A 
ATOM      5  C   UNL     1       5.124   3.767  16.129  0.00  0.00    +0.000 A 
ATOM      6  C   UNL     1       6.415   3.965  15.633  0.00  0.00    +0.000 A 
ATOM      7  C   UNL     1       7.080   5.171  15.871  0.00  0.00    +0.000 A 
ATOM      8  C   UNL     1       6.444   6.207  16.572  0.00  0.00    +0.000 A 
ATOM      9  C   UNL     1       5.120   6.049  17.025  0.00  0.00    +0.000 A 
ATOM     10  N   UNL     1       4.454   7.087  17.633  0.00  0.00    +0.000 NA
ENDROOT
BRANCH   1  14
ATOM     11  C   UNL     1       0.619  10.108  19.662  0.00  0.00    +0.000 A 
ATOM     12  C   UNL     1       0.949   8.989  20.438  0.00  0.00    +0.000 A 
ATOM     13  C   UNL     1       1.776   8.004  19.919  0.00  0.00    +0.000 A 
ATOM     14  C   UNL     1       2.322   8.089  18.600  0.00  0.00    +0.000 A 
ATOM     15  C   UNL     1       2.038   9.234  17.856  0.00  0.00    +0.000 A 
ATOM     16  C   UNL     1       1.192  10.227  18.387  0.00  0.00    +0.000 A 
BRANCH  11  17
ATOM     17  O   UNL     1      -0.234  11.075  20.100  0.00  0.00    +0.000 OA
BRANCH  17  18
ATOM     18  C   UNL     1      -0.946  11.965  19.304  0.00  0.00    +0.000 C 
BRANCH  18  20
ATOM     19  C   UNL     1      -2.256  11.209  17.244  0.00  0.00    +0.000 C 
ATOM     20  C   UNL     1      -2.227  11.309  18.772  0.00  0.00    +0.000 C 
ENDBRANCH  18  20
ENDBRANCH  17  18
ENDBRANCH  11  17
ENDBRANCH   1  14
BRANCH   3  21
ATOM     21  O   UNL     1       2.504   3.441  17.286  0.00  0.00    +0.000 OA
BRANCH  21  22
ATOM     22  C   UNL     1       1.528   3.067  18.224  0.00  0.00    +0.000 C 
BRANCH  22  23
ATOM     23  C   UNL     1       2.067   2.370  19.486  0.00  0.00    +0.000 C 
ATOM     24  C   UNL     1       3.426   1.758  19.118  0.00  0.00    +0.000 C 
BRANCH  23  25
ATOM     25  N   UNL     1       2.133   3.227  20.713  0.00  0.00    +0.000 NA
ATOM     26  C   UNL     1       1.235   4.407  20.637  0.00  0.00    +0.000 C 
ATOM     27  C   UNL     1       1.722   2.440  21.898  0.00  0.00    +0.000 C 
ENDBRANCH  23  25
ENDBRANCH  22  23
ENDBRANCH  21  22
ENDBRANCH   3  21
TORSDOF 8
ENDMDL
MODEL 9
REMARK VINA RESULT:      -7.5      2.584      7.375
REMARK  Name = 
REMARK  12 active torsions:
REMARK  status: ('A' for Active; 'I' for Inactive)
REMARK    1  A    between atoms: C_1  and  C_2
REMARK    2  A    between atoms: C_2  and  C_3
REMARK    3  A    between atoms: C_3  and  O_4
REMARK    4  A    between atoms: O_4  and  C_5
REMARK    5  A    between atoms: C_8  and  C_9
REMARK    6  A    between atoms: C_11  and  O_12
REMARK    7  A    between atoms: O_12  and  C_13
REMARK    8  A    between atoms: C_13  and  C_14
REMARK    9  A    between atoms: C_14  and  C_15
REMARK   10  A    between atoms: C_14  and  N_16
REMARK   11  A    between atoms: N_16  and  C_17
REMARK   12  A    between atoms: N_16  and  C_18
REMARK                            x       y       z     vdW  Elec       q    Type
REMARK                         _______ _______ _______ _____ _____    ______ ____
ROOT
ATOM      1  C   UNL     1       2.753   6.445  18.892  0.00  0.00    +0.000 A 
ATOM      2  C   UNL     1       4.044   6.271  19.345  0.00  0.00    +0.000 A 
ATOM      3  C   UNL     1       4.728   5.075  19.233  0.00  0.00    +0.000 A 
ATOM      4  C   UNL     1       4.013   3.950  18.792  0.00  0.00    +0.000 A 
ATOM      5  C   UNL     1       4.577   2.663  18.828  0.00  0.00    +0.000 A 
ATOM      6  C   UNL     1       3.830   1.557  18.414  0.00  0.00    +0.000 A 
ATOM      7  C   UNL     1       2.536   1.732  17.914  0.00  0.00    +0.000 A 
ATOM      8  C   UNL     1       1.961   3.011  17.862  0.00  0.00    +0.000 A 
ATOM      9  C   UNL     1       2.675   4.129  18.333  0.00  0.00    +0.000 A 
ATOM     10  N   UNL     1       2.091   5.373  18.372  0.00  0.00    +0.000 NA
ENDROOT
BRANCH   1  14
ATOM     11  C   UNL     1       0.829  10.336  19.339  0.00  0.00    +0.000 A 
ATOM     12  C   UNL     1       0.947   9.477  20.440  0.00  0.00    +0.000 A 
ATOM     13  C   UNL     1       1.584   8.253  20.300  0.00  0.00    +0.000 A 
ATOM     14  C   UNL     1       2.142   7.826  19.055  0.00  0.00    +0.000 A 
ATOM     15  C   UNL     1       2.074   8.711  17.978  0.00  0.00    +0.000 A 
ATOM     16  C   UNL     1       1.420   9.950  18.126  0.00  0.00    +0.000 A 
BRANCH  11  17
ATOM     17  O   UNL     1       0.164  11.522  19.406  0.00  0.00    +0.000 OA
BRANCH  17  18
ATOM     18  C   UNL     1      -0.436  12.190  18.344  0.00  0.00    +0.000 C 
BRANCH  18  20
ATOM     19  C   UNL     1      -2.176  10.669  17.251  0.00  0.00    +0.000 C 
ATOM     20  C   UNL     1      -1.920  11.812  18.238  0.00  0.00    +0.000 C 
ENDBRANCH  18  20
ENDBRANCH  17  18
ENDBRANCH  11  17
ENDBRANCH   1  14
BRANCH   3  21
ATOM     21  O   UNL     1       6.052   5.029  19.559  0.00  0.00    +0.000 OA
BRANCH  21  22
ATOM     22  C   UNL     1       7.088   5.371  18.674  0.00  0.00    +0.000 C 
BRANCH  22  23
ATOM     23  C   UNL     1       6.740   6.469  17.654  0.00  0.00    +0.000 C 
ATOM     24  C   UNL     1       7.771   7.592  17.830  0.00  0.00    +0.000 C 
BRANCH  23  25
ATOM     25  N   UNL     1       6.622   6.011  16.233  0.00  0.00    +0.000 NA
ATOM     26  C   UNL     1       6.956   4.573  16.065  0.00  0.00    +0.000 C 
ATOM     27  C   UNL     1       5.232   6.195  15.758  0.00  0.00    +0.000 C 
ENDBRANCH  23  25
ENDBRANCH  22  23
ENDBRANCH  21  22
ENDBRANCH   3  21
TORSDOF 8
ENDMDL
