MODEL 1
REMARK VINA RESULT:      -8.1      0.000      0.000
REMARK  Name = 
REMARK  7 active torsions:
REMARK  status: ('A' for Active; 'I' for Inactive)
REMARK    1  A    between atoms: C_2  and  O_3
REMARK    2  A    between atoms: C_2  and  C_4
REMARK    3  A    between atoms: C_4  and  O_5
REMARK    4  A    between atoms: O_5  and  C_6
REMARK    5  A    between atoms: C_12  and  C_13
REMARK    6  A    between atoms: C_22  and  C_24
REMARK    7  A    between atoms: C_25  and  C_26
REMARK                            x       y       z     vdW  Elec       q    Type
REMARK                         _______ _______ _______ _____ _____    ______ ____
ROOT
ATOM      1  C   UNL     1       3.696   5.592  18.098  0.00  0.00    +0.000 C 
ATOM      2  C   UNL     1       3.267   4.161  18.308  0.00  0.00    +0.000 A 
ATOM      3  S   UNL     1       3.532   2.890  17.196  0.00  0.00    +0.000 S 
ATOM      4  C   UNL     1       2.908   1.785  18.357  0.00  0.00    +0.000 A 
ATOM      5  N   UNL     1       2.470   2.312  19.482  0.00  0.00    +0.000 NA
ATOM      6  C   UNL     1       2.626   3.677  19.431  0.00  0.00    +0.000 A 
ATOM      7  C   UNL     1       2.197   4.558  20.552  0.00  0.00    +0.000 C 
ATOM      8  C   UNL     1       2.993   5.870  20.503  0.00  0.00    +0.000 C 
ATOM      9  N   UNL     1       3.017   6.428  19.135  0.00  0.00    +0.000 N 
ATOM     10  C   UNL     1       2.393   7.610  18.748  0.00  0.00    +0.000 C 
ATOM     11  O   UNL     1       2.513   8.099  17.629  0.00  0.00    +0.000 OA
ENDROOT
BRANCH   1  18
ATOM     12  C   UNL     1       5.984   6.320  16.990  0.00  0.00    +0.000 A 
ATOM     13  C   UNL     1       7.381   6.447  17.127  0.00  0.00    +0.000 A 
ATOM     14  C   UNL     1       8.024   6.151  18.327  0.00  0.00    +0.000 A 
ATOM     15  C   UNL     1       7.281   5.685  19.399  0.00  0.00    +0.000 A 
ATOM     16 CL   UNL     1       8.067   5.347  20.891  0.00  0.00    +0.000 Cl
ATOM     17  C   UNL     1       5.906   5.497  19.271  0.00  0.00    +0.000 A 
ATOM     18  C   UNL     1       5.220   5.809  18.070  0.00  0.00    +0.000 A 
BRANCH  12  19
ATOM     19  O   UNL     1       5.370   6.664  15.800  0.00  0.00    +0.000 OA
BRANCH  19  20
ATOM     20  C   UNL     1       5.073   5.538  14.956  0.00  0.00    +0.000 C 
BRANCH  20  22
ATOM     21  O   UNL     1       7.260   5.345  13.937  0.00  0.00    +0.000 OA
ATOM     22  C   UNL     1       6.299   4.790  14.451  0.00  0.00    +0.000 C 
BRANCH  22  23
ATOM     23  O   UNL     1       6.260   3.458  14.653  0.00  0.00    +0.000 OA
ATOM     24  H   UNL     1       7.100   3.029  14.386  0.00  0.00    +0.000 HD
ENDBRANCH  22  23
ENDBRANCH  20  22
ENDBRANCH  19  20
ENDBRANCH  12  19
ENDBRANCH   1  18
BRANCH  10  25
ATOM     25  C   UNL     1       1.518   8.273  19.763  0.00  0.00    +0.000 C 
ATOM     26  C   UNL     1       0.872   9.423  19.516  0.00  0.00    +0.000 C 
BRANCH  26  27
ATOM     27  C   UNL     1       0.074  10.070  20.564  0.00  0.00    +0.000 A 
ATOM     28  C   UNL     1      -0.632  11.247  20.275  0.00  0.00    +0.000 A 
ATOM     29  C   UNL     1      -1.357  11.903  21.273  0.00  0.00    +0.000 A 
ATOM     30  C   UNL     1      -1.379  11.380  22.561  0.00  0.00    +0.000 A 
ATOM     31  F   UNL     1      -2.068  12.009  23.521  0.00  0.00    +0.000 F 
ATOM     32  C   UNL     1      -0.691  10.210  22.866  0.00  0.00    +0.000 A 
ATOM     33  C   UNL     1       0.037   9.554  21.868  0.00  0.00    +0.000 A 
ENDBRANCH  26  27
ENDBRANCH  10  25
TORSDOF 7
ENDMDL
MODEL 2
REMARK VINA RESULT:      -8.0      1.527      1.942
REMARK  Name = 
REMARK  7 active torsions:
REMARK  status: ('A' for Active; 'I' for Inactive)
REMARK    1  A    between atoms: C_2  and  O_3
REMARK    2  A    between atoms: C_2  and  C_4
REMARK    3  A    between atoms: C_4  and  O_5
REMARK    4  A    between atoms: O_5  and  C_6
REMARK    5  A    between atoms: C_12  and  C_13
REMARK    6  A    between atoms: C_22  and  C_24
REMARK    7  A    between atoms: C_25  and  C_26
REMARK                            x       y       z     vdW  Elec       q    Type
REMARK                         _______ _______ _______ _____ _____    ______ ____
ROOT
ATOM      1  C   UNL     1       3.456   5.210  17.701  0.00  0.00    +0.000 C 
ATOM      2  C   UNL     1       2.684   4.028  18.231  0.00  0.00    +0.000 A 
ATOM      3  S   UNL     1       2.552   2.516  17.443  0.00  0.00    +0.000 S 
ATOM      4  C   UNL     1       1.727   1.902  18.821  0.00  0.00    +0.000 A 
ATOM      5  N   UNL     1       1.501   2.765  19.792  0.00  0.00    +0.000 NA
ATOM      6  C   UNL     1       2.000   3.993  19.431  0.00  0.00    +0.000 A 
ATOM      7  C   UNL     1       1.874   5.183  20.316  0.00  0.00    +0.000 C 
ATOM      8  C   UNL     1       2.978   6.194  19.972  0.00  0.00    +0.000 C 
ATOM      9  N   UNL     1       3.072   6.405  18.513  0.00  0.00    +0.000 N 
ATOM     10  C   UNL     1       2.754   7.592  17.861  0.00  0.00    +0.000 C 
ATOM     11  O   UNL     1       2.936   7.770  16.660  0.00  0.00    +0.000 OA
ENDROOT
BRANCH   1  18
ATOM     12  C   UNL     1       5.732   4.594  16.506  0.00  0.00    +0.000 A 
ATOM     13  C   UNL     1       7.129   4.446  16.618  0.00  0.00    +0.000 A 
ATOM     14  C   UNL     1       7.801   4.766  17.796  0.00  0.00    +0.000 A 
ATOM     15  C   UNL     1       7.079   5.203  18.894  0.00  0.00    +0.000 A 
ATOM     16 CL   UNL     1       7.908   5.628  20.339  0.00  0.00    +0.000 Cl
ATOM     17  C   UNL     1       5.690   5.304  18.825  0.00  0.00    +0.000 A 
ATOM     18  C   UNL     1       4.980   5.006  17.635  0.00  0.00    +0.000 A 
BRANCH  12  19
ATOM     19  O   UNL     1       5.100   4.311  15.310  0.00  0.00    +0.000 OA
BRANCH  19  20
ATOM     20  C   UNL     1       5.939   4.482  14.155  0.00  0.00    +0.000 C 
BRANCH  20  22
ATOM     21  O   UNL     1       4.509   3.614  12.406  0.00  0.00    +0.000 OA
ATOM     22  C   UNL     1       5.588   3.578  12.981  0.00  0.00    +0.000 C 
BRANCH  22  23
ATOM     23  O   UNL     1       6.583   2.754  12.597  0.00  0.00    +0.000 OA
ATOM     24  H   UNL     1       6.278   1.824  12.541  0.00  0.00    +0.000 HD
ENDBRANCH  22  23
ENDBRANCH  20  22
ENDBRANCH  19  20
ENDBRANCH  12  19
ENDBRANCH   1  18
BRANCH  10  25
ATOM     25  C   UNL     1       2.136   8.672  18.689  0.00  0.00    +0.000 C 
ATOM     26  C   UNL     1       1.635   9.795  18.153  0.00  0.00    +0.000 C 
BRANCH  26  27
ATOM     27  C   UNL     1       1.093  10.856  19.012  0.00  0.00    +0.000 A 
ATOM     28  C   UNL     1       0.257  10.522  20.087  0.00  0.00    +0.000 A 
ATOM     29  C   UNL     1      -0.306  11.521  20.884  0.00  0.00    +0.000 A 
ATOM     30  C   UNL     1      -0.031  12.856  20.607  0.00  0.00    +0.000 A 
ATOM     31  F   UNL     1      -0.574  13.816  21.367  0.00  0.00    +0.000 F 
ATOM     32  C   UNL     1       0.801  13.206  19.549  0.00  0.00    +0.000 A 
ATOM     33  C   UNL     1       1.364  12.207  18.749  0.00  0.00    +0.000 A 
ENDBRANCH  26  27
ENDBRANCH  10  25
TORSDOF 7
ENDMDL
MODEL 3
REMARK VINA RESULT:      -7.9      1.140      1.510
REMARK  Name = 
REMARK  7 active torsions:
REMARK  status: ('A' for Active; 'I' for Inactive)
REMARK    1  A    between atoms: C_2  and  O_3
REMARK    2  A    between atoms: C_2  and  C_4
REMARK    3  A    between atoms: C_4  and  O_5
REMARK    4  A    between atoms: O_5  and  C_6
REMARK    5  A    between atoms: C_12  and  C_13
REMARK    6  A    between atoms: C_22  and  C_24
REMARK    7  A    between atoms: C_25  and  C_26
REMARK                            x       y       z     vdW  Elec       q    Type
REMARK                         _______ _______ _______ _____ _____    ______ ____
ROOT
ATOM      1  C   UNL     1       3.326   5.239  17.897  0.00  0.00    +0.000 C 
ATOM      2  C   UNL     1       2.577   4.006  18.334  0.00  0.00    +0.000 A 
ATOM      3  S   UNL     1       2.404   2.586  17.397  0.00  0.00    +0.000 S 
ATOM      4  C   UNL     1       1.643   1.828  18.739  0.00  0.00    +0.000 A 
ATOM      5  N   UNL     1       1.465   2.581  19.806  0.00  0.00    +0.000 NA
ATOM      6  C   UNL     1       1.950   3.843  19.554  0.00  0.00    +0.000 A 
ATOM      7  C   UNL     1       1.869   4.932  20.565  0.00  0.00    +0.000 C 
ATOM      8  C   UNL     1       2.958   5.976  20.280  0.00  0.00    +0.000 C 
ATOM      9  N   UNL     1       2.984   6.341  18.849  0.00  0.00    +0.000 N 
ATOM     10  C   UNL     1       2.639   7.590  18.341  0.00  0.00    +0.000 C 
ATOM     11  O   UNL     1       2.765   7.894  17.159  0.00  0.00    +0.000 OA
ENDROOT
BRANCH   1  18
ATOM     12  C   UNL     1       5.532   4.655  16.561  0.00  0.00    +0.000 A 
ATOM     13  C   UNL     1       6.934   4.515  16.589  0.00  0.00    +0.000 A 
ATOM     14  C   UNL     1       7.672   4.824  17.729  0.00  0.00    +0.000 A 
ATOM     15  C   UNL     1       7.014   5.243  18.873  0.00  0.00    +0.000 A 
ATOM     16 CL   UNL     1       7.924   5.654  20.273  0.00  0.00    +0.000 Cl
ATOM     17  C   UNL     1       5.623   5.334  18.888  0.00  0.00    +0.000 A 
ATOM     18  C   UNL     1       4.845   5.047  17.738  0.00  0.00    +0.000 A 
BRANCH  12  19
ATOM     19  O   UNL     1       4.831   4.383  15.401  0.00  0.00    +0.000 OA
BRANCH  19  20
ATOM     20  C   UNL     1       5.528   4.759  14.201  0.00  0.00    +0.000 C 
BRANCH  20  22
ATOM     21  O   UNL     1       4.537   3.583  12.332  0.00  0.00    +0.000 OA
ATOM     22  C   UNL     1       5.485   3.715  13.094  0.00  0.00    +0.000 C 
BRANCH  22  23
ATOM     23  O   UNL     1       6.600   2.965  12.993  0.00  0.00    +0.000 OA
ATOM     24  H   UNL     1       7.399   3.473  13.248  0.00  0.00    +0.000 HD
ENDBRANCH  22  23
ENDBRANCH  20  22
ENDBRANCH  19  20
ENDBRANCH  12  19
ENDBRANCH   1  18
BRANCH  10  25
ATOM     25  C   UNL     1       2.063   8.574  19.308  0.00  0.00    +0.000 C 
ATOM     26  C   UNL     1       0.883   8.380  19.917  0.00  0.00    +0.000 C 
BRANCH  26  27
ATOM     27  C   UNL     1       0.328   9.404  20.812  0.00  0.00    +0.000 A 
ATOM     28  C   UNL     1       0.098   9.098  22.161  0.00  0.00    +0.000 A 
ATOM     29  C   UNL     1      -0.476  10.043  23.014  0.00  0.00    +0.000 A 
ATOM     30  C   UNL     1      -0.815  11.298  22.520  0.00  0.00    +0.000 A 
ATOM     31  F   UNL     1      -1.370  12.204  23.334  0.00  0.00    +0.000 F 
ATOM     32  C   UNL     1      -0.588  11.622  21.186  0.00  0.00    +0.000 A 
ATOM     33  C   UNL     1      -0.016  10.675  20.330  0.00  0.00    +0.000 A 
ENDBRANCH  26  27
ENDBRANCH  10  25
TORSDOF 7
ENDMDL
MODEL 4
REMARK VINA RESULT:      -7.9      5.569      9.310
REMARK  Name = 
REMARK  7 active torsions:
REMARK  status: ('A' for Active; 'I' for Inactive)
REMARK    1  A    between atoms: C_2  and  O_3
REMARK    2  A    between atoms: C_2  and  C_4
REMARK    3  A    between atoms: C_4  and  O_5
REMARK    4  A    between atoms: O_5  and  C_6
REMARK    5  A    between atoms: C_12  and  C_13
REMARK    6  A    between atoms: C_22  and  C_24
REMARK    7  A    between atoms: C_25  and  C_26
REMARK                            x       y       z     vdW  Elec       q    Type
REMARK                         _______ _______ _______ _____ _____    ______ ____
ROOT
ATOM      1  C   UNL     1      -0.168  11.075  20.217  0.00  0.00    +0.000 C 
ATOM      2  C   UNL     1      -1.226  11.075  19.143  0.00  0.00    +0.000 A 
ATOM      3  S   UNL     1      -2.671  11.988  19.197  0.00  0.00    +0.000 S 
ATOM      4  C   UNL     1      -3.021  11.473  17.594  0.00  0.00    +0.000 A 
ATOM      5  N   UNL     1      -2.163  10.630  17.056  0.00  0.00    +0.000 NA
ATOM      6  C   UNL     1      -1.166  10.360  17.963  0.00  0.00    +0.000 A 
ATOM      7  C   UNL     1      -0.057   9.416  17.653  0.00  0.00    +0.000 C 
ATOM      8  C   UNL     1       1.158   9.751  18.531  0.00  0.00    +0.000 C 
ATOM      9  N   UNL     1       0.761   9.936  19.941  0.00  0.00    +0.000 N 
ATOM     10  C   UNL     1       1.122   9.091  20.986  0.00  0.00    +0.000 C 
ATOM     11  O   UNL     1       0.861   9.324  22.162  0.00  0.00    +0.000 OA
ENDROOT
BRANCH   1  18
ATOM     12  C   UNL     1       0.676  13.180  21.578  0.00  0.00    +0.000 A 
ATOM     13  C   UNL     1       1.389  14.395  21.561  0.00  0.00    +0.000 A 
ATOM     14  C   UNL     1       2.061  14.828  20.420  0.00  0.00    +0.000 A 
ATOM     15  C   UNL     1       1.998  14.068  19.264  0.00  0.00    +0.000 A 
ATOM     16 CL   UNL     1       2.850  14.583  17.863  0.00  0.00    +0.000 Cl
ATOM     17  C   UNL     1       1.251  12.891  19.239  0.00  0.00    +0.000 A 
ATOM     18  C   UNL     1       0.574  12.413  20.389  0.00  0.00    +0.000 A 
BRANCH  12  19
ATOM     19  O   UNL     1       0.056  12.756  22.738  0.00  0.00    +0.000 OA
BRANCH  19  20
ATOM     20  C   UNL     1      -1.359  13.007  22.764  0.00  0.00    +0.000 C 
BRANCH  20  22
ATOM     21  O   UNL     1      -3.376  11.949  23.582  0.00  0.00    +0.000 OA
ATOM     22  C   UNL     1      -2.196  11.844  23.279  0.00  0.00    +0.000 C 
BRANCH  22  23
ATOM     23  O   UNL     1      -1.538  10.669  23.337  0.00  0.00    +0.000 OA
ATOM     24  H   UNL     1      -1.662  10.148  22.516  0.00  0.00    +0.000 HD
ENDBRANCH  22  23
ENDBRANCH  20  22
ENDBRANCH  19  20
ENDBRANCH  12  19
ENDBRANCH   1  18
BRANCH  10  25
ATOM     25  C   UNL     1       1.838   7.831  20.616  0.00  0.00    +0.000 C 
ATOM     26  C   UNL     1       1.251   6.626  20.672  0.00  0.00    +0.000 C 
BRANCH  26  27
ATOM     27  C   UNL     1       2.013   5.410  20.359  0.00  0.00    +0.000 A 
ATOM     28  C   UNL     1       2.695   5.311  19.137  0.00  0.00    +0.000 A 
ATOM     29  C   UNL     1       3.382   4.142  18.802  0.00  0.00    +0.000 A 
ATOM     30  C   UNL     1       3.392   3.073  19.691  0.00  0.00    +0.000 A 
ATOM     31  F   UNL     1       4.046   1.950  19.370  0.00  0.00    +0.000 F 
ATOM     32  C   UNL     1       2.727   3.155  20.910  0.00  0.00    +0.000 A 
ATOM     33  C   UNL     1       2.036   4.324  21.245  0.00  0.00    +0.000 A 
ENDBRANCH  26  27
ENDBRANCH  10  25
TORSDOF 7
ENDMDL
MODEL 5
REMARK VINA RESULT:      -7.8      1.125      1.166
REMARK  Name = 
REMARK  7 active torsions:
REMARK  status: ('A' for Active; 'I' for Inactive)
REMARK    1  A    between atoms: C_2  and  O_3
REMARK    2  A    between atoms: C_2  and  C_4
REMARK    3  A    between atoms: C_4  and  O_5
REMARK    4  A    between atoms: O_5  and  C_6
REMARK    5  A    between atoms: C_12  and  C_13
REMARK    6  A    between atoms: C_22  and  C_24
REMARK    7  A    between atoms: C_25  and  C_26
REMARK                            x       y       z     vdW  Elec       q    Type
REMARK                         _______ _______ _______ _____ _____    ______ ____
ROOT
ATOM      1  C   UNL     1       3.468   5.556  17.815  0.00  0.00    +0.000 C 
ATOM      2  C   UNL     1       2.823   4.269  18.263  0.00  0.00    +0.000 A 
ATOM      3  S   UNL     1       2.884   2.795  17.398  0.00  0.00    +0.000 S 
ATOM      4  C   UNL     1       2.100   2.022  18.719  0.00  0.00    +0.000 A 
ATOM      5  N   UNL     1       1.753   2.801  19.724  0.00  0.00    +0.000 NA
ATOM      6  C   UNL     1       2.118   4.095  19.438  0.00  0.00    +0.000 A 
ATOM      7  C   UNL     1       1.835   5.216  20.375  0.00  0.00    +0.000 C 
ATOM      8  C   UNL     1       2.824   6.361  20.116  0.00  0.00    +0.000 C 
ATOM      9  N   UNL     1       2.930   6.657  18.673  0.00  0.00    +0.000 N 
ATOM     10  C   UNL     1       2.496   7.833  18.069  0.00  0.00    +0.000 C 
ATOM     11  O   UNL     1       2.687   8.092  16.885  0.00  0.00    +0.000 OA
ENDROOT
BRANCH   1  18
ATOM     12  C   UNL     1       5.835   5.598  16.637  0.00  0.00    +0.000 A 
ATOM     13  C   UNL     1       7.236   5.550  16.787  0.00  0.00    +0.000 A 
ATOM     14  C   UNL     1       7.831   5.511  18.046  0.00  0.00    +0.000 A 
ATOM     15  C   UNL     1       7.031   5.480  19.176  0.00  0.00    +0.000 A 
ATOM     16 CL   UNL     1       7.763   5.463  20.732  0.00  0.00    +0.000 Cl
ATOM     17  C   UNL     1       5.643   5.469  19.052  0.00  0.00    +0.000 A 
ATOM     18  C   UNL     1       5.007   5.529  17.787  0.00  0.00    +0.000 A 
BRANCH  12  19
ATOM     19  O   UNL     1       5.275   5.680  15.376  0.00  0.00    +0.000 OA
BRANCH  19  20
ATOM     20  C   UNL     1       5.280   4.434  14.658  0.00  0.00    +0.000 C 
BRANCH  20  22
ATOM     21  O   UNL     1       7.279   5.140  13.490  0.00  0.00    +0.000 OA
ATOM     22  C   UNL     1       6.398   4.303  13.633  0.00  0.00    +0.000 C 
BRANCH  22  23
ATOM     23  O   UNL     1       6.364   3.162  12.916  0.00  0.00    +0.000 OA
ATOM     24  H   UNL     1       6.104   3.331  11.985  0.00  0.00    +0.000 HD
ENDBRANCH  22  23
ENDBRANCH  20  22
ENDBRANCH  19  20
ENDBRANCH  12  19
ENDBRANCH   1  18
BRANCH  10  25
ATOM     25  C   UNL     1       1.738   8.792  18.930  0.00  0.00    +0.000 C 
ATOM     26  C   UNL     1       0.806   9.622  18.436  0.00  0.00    +0.000 C 
BRANCH  26  27
ATOM     27  C   UNL     1       0.131  10.590  19.310  0.00  0.00    +0.000 A 
ATOM     28  C   UNL     1      -1.083  11.165  18.906  0.00  0.00    +0.000 A 
ATOM     29  C   UNL     1      -1.713  12.124  19.701  0.00  0.00    +0.000 A 
ATOM     30  C   UNL     1      -1.131  12.507  20.905  0.00  0.00    +0.000 A 
ATOM     31  F   UNL     1      -1.730  13.430  21.667  0.00  0.00    +0.000 F 
ATOM     32  C   UNL     1       0.069  11.944  21.326  0.00  0.00    +0.000 A 
ATOM     33  C   UNL     1       0.702  10.985  20.528  0.00  0.00    +0.000 A 
ENDBRANCH  26  27
ENDBRANCH  10  25
TORSDOF 7
ENDMDL
MODEL 6
REMARK VINA RESULT:      -7.7      5.422      9.283
REMARK  Name = 
REMARK  7 active torsions:
REMARK  status: ('A' for Active; 'I' for Inactive)
REMARK    1  A    between atoms: C_2  and  O_3
REMARK    2  A    between atoms: C_2  and  C_4
REMARK    3  A    between atoms: C_4  and  O_5
REMARK    4  A    between atoms: O_5  and  C_6
REMARK    5  A    between atoms: C_12  and  C_13
REMARK    6  A    between atoms: C_22  and  C_24
REMARK    7  A    between atoms: C_25  and  C_26
REMARK                            x       y       z     vdW  Elec       q    Type
REMARK                         _______ _______ _______ _____ _____    ______ ____
ROOT
ATOM      1  C   UNL     1      -0.427  11.083  19.878  0.00  0.00    +0.000 C 
ATOM      2  C   UNL     1      -1.524  10.975  18.848  0.00  0.00    +0.000 A 
ATOM      3  S   UNL     1      -3.012  11.815  18.917  0.00  0.00    +0.000 S 
ATOM      4  C   UNL     1      -3.395  11.204  17.356  0.00  0.00    +0.000 A 
ATOM      5  N   UNL     1      -2.515  10.378  16.825  0.00  0.00    +0.000 NA
ATOM      6  C   UNL     1      -1.472  10.205  17.703  0.00  0.00    +0.000 A 
ATOM      7  C   UNL     1      -0.328   9.305  17.394  0.00  0.00    +0.000 C 
ATOM      8  C   UNL     1       0.901   9.744  18.205  0.00  0.00    +0.000 C 
ATOM      9  N   UNL     1       0.549   9.980  19.620  0.00  0.00    +0.000 N 
ATOM     10  C   UNL     1       0.993   9.207  20.688  0.00  0.00    +0.000 C 
ATOM     11  O   UNL     1       0.766   9.487  21.861  0.00  0.00    +0.000 OA
ENDROOT
BRANCH   1  18
ATOM     12  C   UNL     1      -0.172  13.573  20.731  0.00  0.00    +0.000 A 
ATOM     13  C   UNL     1       0.560  14.775  20.678  0.00  0.00    +0.000 A 
ATOM     14  C   UNL     1       1.735  14.880  19.936  0.00  0.00    +0.000 A 
ATOM     15  C   UNL     1       2.174  13.790  19.202  0.00  0.00    +0.000 A 
ATOM     16 CL   UNL     1       3.639  13.905  18.309  0.00  0.00    +0.000 Cl
ATOM     17  C   UNL     1       1.437  12.608  19.192  0.00  0.00    +0.000 A 
ATOM     18  C   UNL     1       0.249  12.463  19.954  0.00  0.00    +0.000 A 
BRANCH  12  19
ATOM     19  O   UNL     1      -1.309  13.487  21.512  0.00  0.00    +0.000 OA
BRANCH  19  20
ATOM     20  C   UNL     1      -1.057  13.049  22.857  0.00  0.00    +0.000 C 
BRANCH  20  22
ATOM     21  O   UNL     1      -3.042  11.772  23.394  0.00  0.00    +0.000 OA
ATOM     22  C   UNL     1      -1.825  11.800  23.267  0.00  0.00    +0.000 C 
BRANCH  22  23
ATOM     23  O   UNL     1      -1.057  10.707  23.444  0.00  0.00    +0.000 OA
ATOM     24  H   UNL     1      -0.160  10.946  23.760  0.00  0.00    +0.000 HD
ENDBRANCH  22  23
ENDBRANCH  20  22
ENDBRANCH  19  20
ENDBRANCH  12  19
ENDBRANCH   1  18
BRANCH  10  25
ATOM     25  C   UNL     1       1.760   7.969  20.351  0.00  0.00    +0.000 C 
ATOM     26  C   UNL     1       1.321   6.741  20.668  0.00  0.00    +0.000 C 
BRANCH  26  27
ATOM     27  C   UNL     1       2.137   5.557  20.372  0.00  0.00    +0.000 A 
ATOM     28  C   UNL     1       1.807   4.322  20.949  0.00  0.00    +0.000 A 
ATOM     29  C   UNL     1       2.602   3.197  20.718  0.00  0.00    +0.000 A 
ATOM     30  C   UNL     1       3.725   3.305  19.905  0.00  0.00    +0.000 A 
ATOM     31  F   UNL     1       4.491   2.229  19.686  0.00  0.00    +0.000 F 
ATOM     32  C   UNL     1       4.065   4.520  19.319  0.00  0.00    +0.000 A 
ATOM     33  C   UNL     1       3.271   5.648  19.552  0.00  0.00    +0.000 A 
ENDBRANCH  26  27
ENDBRANCH  10  25
TORSDOF 7
ENDMDL
MODEL 7
REMARK VINA RESULT:      -7.6      5.434     10.109
REMARK  Name = 
REMARK  7 active torsions:
REMARK  status: ('A' for Active; 'I' for Inactive)
REMARK    1  A    between atoms: C_2  and  O_3
REMARK    2  A    between atoms: C_2  and  C_4
REMARK    3  A    between atoms: C_4  and  O_5
REMARK    4  A    between atoms: O_5  and  C_6
REMARK    5  A    between atoms: C_12  and  C_13
REMARK    6  A    between atoms: C_22  and  C_24
REMARK    7  A    between atoms: C_25  and  C_26
REMARK                            x       y       z     vdW  Elec       q    Type
REMARK                         _______ _______ _______ _____ _____    ______ ____
ROOT
ATOM      1  C   UNL     1      -0.305  11.376  19.068  0.00  0.00    +0.000 C 
ATOM      2  C   UNL     1      -0.272  12.200  20.332  0.00  0.00    +0.000 A 
ATOM      3  S   UNL     1      -0.498  13.893  20.398  0.00  0.00    +0.000 S 
ATOM      4  C   UNL     1      -0.469  13.800  22.115  0.00  0.00    +0.000 A 
ATOM      5  N   UNL     1      -0.247  12.606  22.626  0.00  0.00    +0.000 NA
ATOM      6  C   UNL     1      -0.081  11.701  21.605  0.00  0.00    +0.000 A 
ATOM      7  C   UNL     1       0.211  10.265  21.868  0.00  0.00    +0.000 C 
ATOM      8  C   UNL     1      -0.235   9.425  20.663  0.00  0.00    +0.000 C 
ATOM      9  N   UNL     1       0.234  10.020  19.395  0.00  0.00    +0.000 N 
ATOM     10  C   UNL     1       1.183   9.449  18.553  0.00  0.00    +0.000 C 
ATOM     11  O   UNL     1       1.480   9.917  17.458  0.00  0.00    +0.000 OA
ENDROOT
BRANCH   1  18
ATOM     12  C   UNL     1      -2.921  11.728  18.919  0.00  0.00    +0.000 A 
ATOM     13  C   UNL     1      -4.094  11.592  18.151  0.00  0.00    +0.000 A 
ATOM     14  C   UNL     1      -4.053  11.127  16.838  0.00  0.00    +0.000 A 
ATOM     15  C   UNL     1      -2.839  10.753  16.286  0.00  0.00    +0.000 A 
ATOM     16 CL   UNL     1      -2.781  10.207  14.657  0.00  0.00    +0.000 Cl
ATOM     17  C   UNL     1      -1.672  10.825  17.045  0.00  0.00    +0.000 A 
ATOM     18  C   UNL     1      -1.678  11.314  18.376  0.00  0.00    +0.000 A 
BRANCH  12  19
ATOM     19  O   UNL     1      -2.989  12.234  20.204  0.00  0.00    +0.000 OA
BRANCH  19  20
ATOM     20  C   UNL     1      -4.193  12.971  20.473  0.00  0.00    +0.000 C 
BRANCH  20  22
ATOM     21  O   UNL     1      -4.622  12.586  22.824  0.00  0.00    +0.000 OA
ATOM     22  C   UNL     1      -4.991  12.460  21.665  0.00  0.00    +0.000 C 
BRANCH  22  23
ATOM     23  O   UNL     1      -6.167  11.886  21.341  0.00  0.00    +0.000 OA
ATOM     24  H   UNL     1      -6.731  12.493  20.817  0.00  0.00    +0.000 HD
ENDBRANCH  22  23
ENDBRANCH  20  22
ENDBRANCH  19  20
ENDBRANCH  12  19
ENDBRANCH   1  18
BRANCH  10  25
ATOM     25  C   UNL     1       1.874   8.220  19.051  0.00  0.00    +0.000 C 
ATOM     26  C   UNL     1       2.376   7.291  18.224  0.00  0.00    +0.000 C 
BRANCH  26  27
ATOM     27  C   UNL     1       2.991   6.070  18.760  0.00  0.00    +0.000 A 
ATOM     28  C   UNL     1       4.302   5.731  18.392  0.00  0.00    +0.000 A 
ATOM     29  C   UNL     1       4.884   4.548  18.852  0.00  0.00    +0.000 A 
ATOM     30  C   UNL     1       4.158   3.704  19.685  0.00  0.00    +0.000 A 
ATOM     31  F   UNL     1       4.712   2.567  20.124  0.00  0.00    +0.000 F 
ATOM     32  C   UNL     1       2.859   4.026  20.067  0.00  0.00    +0.000 A 
ATOM     33  C   UNL     1       2.274   5.209  19.604  0.00  0.00    +0.000 A 
ENDBRANCH  26  27
ENDBRANCH  10  25
TORSDOF 7
ENDMDL
MODEL 8
REMARK VINA RESULT:      -7.5      5.537      9.771
REMARK  Name = 
REMARK  7 active torsions:
REMARK  status: ('A' for Active; 'I' for Inactive)
REMARK    1  A    between atoms: C_2  and  O_3
REMARK    2  A    between atoms: C_2  and  C_4
REMARK    3  A    between atoms: C_4  and  O_5
REMARK    4  A    between atoms: O_5  and  C_6
REMARK    5  A    between atoms: C_12  and  C_13
REMARK    6  A    between atoms: C_22  and  C_24
REMARK    7  A    between atoms: C_25  and  C_26
REMARK                            x       y       z     vdW  Elec       q    Type
REMARK                         _______ _______ _______ _____ _____    ______ ____
ROOT
ATOM      1  C   UNL     1      -0.519  10.775  20.340  0.00  0.00    +0.000 C 
ATOM      2  C   UNL     1      -1.362  10.830  19.090  0.00  0.00    +0.000 A 
ATOM      3  S   UNL     1      -2.860  11.644  18.960  0.00  0.00    +0.000 S 
ATOM      4  C   UNL     1      -2.872  11.291  17.277  0.00  0.00    +0.000 A 
ATOM      5  N   UNL     1      -1.867  10.565  16.830  0.00  0.00    +0.000 NA
ATOM      6  C   UNL     1      -1.032  10.256  17.878  0.00  0.00    +0.000 A 
ATOM      7  C   UNL     1       0.186   9.421  17.692  0.00  0.00    +0.000 C 
ATOM      8  C   UNL     1       1.191   9.727  18.812  0.00  0.00    +0.000 C 
ATOM      9  N   UNL     1       0.532   9.731  20.134  0.00  0.00    +0.000 N 
ATOM     10  C   UNL     1       0.763   8.797  21.140  0.00  0.00    +0.000 C 
ATOM     11  O   UNL     1       0.276   8.883  22.262  0.00  0.00    +0.000 OA
ENDROOT
BRANCH   1  18
ATOM     12  C   UNL     1      -0.322  12.899  21.902  0.00  0.00    +0.000 A 
ATOM     13  C   UNL     1       0.318  14.128  22.158  0.00  0.00    +0.000 A 
ATOM     14  C   UNL     1       1.382  14.570  21.374  0.00  0.00    +0.000 A 
ATOM     15  C   UNL     1       1.797  13.805  20.296  0.00  0.00    +0.000 A 
ATOM     16 CL   UNL     1       3.129  14.333  19.345  0.00  0.00    +0.000 Cl
ATOM     17  C   UNL     1       1.142  12.614  19.988  0.00  0.00    +0.000 A 
ATOM     18  C   UNL     1       0.071  12.127  20.779  0.00  0.00    +0.000 A 
BRANCH  12  19
ATOM     19  O   UNL     1      -1.346  12.467  22.724  0.00  0.00    +0.000 OA
BRANCH  19  20
ATOM     20  C   UNL     1      -1.968  13.521  23.477  0.00  0.00    +0.000 C 
BRANCH  20  22
ATOM     21  O   UNL     1      -3.940  12.146  23.754  0.00  0.00    +0.000 OA
ATOM     22  C   UNL     1      -3.331  13.163  24.053  0.00  0.00    +0.000 C 
BRANCH  22  23
ATOM     23  O   UNL     1      -3.801  14.045  24.958  0.00  0.00    +0.000 OA
ATOM     24  H   UNL     1      -4.668  13.761  25.319  0.00  0.00    +0.000 HD
ENDBRANCH  22  23
ENDBRANCH  20  22
ENDBRANCH  19  20
ENDBRANCH  12  19
ENDBRANCH   1  18
BRANCH  10  25
ATOM     25  C   UNL     1       1.632   7.632  20.790  0.00  0.00    +0.000 C 
ATOM     26  C   UNL     1       1.175   6.371  20.778  0.00  0.00    +0.000 C 
BRANCH  26  27
ATOM     27  C   UNL     1       2.081   5.251  20.489  0.00  0.00    +0.000 A 
ATOM     28  C   UNL     1       1.848   3.998  21.075  0.00  0.00    +0.000 A 
ATOM     29  C   UNL     1       2.728   2.937  20.850  0.00  0.00    +0.000 A 
ATOM     30  C   UNL     1       3.838   3.126  20.035  0.00  0.00    +0.000 A 
ATOM     31  F   UNL     1       4.685   2.111  19.822  0.00  0.00    +0.000 F 
ATOM     32  C   UNL     1       4.082   4.360  19.440  0.00  0.00    +0.000 A 
ATOM     33  C   UNL     1       3.203   5.424  19.666  0.00  0.00    +0.000 A 
ENDBRANCH  26  27
ENDBRANCH  10  25
TORSDOF 7
ENDMDL
MODEL 9
REMARK VINA RESULT:      -7.5      2.626      3.419
REMARK  Name = 
REMARK  7 active torsions:
REMARK  status: ('A' for Active; 'I' for Inactive)
REMARK    1  A    between atoms: C_2  and  O_3
REMARK    2  A    between atoms: C_2  and  C_4
REMARK    3  A    between atoms: C_4  and  O_5
REMARK    4  A    between atoms: O_5  and  C_6
REMARK    5  A    between atoms: C_12  and  C_13
REMARK    6  A    between atoms: C_22  and  C_24
REMARK    7  A    between atoms: C_25  and  C_26
REMARK                            x       y       z     vdW  Elec       q    Type
REMARK                         _______ _______ _______ _____ _____    ______ ____
ROOT
ATOM      1  C   UNL     1       2.865   5.543  17.859  0.00  0.00    +0.000 C 
ATOM      2  C   UNL     1       2.051   4.364  18.328  0.00  0.00    +0.000 A 
ATOM      3  S   UNL     1       1.735   2.965  17.397  0.00  0.00    +0.000 S 
ATOM      4  C   UNL     1       0.983   2.256  18.771  0.00  0.00    +0.000 A 
ATOM      5  N   UNL     1       0.908   3.015  19.846  0.00  0.00    +0.000 NA
ATOM      6  C   UNL     1       1.470   4.239  19.574  0.00  0.00    +0.000 A 
ATOM      7  C   UNL     1       1.513   5.326  20.590  0.00  0.00    +0.000 C 
ATOM      8  C   UNL     1       2.659   6.292  20.258  0.00  0.00    +0.000 C 
ATOM      9  N   UNL     1       2.646   6.661  18.827  0.00  0.00    +0.000 N 
ATOM     10  C   UNL     1       2.368   7.934  18.338  0.00  0.00    +0.000 C 
ATOM     11  O   UNL     1       2.462   8.235  17.152  0.00  0.00    +0.000 OA
ENDROOT
BRANCH   1  18
ATOM     12  C   UNL     1       5.218   4.516  18.492  0.00  0.00    +0.000 A 
ATOM     13  C   UNL     1       6.571   4.341  18.137  0.00  0.00    +0.000 A 
ATOM     14  C   UNL     1       7.068   4.804  16.921  0.00  0.00    +0.000 A 
ATOM     15  C   UNL     1       6.227   5.485  16.057  0.00  0.00    +0.000 A 
ATOM     16 CL   UNL     1       6.830   6.032  14.542  0.00  0.00    +0.000 Cl
ATOM     17  C   UNL     1       4.900   5.721  16.411  0.00  0.00    +0.000 A 
ATOM     18  C   UNL     1       4.358   5.245  17.631  0.00  0.00    +0.000 A 
BRANCH  12  19
ATOM     19  O   UNL     1       4.744   4.007  19.687  0.00  0.00    +0.000 OA
BRANCH  19  20
ATOM     20  C   UNL     1       4.640   2.573  19.704  0.00  0.00    +0.000 C 
BRANCH  20  22
ATOM     21  O   UNL     1       5.314   1.302  21.651  0.00  0.00    +0.000 OA
ATOM     22  C   UNL     1       4.457   1.972  21.091  0.00  0.00    +0.000 C 
BRANCH  22  23
ATOM     23  O   UNL     1       3.281   2.273  21.677  0.00  0.00    +0.000 OA
ATOM     24  H   UNL     1       2.649   1.526  21.617  0.00  0.00    +0.000 HD
ENDBRANCH  22  23
ENDBRANCH  20  22
ENDBRANCH  19  20
ENDBRANCH  12  19
ENDBRANCH   1  18
BRANCH  10  25
ATOM     25  C   UNL     1       1.909   8.952  19.332  0.00  0.00    +0.000 C 
ATOM     26  C   UNL     1       0.696   8.904  19.904  0.00  0.00    +0.000 C 
BRANCH  26  27
ATOM     27  C   UNL     1       0.264   9.961  20.828  0.00  0.00    +0.000 A 
ATOM     28  C   UNL     1      -0.361   9.616  22.036  0.00  0.00    +0.000 A 
ATOM     29  C   UNL     1      -0.823  10.609  22.903  0.00  0.00    +0.000 A 
ATOM     30  C   UNL     1      -0.655  11.948  22.565  0.00  0.00    +0.000 A 
ATOM     31  F   UNL     1      -1.101  12.901  23.393  0.00  0.00    +0.000 F 
ATOM     32  C   UNL     1      -0.031  12.309  21.376  0.00  0.00    +0.000 A 
ATOM     33  C   UNL     1       0.429  11.315  20.505  0.00  0.00    +0.000 A 
ENDBRANCH  26  27
ENDBRANCH  10  25
TORSDOF 7
ENDMDL
