MODEL 1
REMARK VINA RESULT:      -7.7      0.000      0.000
REMARK  Name = 
REMARK  7 active torsions:
REMARK  status: ('A' for Active; 'I' for Inactive)
REMARK    1  A    between atoms: C_1  and  O_2
REMARK    2  A    between atoms: O_2  and  C_3
REMARK    3  A    between atoms: C_8  and  C_9
REMARK    4  A    between atoms: C_10  and  C_11
REMARK    5  A    between atoms: C_11  and  C_13
REMARK    6  A    between atoms: C_17  and  O_18
REMARK    7  A    between atoms: C_19  and  O_20
REMARK                            x       y       z     vdW  Elec       q    Type
REMARK                         _______ _______ _______ _____ _____    ______ ____
ROOT
ATOM      1  C   UNL     1       5.423   5.082  16.128  0.00  0.00    +0.000 C 
ATOM      2  O   UNL     1       5.560   5.172  14.911  0.00  0.00    +0.000 OA
ENDROOT
BRANCH   1   3
ATOM      3  C   UNL     1       6.352   5.815  17.025  0.00  0.00    +0.000 A 
ATOM      4  C   UNL     1       6.648   7.150  16.696  0.00  0.00    +0.000 A 
ATOM      5  C   UNL     1       7.550   7.895  17.463  0.00  0.00    +0.000 A 
ATOM      6  C   UNL     1       8.180   7.309  18.562  0.00  0.00    +0.000 A 
ATOM      7  C   UNL     1       7.894   5.985  18.881  0.00  0.00    +0.000 A 
ATOM      8  C   UNL     1       6.984   5.237  18.127  0.00  0.00    +0.000 A 
BRANCH   7   9
ATOM      9  O   UNL     1       8.504   5.356  19.934  0.00  0.00    +0.000 OA
ATOM     10  H   UNL     1       9.353   4.995  19.623  0.00  0.00    +0.000 HD
ENDBRANCH   7   9
BRANCH   8  11
ATOM     11  O   UNL     1       6.778   3.936  18.487  0.00  0.00    +0.000 OA
ATOM     12  H   UNL     1       6.768   3.434  17.647  0.00  0.00    +0.000 HD
ENDBRANCH   8  11
ENDBRANCH   1   3
BRANCH   1  14
ATOM     13  C   UNL     1       3.572   4.936  17.723  0.00  0.00    +0.000 C 
ATOM     14  C   UNL     1       4.273   4.356  16.736  0.00  0.00    +0.000 C 
BRANCH  13  20
ATOM     15  C   UNL     1       1.992   4.794  19.757  0.00  0.00    +0.000 A 
ATOM     16  C   UNL     1       0.949   4.102  20.394  0.00  0.00    +0.000 A 
ATOM     17  C   UNL     1       0.419   2.936  19.841  0.00  0.00    +0.000 A 
ATOM     18  C   UNL     1       0.944   2.430  18.661  0.00  0.00    +0.000 A 
ATOM     19  C   UNL     1       1.989   3.102  18.025  0.00  0.00    +0.000 A 
ATOM     20  C   UNL     1       2.517   4.301  18.543  0.00  0.00    +0.000 A 
BRANCH  15  22
ATOM     21  C   UNL     1       1.697   7.029  20.505  0.00  0.00    +0.000 C 
ATOM     22  O   UNL     1       2.563   5.918  20.299  0.00  0.00    +0.000 OA
ENDBRANCH  15  22
ENDBRANCH  13  20
ENDBRANCH   1  14
TORSDOF 6
ENDMDL
MODEL 2
REMARK VINA RESULT:      -7.5      1.411      1.853
REMARK  Name = 
REMARK  7 active torsions:
REMARK  status: ('A' for Active; 'I' for Inactive)
REMARK    1  A    between atoms: C_1  and  O_2
REMARK    2  A    between atoms: O_2  and  C_3
REMARK    3  A    between atoms: C_8  and  C_9
REMARK    4  A    between atoms: C_10  and  C_11
REMARK    5  A    between atoms: C_11  and  C_13
REMARK    6  A    between atoms: C_17  and  O_18
REMARK    7  A    between atoms: C_19  and  O_20
REMARK                            x       y       z     vdW  Elec       q    Type
REMARK                         _______ _______ _______ _____ _____    ______ ____
ROOT
ATOM      1  C   UNL     1       5.780   4.087  16.364  0.00  0.00    +0.000 C 
ATOM      2  O   UNL     1       6.029   3.826  15.191  0.00  0.00    +0.000 OA
ENDROOT
BRANCH   1   3
ATOM      3  C   UNL     1       6.594   5.106  17.075  0.00  0.00    +0.000 A 
ATOM      4  C   UNL     1       7.399   4.661  18.138  0.00  0.00    +0.000 A 
ATOM      5  C   UNL     1       8.161   5.565  18.888  0.00  0.00    +0.000 A 
ATOM      6  C   UNL     1       8.116   6.928  18.591  0.00  0.00    +0.000 A 
ATOM      7  C   UNL     1       7.311   7.368  17.545  0.00  0.00    +0.000 A 
ATOM      8  C   UNL     1       6.556   6.470  16.782  0.00  0.00    +0.000 A 
BRANCH   7   9
ATOM      9  O   UNL     1       7.212   8.697  17.230  0.00  0.00    +0.000 OA
ATOM     10  H   UNL     1       7.199   8.780  16.260  0.00  0.00    +0.000 HD
ENDBRANCH   7   9
BRANCH   8  11
ATOM     11  O   UNL     1       5.770   6.982  15.790  0.00  0.00    +0.000 OA
ATOM     12  H   UNL     1       4.983   6.402  15.759  0.00  0.00    +0.000 HD
ENDBRANCH   8  11
ENDBRANCH   1   3
BRANCH   1  14
ATOM     13  C   UNL     1       3.708   4.315  17.646  0.00  0.00    +0.000 C 
ATOM     14  C   UNL     1       4.604   3.501  17.065  0.00  0.00    +0.000 C 
BRANCH  13  20
ATOM     15  C   UNL     1       2.125   4.587  19.665  0.00  0.00    +0.000 A 
ATOM     16  C   UNL     1       1.004   4.102  20.359  0.00  0.00    +0.000 A 
ATOM     17  C   UNL     1       0.331   2.960  19.924  0.00  0.00    +0.000 A 
ATOM     18  C   UNL     1       0.787   2.270  18.810  0.00  0.00    +0.000 A 
ATOM     19  C   UNL     1       1.908   2.736  18.120  0.00  0.00    +0.000 A 
ATOM     20  C   UNL     1       2.582   3.907  18.516  0.00  0.00    +0.000 A 
BRANCH  15  22
ATOM     21  C   UNL     1       2.238   6.952  19.853  0.00  0.00    +0.000 C 
ATOM     22  O   UNL     1       2.833   5.681  20.093  0.00  0.00    +0.000 OA
ENDBRANCH  15  22
ENDBRANCH  13  20
ENDBRANCH   1  14
TORSDOF 6
ENDMDL
MODEL 3
REMARK VINA RESULT:      -7.4      1.841      6.341
REMARK  Name = 
REMARK  7 active torsions:
REMARK  status: ('A' for Active; 'I' for Inactive)
REMARK    1  A    between atoms: C_1  and  O_2
REMARK    2  A    between atoms: O_2  and  C_3
REMARK    3  A    between atoms: C_8  and  C_9
REMARK    4  A    between atoms: C_10  and  C_11
REMARK    5  A    between atoms: C_11  and  C_13
REMARK    6  A    between atoms: C_17  and  O_18
REMARK    7  A    between atoms: C_19  and  O_20
REMARK                            x       y       z     vdW  Elec       q    Type
REMARK                         _______ _______ _______ _____ _____    ______ ____
ROOT
ATOM      1  C   UNL     1       2.517   6.269  19.132  0.00  0.00    +0.000 C 
ATOM      2  O   UNL     1       2.071   7.319  19.586  0.00  0.00    +0.000 OA
ENDROOT
BRANCH   1   3
ATOM      3  C   UNL     1       1.999   4.974  19.641  0.00  0.00    +0.000 A 
ATOM      4  C   UNL     1       2.247   4.666  20.990  0.00  0.00    +0.000 A 
ATOM      5  C   UNL     1       1.832   3.445  21.535  0.00  0.00    +0.000 A 
ATOM      6  C   UNL     1       1.176   2.511  20.732  0.00  0.00    +0.000 A 
ATOM      7  C   UNL     1       0.940   2.813  19.395  0.00  0.00    +0.000 A 
ATOM      8  C   UNL     1       1.341   4.036  18.845  0.00  0.00    +0.000 A 
BRANCH   7   9
ATOM      9  O   UNL     1       0.323   1.920  18.558  0.00  0.00    +0.000 OA
ATOM     10  H   UNL     1       0.154   2.366  17.710  0.00  0.00    +0.000 HD
ENDBRANCH   7   9
BRANCH   8  11
ATOM     11  O   UNL     1       1.098   4.247  17.518  0.00  0.00    +0.000 OA
ATOM     12  H   UNL     1       0.930   5.207  17.436  0.00  0.00    +0.000 HD
ENDBRANCH   8  11
ENDBRANCH   1   3
BRANCH   1  14
ATOM     13  C   UNL     1       4.277   5.188  17.819  0.00  0.00    +0.000 C 
ATOM     14  C   UNL     1       3.478   6.253  17.994  0.00  0.00    +0.000 C 
BRANCH  13  20
ATOM     15  C   UNL     1       6.731   4.753  17.156  0.00  0.00    +0.000 A 
ATOM     16  C   UNL     1       7.669   4.628  16.117  0.00  0.00    +0.000 A 
ATOM     17  C   UNL     1       7.292   4.811  14.786  0.00  0.00    +0.000 A 
ATOM     18  C   UNL     1       5.982   5.151  14.479  0.00  0.00    +0.000 A 
ATOM     19  C   UNL     1       5.045   5.290  15.504  0.00  0.00    +0.000 A 
ATOM     20  C   UNL     1       5.391   5.074  16.852  0.00  0.00    +0.000 A 
BRANCH  15  22
ATOM     21  C   UNL     1       7.738   5.739  19.068  0.00  0.00    +0.000 C 
ATOM     22  O   UNL     1       7.082   4.622  18.476  0.00  0.00    +0.000 OA
ENDBRANCH  15  22
ENDBRANCH  13  20
ENDBRANCH   1  14
TORSDOF 6
ENDMDL
MODEL 4
REMARK VINA RESULT:      -7.4      3.704      7.667
REMARK  Name = 
REMARK  7 active torsions:
REMARK  status: ('A' for Active; 'I' for Inactive)
REMARK    1  A    between atoms: C_1  and  O_2
REMARK    2  A    between atoms: O_2  and  C_3
REMARK    3  A    between atoms: C_8  and  C_9
REMARK    4  A    between atoms: C_10  and  C_11
REMARK    5  A    between atoms: C_11  and  C_13
REMARK    6  A    between atoms: C_17  and  O_18
REMARK    7  A    between atoms: C_19  and  O_20
REMARK                            x       y       z     vdW  Elec       q    Type
REMARK                         _______ _______ _______ _____ _____    ______ ____
ROOT
ATOM      1  C   UNL     1       7.934   7.009  18.293  0.00  0.00    +0.000 C 
ATOM      2  O   UNL     1       8.319   6.388  19.280  0.00  0.00    +0.000 OA
ENDROOT
BRANCH   1   3
ATOM      3  C   UNL     1       7.004   6.356  17.337  0.00  0.00    +0.000 A 
ATOM      4  C   UNL     1       5.924   7.121  16.862  0.00  0.00    +0.000 A 
ATOM      5  C   UNL     1       4.977   6.565  15.994  0.00  0.00    +0.000 A 
ATOM      6  C   UNL     1       5.091   5.231  15.601  0.00  0.00    +0.000 A 
ATOM      7  C   UNL     1       6.155   4.472  16.079  0.00  0.00    +0.000 A 
ATOM      8  C   UNL     1       7.113   5.023  16.937  0.00  0.00    +0.000 A 
BRANCH   7   9
ATOM      9  O   UNL     1       6.298   3.151  15.743  0.00  0.00    +0.000 OA
ATOM     10  H   UNL     1       5.906   2.613  16.454  0.00  0.00    +0.000 HD
ENDBRANCH   7   9
BRANCH   8  11
ATOM     11  O   UNL     1       8.111   4.206  17.384  0.00  0.00    +0.000 OA
ATOM     12  H   UNL     1       7.702   3.659  18.084  0.00  0.00    +0.000 HD
ENDBRANCH   8  11
ENDBRANCH   1   3
BRANCH   1  14
ATOM     13  C   UNL     1       8.992   9.093  19.017  0.00  0.00    +0.000 C 
ATOM     14  C   UNL     1       8.275   8.443  18.086  0.00  0.00    +0.000 C 
BRANCH  13  20
ATOM     15  C   UNL     1       9.268  11.369  20.198  0.00  0.00    +0.000 A 
ATOM     16  C   UNL     1       9.614  12.725  20.081  0.00  0.00    +0.000 A 
ATOM     17  C   UNL     1       9.974  13.269  18.847  0.00  0.00    +0.000 A 
ATOM     18  C   UNL     1       9.963  12.472  17.711  0.00  0.00    +0.000 A 
ATOM     19  C   UNL     1       9.608  11.126  17.814  0.00  0.00    +0.000 A 
ATOM     20  C   UNL     1       9.277  10.544  19.054  0.00  0.00    +0.000 A 
BRANCH  15  22
ATOM     21  C   UNL     1       8.365  11.723  22.366  0.00  0.00    +0.000 C 
ATOM     22  O   UNL     1       8.867  10.818  21.390  0.00  0.00    +0.000 OA
ENDBRANCH  15  22
ENDBRANCH  13  20
ENDBRANCH   1  14
TORSDOF 6
ENDMDL
MODEL 5
REMARK VINA RESULT:      -7.3      1.651      6.239
REMARK  Name = 
REMARK  7 active torsions:
REMARK  status: ('A' for Active; 'I' for Inactive)
REMARK    1  A    between atoms: C_1  and  O_2
REMARK    2  A    between atoms: O_2  and  C_3
REMARK    3  A    between atoms: C_8  and  C_9
REMARK    4  A    between atoms: C_10  and  C_11
REMARK    5  A    between atoms: C_11  and  C_13
REMARK    6  A    between atoms: C_17  and  O_18
REMARK    7  A    between atoms: C_19  and  O_20
REMARK                            x       y       z     vdW  Elec       q    Type
REMARK                         _______ _______ _______ _____ _____    ______ ____
ROOT
ATOM      1  C   UNL     1       2.678   6.091  18.814  0.00  0.00    +0.000 C 
ATOM      2  O   UNL     1       2.327   7.121  19.385  0.00  0.00    +0.000 OA
ENDROOT
BRANCH   1   3
ATOM      3  C   UNL     1       2.112   4.788  19.246  0.00  0.00    +0.000 A 
ATOM      4  C   UNL     1       1.491   3.996  18.264  0.00  0.00    +0.000 A 
ATOM      5  C   UNL     1       0.893   2.776  18.597  0.00  0.00    +0.000 A 
ATOM      6  C   UNL     1       0.895   2.339  19.923  0.00  0.00    +0.000 A 
ATOM      7  C   UNL     1       1.501   3.127  20.896  0.00  0.00    +0.000 A 
ATOM      8  C   UNL     1       2.112   4.343  20.569  0.00  0.00    +0.000 A 
BRANCH   7   9
ATOM      9  O   UNL     1       1.508   2.755  22.214  0.00  0.00    +0.000 OA
ATOM     10  H   UNL     1       2.319   2.244  22.382  0.00  0.00    +0.000 HD
ENDBRANCH   7   9
BRANCH   8  11
ATOM     11  O   UNL     1       2.661   5.072  21.584  0.00  0.00    +0.000 OA
ATOM     12  H   UNL     1       3.277   5.695  21.151  0.00  0.00    +0.000 HD
ENDBRANCH   8  11
ENDBRANCH   1   3
BRANCH   1  14
ATOM     13  C   UNL     1       4.310   5.045  17.322  0.00  0.00    +0.000 C 
ATOM     14  C   UNL     1       3.563   6.120  17.617  0.00  0.00    +0.000 C 
BRANCH  13  20
ATOM     15  C   UNL     1       6.708   5.341  16.417  0.00  0.00    +0.000 A 
ATOM     16  C   UNL     1       7.597   5.149  15.347  0.00  0.00    +0.000 A 
ATOM     17  C   UNL     1       7.164   4.580  14.148  0.00  0.00    +0.000 A 
ATOM     18  C   UNL     1       5.832   4.225  13.993  0.00  0.00    +0.000 A 
ATOM     19  C   UNL     1       4.937   4.423  15.045  0.00  0.00    +0.000 A 
ATOM     20  C   UNL     1       5.356   4.961  16.278  0.00  0.00    +0.000 A 
BRANCH  15  22
ATOM     21  C   UNL     1       7.415   7.323  17.517  0.00  0.00    +0.000 C 
ATOM     22  O   UNL     1       7.094   5.938  17.590  0.00  0.00    +0.000 OA
ENDBRANCH  15  22
ENDBRANCH  13  20
ENDBRANCH   1  14
TORSDOF 6
ENDMDL
MODEL 6
REMARK VINA RESULT:      -7.2      2.967      5.553
REMARK  Name = 
REMARK  7 active torsions:
REMARK  status: ('A' for Active; 'I' for Inactive)
REMARK    1  A    between atoms: C_1  and  O_2
REMARK    2  A    between atoms: O_2  and  C_3
REMARK    3  A    between atoms: C_8  and  C_9
REMARK    4  A    between atoms: C_10  and  C_11
REMARK    5  A    between atoms: C_11  and  C_13
REMARK    6  A    between atoms: C_17  and  O_18
REMARK    7  A    between atoms: C_19  and  O_20
REMARK                            x       y       z     vdW  Elec       q    Type
REMARK                         _______ _______ _______ _____ _____    ______ ____
ROOT
ATOM      1  C   UNL     1       3.661   5.621  18.996  0.00  0.00    +0.000 C 
ATOM      2  O   UNL     1       4.762   5.776  19.517  0.00  0.00    +0.000 OA
ENDROOT
BRANCH   1   3
ATOM      3  C   UNL     1       3.145   4.246  18.772  0.00  0.00    +0.000 A 
ATOM      4  C   UNL     1       1.753   4.091  18.652  0.00  0.00    +0.000 A 
ATOM      5  C   UNL     1       1.184   2.823  18.486  0.00  0.00    +0.000 A 
ATOM      6  C   UNL     1       2.001   1.692  18.450  0.00  0.00    +0.000 A 
ATOM      7  C   UNL     1       3.378   1.847  18.579  0.00  0.00    +0.000 A 
ATOM      8  C   UNL     1       3.956   3.111  18.733  0.00  0.00    +0.000 A 
BRANCH   7   9
ATOM      9  O   UNL     1       4.221   0.767  18.576  0.00  0.00    +0.000 OA
ATOM     10  H   UNL     1       4.817   0.845  19.341  0.00  0.00    +0.000 HD
ENDBRANCH   7   9
BRANCH   8  11
ATOM     11  O   UNL     1       5.312   3.178  18.880  0.00  0.00    +0.000 OA
ATOM     12  H   UNL     1       5.458   3.437  19.811  0.00  0.00    +0.000 HD
ENDBRANCH   8  11
ENDBRANCH   1   3
BRANCH   1  14
ATOM     13  C   UNL     1       2.364   7.578  19.686  0.00  0.00    +0.000 C 
ATOM     14  C   UNL     1       2.769   6.774  18.691  0.00  0.00    +0.000 C 
BRANCH  13  20
ATOM     15  C   UNL     1       0.628   9.218  20.662  0.00  0.00    +0.000 A 
ATOM     16  C   UNL     1      -0.258  10.280  20.419  0.00  0.00    +0.000 A 
ATOM     17  C   UNL     1      -0.424  10.796  19.133  0.00  0.00    +0.000 A 
ATOM     18  C   UNL     1       0.270  10.236  18.069  0.00  0.00    +0.000 A 
ATOM     19  C   UNL     1       1.143   9.171  18.297  0.00  0.00    +0.000 A 
ATOM     20  C   UNL     1       1.357   8.658  19.591  0.00  0.00    +0.000 A 
BRANCH  15  22
ATOM     21  C   UNL     1       0.246   9.406  22.999  0.00  0.00    +0.000 C 
ATOM     22  O   UNL     1       0.778   8.662  21.907  0.00  0.00    +0.000 OA
ENDBRANCH  15  22
ENDBRANCH  13  20
ENDBRANCH   1  14
TORSDOF 6
ENDMDL
MODEL 7
REMARK VINA RESULT:      -7.2      3.300      5.880
REMARK  Name = 
REMARK  7 active torsions:
REMARK  status: ('A' for Active; 'I' for Inactive)
REMARK    1  A    between atoms: C_1  and  O_2
REMARK    2  A    between atoms: O_2  and  C_3
REMARK    3  A    between atoms: C_8  and  C_9
REMARK    4  A    between atoms: C_10  and  C_11
REMARK    5  A    between atoms: C_11  and  C_13
REMARK    6  A    between atoms: C_17  and  O_18
REMARK    7  A    between atoms: C_19  and  O_20
REMARK                            x       y       z     vdW  Elec       q    Type
REMARK                         _______ _______ _______ _____ _____    ______ ____
ROOT
ATOM      1  C   UNL     1       3.229   5.470  19.637  0.00  0.00    +0.000 C 
ATOM      2  O   UNL     1       4.405   5.813  19.558  0.00  0.00    +0.000 OA
ENDROOT
BRANCH   1   3
ATOM      3  C   UNL     1       2.836   4.105  19.203  0.00  0.00    +0.000 A 
ATOM      4  C   UNL     1       1.462   3.849  19.045  0.00  0.00    +0.000 A 
ATOM      5  C   UNL     1       1.006   2.576  18.683  0.00  0.00    +0.000 A 
ATOM      6  C   UNL     1       1.920   1.539  18.488  0.00  0.00    +0.000 A 
ATOM      7  C   UNL     1       3.278   1.791  18.654  0.00  0.00    +0.000 A 
ATOM      8  C   UNL     1       3.743   3.064  19.003  0.00  0.00    +0.000 A 
BRANCH   7   9
ATOM      9  O   UNL     1       4.213   0.801  18.499  0.00  0.00    +0.000 OA
ATOM     10  H   UNL     1       4.902   0.926  19.174  0.00  0.00    +0.000 HD
ENDBRANCH   7   9
BRANCH   8  11
ATOM     11  O   UNL     1       5.088   3.225  19.174  0.00  0.00    +0.000 OA
ATOM     12  H   UNL     1       5.387   2.418  19.640  0.00  0.00    +0.000 HD
ENDBRANCH   8  11
ENDBRANCH   1   3
BRANCH   1  14
ATOM     13  C   UNL     1       2.080   7.617  19.877  0.00  0.00    +0.000 C 
ATOM     14  C   UNL     1       2.199   6.339  20.271  0.00  0.00    +0.000 C 
BRANCH  13  20
ATOM     15  C   UNL     1       0.601   9.731  19.845  0.00  0.00    +0.000 A 
ATOM     16  C   UNL     1      -0.219  10.608  20.573  0.00  0.00    +0.000 A 
ATOM     17  C   UNL     1      -0.423  10.428  21.942  0.00  0.00    +0.000 A 
ATOM     18  C   UNL     1       0.213   9.389  22.606  0.00  0.00    +0.000 A 
ATOM     19  C   UNL     1       1.040   8.518  21.894  0.00  0.00    +0.000 A 
ATOM     20  C   UNL     1       1.233   8.656  20.505  0.00  0.00    +0.000 A 
BRANCH  15  22
ATOM     21  C   UNL     1       1.856  10.866  18.179  0.00  0.00    +0.000 C 
ATOM     22  O   UNL     1       0.856   9.908  18.509  0.00  0.00    +0.000 OA
ENDBRANCH  15  22
ENDBRANCH  13  20
ENDBRANCH   1  14
TORSDOF 6
ENDMDL
MODEL 8
REMARK VINA RESULT:      -7.2      2.977      6.186
REMARK  Name = 
REMARK  7 active torsions:
REMARK  status: ('A' for Active; 'I' for Inactive)
REMARK    1  A    between atoms: C_1  and  O_2
REMARK    2  A    between atoms: O_2  and  C_3
REMARK    3  A    between atoms: C_8  and  C_9
REMARK    4  A    between atoms: C_10  and  C_11
REMARK    5  A    between atoms: C_11  and  C_13
REMARK    6  A    between atoms: C_17  and  O_18
REMARK    7  A    between atoms: C_19  and  O_20
REMARK                            x       y       z     vdW  Elec       q    Type
REMARK                         _______ _______ _______ _____ _____    ______ ____
ROOT
ATOM      1  C   UNL     1       2.198   8.276  18.370  0.00  0.00    +0.000 C 
ATOM      2  O   UNL     1       2.388   8.892  17.325  0.00  0.00    +0.000 OA
ENDROOT
BRANCH   1   3
ATOM      3  C   UNL     1       1.358   8.884  19.433  0.00  0.00    +0.000 A 
ATOM      4  C   UNL     1       1.438   8.320  20.719  0.00  0.00    +0.000 A 
ATOM      5  C   UNL     1       0.645   8.804  21.766  0.00  0.00    +0.000 A 
ATOM      6  C   UNL     1      -0.249   9.851  21.535  0.00  0.00    +0.000 A 
ATOM      7  C   UNL     1      -0.334  10.401  20.260  0.00  0.00    +0.000 A 
ATOM      8  C   UNL     1       0.464   9.931  19.211  0.00  0.00    +0.000 A 
BRANCH   7   9
ATOM      9  O   UNL     1      -1.214  11.413  19.976  0.00  0.00    +0.000 OA
ATOM     10  H   UNL     1      -1.720  11.162  19.183  0.00  0.00    +0.000 HD
ENDBRANCH   7   9
BRANCH   8  11
ATOM     11  O   UNL     1       0.302  10.505  17.983  0.00  0.00    +0.000 OA
ATOM     12  H   UNL     1       1.052  10.180  17.446  0.00  0.00    +0.000 HD
ENDBRANCH   8  11
ENDBRANCH   1   3
BRANCH   1  14
ATOM     13  C   UNL     1       2.138   5.888  17.839  0.00  0.00    +0.000 C 
ATOM     14  C   UNL     1       2.685   6.882  18.558  0.00  0.00    +0.000 C 
BRANCH  13  20
ATOM     15  C   UNL     1       3.510   3.721  17.564  0.00  0.00    +0.000 A 
ATOM     16  C   UNL     1       3.623   2.352  17.855  0.00  0.00    +0.000 A 
ATOM     17  C   UNL     1       2.637   1.690  18.588  0.00  0.00    +0.000 A 
ATOM     18  C   UNL     1       1.511   2.382  19.013  0.00  0.00    +0.000 A 
ATOM     19  C   UNL     1       1.382   3.740  18.719  0.00  0.00    +0.000 A 
ATOM     20  C   UNL     1       2.381   4.439  18.013  0.00  0.00    +0.000 A 
BRANCH  15  22
ATOM     21  C   UNL     1       5.730   4.548  17.392  0.00  0.00    +0.000 C 
ATOM     22  O   UNL     1       4.441   4.387  16.808  0.00  0.00    +0.000 OA
ENDBRANCH  15  22
ENDBRANCH  13  20
ENDBRANCH   1  14
TORSDOF 6
ENDMDL
MODEL 9
REMARK VINA RESULT:      -7.2      2.544      4.280
REMARK  Name = 
REMARK  7 active torsions:
REMARK  status: ('A' for Active; 'I' for Inactive)
REMARK    1  A    between atoms: C_1  and  O_2
REMARK    2  A    between atoms: O_2  and  C_3
REMARK    3  A    between atoms: C_8  and  C_9
REMARK    4  A    between atoms: C_10  and  C_11
REMARK    5  A    between atoms: C_11  and  C_13
REMARK    6  A    between atoms: C_17  and  O_18
REMARK    7  A    between atoms: C_19  and  O_20
REMARK                            x       y       z     vdW  Elec       q    Type
REMARK                         _______ _______ _______ _____ _____    ______ ____
ROOT
ATOM      1  C   UNL     1       5.265   4.287  16.048  0.00  0.00    +0.000 C 
ATOM      2  O   UNL     1       5.065   3.173  16.525  0.00  0.00    +0.000 OA
ENDROOT
BRANCH   1   3
ATOM      3  C   UNL     1       5.970   4.409  14.747  0.00  0.00    +0.000 A 
ATOM      4  C   UNL     1       5.471   3.654  13.670  0.00  0.00    +0.000 A 
ATOM      5  C   UNL     1       6.105   3.677  12.423  0.00  0.00    +0.000 A 
ATOM      6  C   UNL     1       7.256   4.445  12.241  0.00  0.00    +0.000 A 
ATOM      7  C   UNL     1       7.755   5.183  13.310  0.00  0.00    +0.000 A 
ATOM      8  C   UNL     1       7.120   5.176  14.557  0.00  0.00    +0.000 A 
BRANCH   7   9
ATOM      9  O   UNL     1       8.896   5.933  13.191  0.00  0.00    +0.000 OA
ATOM     10  H   UNL     1       9.643   5.404  13.521  0.00  0.00    +0.000 HD
ENDBRANCH   7   9
BRANCH   8  11
ATOM     11  O   UNL     1       7.685   5.904  15.563  0.00  0.00    +0.000 OA
ATOM     12  H   UNL     1       8.628   5.995  15.318  0.00  0.00    +0.000 HD
ENDBRANCH   8  11
ENDBRANCH   1   3
BRANCH   1  14
ATOM     13  C   UNL     1       3.806   5.411  17.660  0.00  0.00    +0.000 C 
ATOM     14  C   UNL     1       4.712   5.519  16.675  0.00  0.00    +0.000 C 
BRANCH  13  20
ATOM     15  C   UNL     1       2.503   6.537  19.581  0.00  0.00    +0.000 A 
ATOM     16  C   UNL     1       1.841   7.686  20.043  0.00  0.00    +0.000 A 
ATOM     17  C   UNL     1       1.710   8.813  19.230  0.00  0.00    +0.000 A 
ATOM     18  C   UNL     1       2.210   8.794  17.936  0.00  0.00    +0.000 A 
ATOM     19  C   UNL     1       2.859   7.652  17.462  0.00  0.00    +0.000 A 
ATOM     20  C   UNL     1       3.038   6.516  18.275  0.00  0.00    +0.000 A 
BRANCH  15  22
ATOM     21  C   UNL     1       1.394   4.714  20.623  0.00  0.00    +0.000 C 
ATOM     22  O   UNL     1       2.609   5.399  20.341  0.00  0.00    +0.000 OA
ENDBRANCH  15  22
ENDBRANCH  13  20
ENDBRANCH   1  14
TORSDOF 6
ENDMDL
