MODEL 1
REMARK VINA RESULT:      -8.6      0.000      0.000
REMARK  Name = 
REMARK  6 active torsions:
REMARK  status: ('A' for Active; 'I' for Inactive)
REMARK    1  A    between atoms: C_1  and  C_2
REMARK    2  A    between atoms: C_2  and  C_3
REMARK    3  A    between atoms: C_9  and  S_10
REMARK    4  A    between atoms: C_12  and  O_13
REMARK    5  A    between atoms: C_15  and  C_16
REMARK    6  A    between atoms: C_23  and  O_24
REMARK                            x       y       z     vdW  Elec       q    Type
REMARK                         _______ _______ _______ _____ _____    ______ ____
ROOT
ATOM      1  C   UNL     1       5.983   3.697  15.975  0.00  0.00    +0.000 C 
ATOM      2  C   UNL     1       6.226   5.187  16.303  0.00  0.00    +0.000 C 
ATOM      3  C   UNL     1       7.349   5.699  15.377  0.00  0.00    +0.000 C 
ATOM      4  C   UNL     1       4.937   5.994  16.025  0.00  0.00    +0.000 C 
ATOM      5  C   UNL     1       4.185   6.512  17.240  0.00  0.00    +0.000 C 
ATOM      6  N   UNL     1       3.312   7.456  17.047  0.00  0.00    +0.000 NA
ATOM      7  C   UNL     1       2.574   7.942  18.135  0.00  0.00    +0.000 A 
ATOM      8  N   UNL     1       1.855   9.049  17.883  0.00  0.00    +0.000 NA
ATOM      9  C   UNL     1       1.136   9.535  18.903  0.00  0.00    +0.000 A 
ATOM     10  N   UNL     1       1.106   9.033  20.147  0.00  0.00    +0.000 NA
ATOM     11  C   UNL     1       1.828   7.927  20.321  0.00  0.00    +0.000 A 
ATOM     12  C   UNL     1       2.572   7.309  19.358  0.00  0.00    +0.000 A 
ATOM     13  C   UNL     1       3.280   6.007  19.534  0.00  0.00    +0.000 C 
ATOM     14  C   UNL     1       4.425   5.867  18.564  0.00  0.00    +0.000 C 
ATOM     15  C   UNL     1       5.623   5.305  18.781  0.00  0.00    +0.000 C 
ATOM     16  C   UNL     1       6.719   5.317  17.759  0.00  0.00    +0.000 C 
ENDROOT
BRANCH  13  17
ATOM     17  C   UNL     1       2.326   4.817  19.426  0.00  0.00    +0.000 A 
ATOM     18  C   UNL     1       1.929   4.304  18.176  0.00  0.00    +0.000 A 
ATOM     19  C   UNL     1       1.061   3.216  18.092  0.00  0.00    +0.000 A 
ATOM     20  C   UNL     1       0.577   2.624  19.253  0.00  0.00    +0.000 A 
ATOM     21  C   UNL     1       0.958   3.121  20.499  0.00  0.00    +0.000 A 
ATOM     22  C   UNL     1       1.825   4.211  20.587  0.00  0.00    +0.000 A 
ENDBRANCH  13  17
BRANCH   9  23
ATOM     23  S   UNL     1       0.110  10.936  18.577  0.00  0.00    +0.000 S 
ATOM     24  H   UNL     1      -0.838  10.557  19.442  0.00  0.00    +0.000 HD
ENDBRANCH   9  23
BRANCH  11  25
ATOM     25  O   UNL     1       1.778   7.437  21.587  0.00  0.00    +0.000 OA
ATOM     26  H   UNL     1       2.722   7.457  21.828  0.00  0.00    +0.000 HD
ENDBRANCH  11  25
BRANCH  15  27
ATOM     27  O   UNL     1       5.983   4.693  19.965  0.00  0.00    +0.000 OA
ATOM     28  H   UNL     1       5.948   5.322  20.703  0.00  0.00    +0.000 HD
ENDBRANCH  15  27
TORSDOF 4
ENDMDL
MODEL 2
REMARK VINA RESULT:      -6.9      2.052      4.777
REMARK  Name = 
REMARK  6 active torsions:
REMARK  status: ('A' for Active; 'I' for Inactive)
REMARK    1  A    between atoms: C_1  and  C_2
REMARK    2  A    between atoms: C_2  and  C_3
REMARK    3  A    between atoms: C_9  and  S_10
REMARK    4  A    between atoms: C_12  and  O_13
REMARK    5  A    between atoms: C_15  and  C_16
REMARK    6  A    between atoms: C_23  and  O_24
REMARK                            x       y       z     vdW  Elec       q    Type
REMARK                         _______ _______ _______ _____ _____    ______ ____
ROOT
ATOM      1  C   UNL     1       3.360   2.070  20.991  0.00  0.00    +0.000 C 
ATOM      2  C   UNL     1       2.003   2.806  21.043  0.00  0.00    +0.000 C 
ATOM      3  C   UNL     1       1.075   2.025  21.996  0.00  0.00    +0.000 C 
ATOM      4  C   UNL     1       2.211   4.233  21.601  0.00  0.00    +0.000 C 
ATOM      5  C   UNL     1       2.067   5.378  20.611  0.00  0.00    +0.000 C 
ATOM      6  N   UNL     1       1.901   6.573  21.097  0.00  0.00    +0.000 NA
ATOM      7  C   UNL     1       1.794   7.661  20.220  0.00  0.00    +0.000 A 
ATOM      8  N   UNL     1       1.417   8.816  20.794  0.00  0.00    +0.000 NA
ATOM      9  C   UNL     1       1.310   9.875  19.983  0.00  0.00    +0.000 A 
ATOM     10  N   UNL     1       1.510   9.866  18.656  0.00  0.00    +0.000 NA
ATOM     11  C   UNL     1       1.896   8.693  18.157  0.00  0.00    +0.000 A 
ATOM     12  C   UNL     1       2.082   7.549  18.879  0.00  0.00    +0.000 A 
ATOM     13  C   UNL     1       2.628   6.274  18.328  0.00  0.00    +0.000 C 
ATOM     14  C   UNL     1       2.199   5.090  19.154  0.00  0.00    +0.000 C 
ATOM     15  C   UNL     1       1.866   3.864  18.723  0.00  0.00    +0.000 C 
ATOM     16  C   UNL     1       1.359   2.794  19.642  0.00  0.00    +0.000 C 
ENDROOT
BRANCH  13  17
ATOM     17  C   UNL     1       4.150   6.317  18.186  0.00  0.00    +0.000 A 
ATOM     18  C   UNL     1       4.771   7.020  17.134  0.00  0.00    +0.000 A 
ATOM     19  C   UNL     1       6.160   7.054  17.018  0.00  0.00    +0.000 A 
ATOM     20  C   UNL     1       6.949   6.387  17.948  0.00  0.00    +0.000 A 
ATOM     21  C   UNL     1       6.351   5.685  18.994  0.00  0.00    +0.000 A 
ATOM     22  C   UNL     1       4.961   5.647  19.112  0.00  0.00    +0.000 A 
ENDBRANCH  13  17
BRANCH   9  23
ATOM     23  S   UNL     1       0.905  11.427  20.724  0.00  0.00    +0.000 S 
ATOM     24  H   UNL     1       0.937  12.092  19.563  0.00  0.00    +0.000 HD
ENDBRANCH   9  23
BRANCH  11  25
ATOM     25  O   UNL     1       2.096   8.712  16.813  0.00  0.00    +0.000 OA
ATOM     26  H   UNL     1       1.603   9.516  16.567  0.00  0.00    +0.000 HD
ENDBRANCH  11  25
BRANCH  15  27
ATOM     27  O   UNL     1       1.924   3.471  17.401  0.00  0.00    +0.000 OA
ATOM     28  H   UNL     1       2.790   3.682  17.015  0.00  0.00    +0.000 HD
ENDBRANCH  15  27
TORSDOF 4
ENDMDL
MODEL 3
REMARK VINA RESULT:      -6.6      6.918      9.889
REMARK  Name = 
REMARK  6 active torsions:
REMARK  status: ('A' for Active; 'I' for Inactive)
REMARK    1  A    between atoms: C_1  and  C_2
REMARK    2  A    between atoms: C_2  and  C_3
REMARK    3  A    between atoms: C_9  and  S_10
REMARK    4  A    between atoms: C_12  and  O_13
REMARK    5  A    between atoms: C_15  and  C_16
REMARK    6  A    between atoms: C_23  and  O_24
REMARK                            x       y       z     vdW  Elec       q    Type
REMARK                         _______ _______ _______ _____ _____    ______ ____
ROOT
ATOM      1  C   UNL     1      -2.747  14.490  23.717  0.00  0.00    +0.000 C 
ATOM      2  C   UNL     1      -3.491  13.226  23.232  0.00  0.00    +0.000 C 
ATOM      3  C   UNL     1      -4.801  13.108  24.038  0.00  0.00    +0.000 C 
ATOM      4  C   UNL     1      -3.835  13.372  21.732  0.00  0.00    +0.000 C 
ATOM      5  C   UNL     1      -3.049  12.499  20.766  0.00  0.00    +0.000 C 
ATOM      6  N   UNL     1      -3.530  12.347  19.568  0.00  0.00    +0.000 NA
ATOM      7  C   UNL     1      -2.823  11.575  18.637  0.00  0.00    +0.000 A 
ATOM      8  N   UNL     1      -3.491  11.302  17.504  0.00  0.00    +0.000 NA
ATOM      9  C   UNL     1      -2.839  10.569  16.592  0.00  0.00    +0.000 A 
ATOM     10  N   UNL     1      -1.604  10.063  16.734  0.00  0.00    +0.000 NA
ATOM     11  C   UNL     1      -0.996  10.386  17.874  0.00  0.00    +0.000 A 
ATOM     12  C   UNL     1      -1.531  11.157  18.865  0.00  0.00    +0.000 A 
ATOM     13  C   UNL     1      -0.796  11.610  20.083  0.00  0.00    +0.000 C 
ATOM     14  C   UNL     1      -1.744  11.931  21.210  0.00  0.00    +0.000 C 
ATOM     15  C   UNL     1      -1.570  11.701  22.520  0.00  0.00    +0.000 C 
ATOM     16  C   UNL     1      -2.636  11.979  23.537  0.00  0.00    +0.000 C 
ENDROOT
BRANCH  13  17
ATOM     17  C   UNL     1       0.123  12.796  19.789  0.00  0.00    +0.000 A 
ATOM     18  C   UNL     1      -0.369  13.982  19.210  0.00  0.00    +0.000 A 
ATOM     19  C   UNL     1       0.480  15.057  18.950  0.00  0.00    +0.000 A 
ATOM     20  C   UNL     1       1.831  14.965  19.263  0.00  0.00    +0.000 A 
ATOM     21  C   UNL     1       2.335  13.797  19.834  0.00  0.00    +0.000 A 
ATOM     22  C   UNL     1       1.489  12.718  20.094  0.00  0.00    +0.000 A 
ENDBRANCH  13  17
BRANCH   9  23
ATOM     23  S   UNL     1      -3.658  10.271  15.055  0.00  0.00    +0.000 S 
ATOM     24  H   UNL     1      -3.750   8.951  15.257  0.00  0.00    +0.000 HD
ENDBRANCH   9  23
BRANCH  11  25
ATOM     25  O   UNL     1       0.253   9.865  17.992  0.00  0.00    +0.000 OA
ATOM     26  H   UNL     1       0.538  10.264  18.835  0.00  0.00    +0.000 HD
ENDBRANCH  11  25
BRANCH  15  27
ATOM     27  O   UNL     1      -0.421  11.163  23.062  0.00  0.00    +0.000 OA
ATOM     28  H   UNL     1       0.155  10.807  22.366  0.00  0.00    +0.000 HD
ENDBRANCH  15  27
TORSDOF 4
ENDMDL
MODEL 4
REMARK VINA RESULT:      -6.5      4.509      8.675
REMARK  Name = 
REMARK  6 active torsions:
REMARK  status: ('A' for Active; 'I' for Inactive)
REMARK    1  A    between atoms: C_1  and  C_2
REMARK    2  A    between atoms: C_2  and  C_3
REMARK    3  A    between atoms: C_9  and  S_10
REMARK    4  A    between atoms: C_12  and  O_13
REMARK    5  A    between atoms: C_15  and  C_16
REMARK    6  A    between atoms: C_23  and  O_24
REMARK                            x       y       z     vdW  Elec       q    Type
REMARK                         _______ _______ _______ _____ _____    ______ ____
ROOT
ATOM      1  C   UNL     1      -3.107  13.938  22.172  0.00  0.00    +0.000 C 
ATOM      2  C   UNL     1      -1.679  13.539  22.606  0.00  0.00    +0.000 C 
ATOM      3  C   UNL     1      -1.452  14.071  24.036  0.00  0.00    +0.000 C 
ATOM      4  C   UNL     1      -1.553  11.998  22.617  0.00  0.00    +0.000 C 
ATOM      5  C   UNL     1      -0.702  11.378  21.520  0.00  0.00    +0.000 C 
ATOM      6  N   UNL     1      -0.304  10.152  21.691  0.00  0.00    +0.000 NA
ATOM      7  C   UNL     1       0.458   9.532  20.692  0.00  0.00    +0.000 A 
ATOM      8  N   UNL     1       0.997   8.352  21.040  0.00  0.00    +0.000 NA
ATOM      9  C   UNL     1       1.727   7.733  20.104  0.00  0.00    +0.000 A 
ATOM     10  N   UNL     1       1.990   8.208  18.877  0.00  0.00    +0.000 NA
ATOM     11  C   UNL     1       1.411   9.373  18.594  0.00  0.00    +0.000 A 
ATOM     12  C   UNL     1       0.613  10.087  19.441  0.00  0.00    +0.000 A 
ATOM     13  C   UNL     1      -0.125  11.330  19.071  0.00  0.00    +0.000 C 
ATOM     14  C   UNL     1      -0.433  12.169  20.285  0.00  0.00    +0.000 C 
ATOM     15  C   UNL     1      -0.422  13.507  20.384  0.00  0.00    +0.000 C 
ATOM     16  C   UNL     1      -0.652  14.223  21.680  0.00  0.00    +0.000 C 
ENDROOT
BRANCH  13  17
ATOM     17  C   UNL     1      -1.398  11.028  18.280  0.00  0.00    +0.000 A 
ATOM     18  C   UNL     1      -2.593  11.736  18.512  0.00  0.00    +0.000 A 
ATOM     19  C   UNL     1      -3.746  11.452  17.781  0.00  0.00    +0.000 A 
ATOM     20  C   UNL     1      -3.724  10.458  16.810  0.00  0.00    +0.000 A 
ATOM     21  C   UNL     1      -2.550   9.745  16.570  0.00  0.00    +0.000 A 
ATOM     22  C   UNL     1      -1.394  10.025  17.301  0.00  0.00    +0.000 A 
ENDBRANCH  13  17
BRANCH   9  23
ATOM     23  S   UNL     1       2.373   6.137  20.504  0.00  0.00    +0.000 S 
ATOM     24  H   UNL     1       2.574   6.441  21.791  0.00  0.00    +0.000 HD
ENDBRANCH   9  23
BRANCH  11  25
ATOM     25  O   UNL     1       1.688   9.831  17.345  0.00  0.00    +0.000 OA
ATOM     26  H   UNL     1       0.799   9.822  16.946  0.00  0.00    +0.000 HD
ENDBRANCH  11  25
BRANCH  15  27
ATOM     27  O   UNL     1      -0.169  14.355  19.326  0.00  0.00    +0.000 OA
ATOM     28  H   UNL     1       0.050  13.852  18.524  0.00  0.00    +0.000 HD
ENDBRANCH  15  27
TORSDOF 4
ENDMDL
MODEL 5
REMARK VINA RESULT:      -6.5      7.022     10.181
REMARK  Name = 
REMARK  6 active torsions:
REMARK  status: ('A' for Active; 'I' for Inactive)
REMARK    1  A    between atoms: C_1  and  C_2
REMARK    2  A    between atoms: C_2  and  C_3
REMARK    3  A    between atoms: C_9  and  S_10
REMARK    4  A    between atoms: C_12  and  O_13
REMARK    5  A    between atoms: C_15  and  C_16
REMARK    6  A    between atoms: C_23  and  O_24
REMARK                            x       y       z     vdW  Elec       q    Type
REMARK                         _______ _______ _______ _____ _____    ______ ____
ROOT
ATOM      1  C   UNL     1      -3.245  14.678  23.732  0.00  0.00    +0.000 C 
ATOM      2  C   UNL     1      -3.902  13.375  23.226  0.00  0.00    +0.000 C 
ATOM      3  C   UNL     1      -5.247  13.204  23.964  0.00  0.00    +0.000 C 
ATOM      4  C   UNL     1      -4.173  13.487  21.708  0.00  0.00    +0.000 C 
ATOM      5  C   UNL     1      -3.297  12.642  20.798  0.00  0.00    +0.000 C 
ATOM      6  N   UNL     1      -3.707  12.453  19.578  0.00  0.00    +0.000 NA
ATOM      7  C   UNL     1      -2.916  11.705  18.696  0.00  0.00    +0.000 A 
ATOM      8  N   UNL     1      -3.509  11.388  17.533  0.00  0.00    +0.000 NA
ATOM      9  C   UNL     1      -2.776  10.676  16.668  0.00  0.00    +0.000 A 
ATOM     10  N   UNL     1      -1.529  10.230  16.881  0.00  0.00    +0.000 NA
ATOM     11  C   UNL     1      -0.997  10.595  18.047  0.00  0.00    +0.000 A 
ATOM     12  C   UNL     1      -1.620  11.351  18.998  0.00  0.00    +0.000 A 
ATOM     13  C   UNL     1      -0.973  11.852  20.246  0.00  0.00    +0.000 C 
ATOM     14  C   UNL     1      -1.992  12.141  21.317  0.00  0.00    +0.000 C 
ATOM     15  C   UNL     1      -1.878  11.935  22.638  0.00  0.00    +0.000 C 
ATOM     16  C   UNL     1      -3.007  12.174  23.594  0.00  0.00    +0.000 C 
ENDROOT
BRANCH  13  17
ATOM     17  C   UNL     1      -0.095  13.077  19.984  0.00  0.00    +0.000 A 
ATOM     18  C   UNL     1       1.145  13.245  20.630  0.00  0.00    +0.000 A 
ATOM     19  C   UNL     1       1.937  14.365  20.380  0.00  0.00    +0.000 A 
ATOM     20  C   UNL     1       1.503  15.333  19.482  0.00  0.00    +0.000 A 
ATOM     21  C   UNL     1       0.277  15.184  18.835  0.00  0.00    +0.000 A 
ATOM     22  C   UNL     1      -0.520  14.065  19.085  0.00  0.00    +0.000 A 
ENDBRANCH  13  17
BRANCH   9  23
ATOM     23  S   UNL     1      -3.498  10.322  15.093  0.00  0.00    +0.000 S 
ATOM     24  H   UNL     1      -3.157  11.505  14.570  0.00  0.00    +0.000 HD
ENDBRANCH   9  23
BRANCH  11  25
ATOM     25  O   UNL     1       0.267  10.135  18.237  0.00  0.00    +0.000 OA
ATOM     26  H   UNL     1       0.578  10.741  18.936  0.00  0.00    +0.000 HD
ENDBRANCH  11  25
BRANCH  15  27
ATOM     27  O   UNL     1      -0.735  11.457  23.246  0.00  0.00    +0.000 OA
ATOM     28  H   UNL     1      -0.633  10.504  23.089  0.00  0.00    +0.000 HD
ENDBRANCH  15  27
TORSDOF 4
ENDMDL
MODEL 6
REMARK VINA RESULT:      -6.3      5.491      9.098
REMARK  Name = 
REMARK  6 active torsions:
REMARK  status: ('A' for Active; 'I' for Inactive)
REMARK    1  A    between atoms: C_1  and  C_2
REMARK    2  A    between atoms: C_2  and  C_3
REMARK    3  A    between atoms: C_9  and  S_10
REMARK    4  A    between atoms: C_12  and  O_13
REMARK    5  A    between atoms: C_15  and  C_16
REMARK    6  A    between atoms: C_23  and  O_24
REMARK                            x       y       z     vdW  Elec       q    Type
REMARK                         _______ _______ _______ _____ _____    ______ ____
ROOT
ATOM      1  C   UNL     1      -2.884  12.025  23.412  0.00  0.00    +0.000 C 
ATOM      2  C   UNL     1      -2.458  13.424  22.914  0.00  0.00    +0.000 C 
ATOM      3  C   UNL     1      -3.208  14.477  23.757  0.00  0.00    +0.000 C 
ATOM      4  C   UNL     1      -0.937  13.606  23.121  0.00  0.00    +0.000 C 
ATOM      5  C   UNL     1      -0.076  13.603  21.868  0.00  0.00    +0.000 C 
ATOM      6  N   UNL     1       1.130  14.080  21.968  0.00  0.00    +0.000 NA
ATOM      7  C   UNL     1       1.967  14.070  20.844  0.00  0.00    +0.000 A 
ATOM      8  N   UNL     1       3.108  14.766  20.982  0.00  0.00    +0.000 NA
ATOM      9  C   UNL     1       3.932  14.771  19.926  0.00  0.00    +0.000 A 
ATOM     10  N   UNL     1       3.695  14.176  18.747  0.00  0.00    +0.000 NA
ATOM     11  C   UNL     1       2.554  13.490  18.687  0.00  0.00    +0.000 A 
ATOM     12  C   UNL     1       1.648  13.372  19.701  0.00  0.00    +0.000 A 
ATOM     13  C   UNL     1       0.434  12.505  19.661  0.00  0.00    +0.000 C 
ATOM     14  C   UNL     1      -0.621  12.991  20.622  0.00  0.00    +0.000 C 
ATOM     15  C   UNL     1      -1.951  12.995  20.449  0.00  0.00    +0.000 C 
ATOM     16  C   UNL     1      -2.894  13.600  21.445  0.00  0.00    +0.000 C 
ENDROOT
BRANCH  13  17
ATOM     17  C   UNL     1       0.770  11.036  19.918  0.00  0.00    +0.000 A 
ATOM     18  C   UNL     1       1.141  10.172  18.870  0.00  0.00    +0.000 A 
ATOM     19  C   UNL     1       1.448   8.835  19.118  0.00  0.00    +0.000 A 
ATOM     20  C   UNL     1       1.389   8.340  20.416  0.00  0.00    +0.000 A 
ATOM     21  C   UNL     1       1.020   9.181  21.466  0.00  0.00    +0.000 A 
ATOM     22  C   UNL     1       0.710  10.519  21.220  0.00  0.00    +0.000 A 
ENDBRANCH  13  17
BRANCH   9  23
ATOM     23  S   UNL     1       5.480  15.603  20.110  0.00  0.00    +0.000 S 
ATOM     24  H   UNL     1       5.118  16.637  19.340  0.00  0.00    +0.000 HD
ENDBRANCH   9  23
BRANCH  11  25
ATOM     25  O   UNL     1       2.340  12.894  17.486  0.00  0.00    +0.000 OA
ATOM     26  H   UNL     1       2.057  13.658  16.950  0.00  0.00    +0.000 HD
ENDBRANCH  11  25
BRANCH  15  27
ATOM     27  O   UNL     1      -2.584  12.480  19.336  0.00  0.00    +0.000 OA
ATOM     28  H   UNL     1      -2.496  13.082  18.579  0.00  0.00    +0.000 HD
ENDBRANCH  15  27
TORSDOF 4
ENDMDL
MODEL 7
REMARK VINA RESULT:      -6.2      7.006      9.058
REMARK  Name = 
REMARK  6 active torsions:
REMARK  status: ('A' for Active; 'I' for Inactive)
REMARK    1  A    between atoms: C_1  and  C_2
REMARK    2  A    between atoms: C_2  and  C_3
REMARK    3  A    between atoms: C_9  and  S_10
REMARK    4  A    between atoms: C_12  and  O_13
REMARK    5  A    between atoms: C_15  and  C_16
REMARK    6  A    between atoms: C_23  and  O_24
REMARK                            x       y       z     vdW  Elec       q    Type
REMARK                         _______ _______ _______ _____ _____    ______ ____
ROOT
ATOM      1  C   UNL     1      -2.993   9.617  17.506  0.00  0.00    +0.000 C 
ATOM      2  C   UNL     1      -3.307  11.129  17.483  0.00  0.00    +0.000 C 
ATOM      3  C   UNL     1      -4.345  11.382  16.370  0.00  0.00    +0.000 C 
ATOM      4  C   UNL     1      -3.914  11.552  18.841  0.00  0.00    +0.000 C 
ATOM      5  C   UNL     1      -3.034  12.402  19.744  0.00  0.00    +0.000 C 
ATOM      6  N   UNL     1      -3.614  13.044  20.715  0.00  0.00    +0.000 NA
ATOM      7  C   UNL     1      -2.836  13.815  21.589  0.00  0.00    +0.000 A 
ATOM      8  N   UNL     1      -3.535  14.602  22.423  0.00  0.00    +0.000 NA
ATOM      9  C   UNL     1      -2.819  15.348  23.274  0.00  0.00    +0.000 A 
ATOM     10  N   UNL     1      -1.479  15.398  23.333  0.00  0.00    +0.000 NA
ATOM     11  C   UNL     1      -0.852  14.580  22.489  0.00  0.00    +0.000 A 
ATOM     12  C   UNL     1      -1.461  13.742  21.601  0.00  0.00    +0.000 A 
ATOM     13  C   UNL     1      -0.751  12.746  20.746  0.00  0.00    +0.000 C 
ATOM     14  C   UNL     1      -1.559  12.395  19.523  0.00  0.00    +0.000 C 
ATOM     15  C   UNL     1      -1.110  12.156  18.282  0.00  0.00    +0.000 C 
ATOM     16  C   UNL     1      -2.029  11.913  17.122  0.00  0.00    +0.000 C 
ENDROOT
BRANCH  13  17
ATOM     17  C   UNL     1      -0.371  11.488  21.527  0.00  0.00    +0.000 A 
ATOM     18  C   UNL     1      -1.079  11.096  22.680  0.00  0.00    +0.000 A 
ATOM     19  C   UNL     1      -0.723   9.944  23.381  0.00  0.00    +0.000 A 
ATOM     20  C   UNL     1       0.343   9.167  22.942  0.00  0.00    +0.000 A 
ATOM     21  C   UNL     1       1.056   9.542  21.804  0.00  0.00    +0.000 A 
ATOM     22  C   UNL     1       0.705  10.696  21.101  0.00  0.00    +0.000 A 
ENDBRANCH  13  17
BRANCH   9  23
ATOM     23  S   UNL     1      -3.712  16.325  24.445  0.00  0.00    +0.000 S 
ATOM     24  H   UNL     1      -3.146  15.735  25.505  0.00  0.00    +0.000 HD
ENDBRANCH   9  23
BRANCH  11  25
ATOM     25  O   UNL     1       0.502  14.647  22.571  0.00  0.00    +0.000 OA
ATOM     26  H   UNL     1       0.651  15.590  22.370  0.00  0.00    +0.000 HD
ENDBRANCH  11  25
BRANCH  15  27
ATOM     27  O   UNL     1       0.226  12.140  17.936  0.00  0.00    +0.000 OA
ATOM     28  H   UNL     1       0.365  12.571  17.077  0.00  0.00    +0.000 HD
ENDBRANCH  15  27
TORSDOF 4
ENDMDL
MODEL 8
REMARK VINA RESULT:      -6.1      3.375      5.958
REMARK  Name = 
REMARK  6 active torsions:
REMARK  status: ('A' for Active; 'I' for Inactive)
REMARK    1  A    between atoms: C_1  and  C_2
REMARK    2  A    between atoms: C_2  and  C_3
REMARK    3  A    between atoms: C_9  and  S_10
REMARK    4  A    between atoms: C_12  and  O_13
REMARK    5  A    between atoms: C_15  and  C_16
REMARK    6  A    between atoms: C_23  and  O_24
REMARK                            x       y       z     vdW  Elec       q    Type
REMARK                         _______ _______ _______ _____ _____    ______ ____
ROOT
ATOM      1  C   UNL     1       1.426   6.248  17.844  0.00  0.00    +0.000 C 
ATOM      2  C   UNL     1       2.520   7.129  18.485  0.00  0.00    +0.000 C 
ATOM      3  C   UNL     1       3.843   6.336  18.461  0.00  0.00    +0.000 C 
ATOM      4  C   UNL     1       2.694   8.423  17.656  0.00  0.00    +0.000 C 
ATOM      5  C   UNL     1       2.190   9.709  18.289  0.00  0.00    +0.000 C 
ATOM      6  N   UNL     1       2.613  10.831  17.787  0.00  0.00    +0.000 NA
ATOM      7  C   UNL     1       2.150  12.041  18.322  0.00  0.00    +0.000 A 
ATOM      8  N   UNL     1       2.794  13.136  17.886  0.00  0.00    +0.000 NA
ATOM      9  C   UNL     1       2.371  14.308  18.376  0.00  0.00    +0.000 A 
ATOM     10  N   UNL     1       1.394  14.469  19.281  0.00  0.00    +0.000 NA
ATOM     11  C   UNL     1       0.788  13.344  19.656  0.00  0.00    +0.000 A 
ATOM     12  C   UNL     1       1.095  12.093  19.204  0.00  0.00    +0.000 A 
ATOM     13  C   UNL     1       0.332  10.855  19.542  0.00  0.00    +0.000 C 
ATOM     14  C   UNL     1       1.186   9.623  19.390  0.00  0.00    +0.000 C 
ATOM     15  C   UNL     1       1.188   8.524  20.158  0.00  0.00    +0.000 C 
ATOM     16  C   UNL     1       2.161   7.401  19.960  0.00  0.00    +0.000 C 
ENDROOT
BRANCH  13  17
ATOM     17  C   UNL     1      -0.952  10.732  18.721  0.00  0.00    +0.000 A 
ATOM     18  C   UNL     1      -1.018   9.916  17.576  0.00  0.00    +0.000 A 
ATOM     19  C   UNL     1      -2.196   9.810  16.838  0.00  0.00    +0.000 A 
ATOM     20  C   UNL     1      -3.326  10.518  17.232  0.00  0.00    +0.000 A 
ATOM     21  C   UNL     1      -3.278  11.333  18.362  0.00  0.00    +0.000 A 
ATOM     22  C   UNL     1      -2.099  11.443  19.102  0.00  0.00    +0.000 A 
ENDBRANCH  13  17
BRANCH   9  23
ATOM     23  S   UNL     1       3.139  15.773  17.752  0.00  0.00    +0.000 S 
ATOM     24  H   UNL     1       4.035  15.100  17.021  0.00  0.00    +0.000 HD
ENDBRANCH   9  23
BRANCH  11  25
ATOM     25  O   UNL     1      -0.199  13.535  20.569  0.00  0.00    +0.000 OA
ATOM     26  H   UNL     1      -0.488  14.438  20.340  0.00  0.00    +0.000 HD
ENDBRANCH  11  25
BRANCH  15  27
ATOM     27  O   UNL     1       0.328   8.325  21.219  0.00  0.00    +0.000 OA
ATOM     28  H   UNL     1      -0.382   7.709  20.977  0.00  0.00    +0.000 HD
ENDBRANCH  15  27
TORSDOF 4
ENDMDL
MODEL 9
REMARK VINA RESULT:      -6.0      5.605      9.322
REMARK  Name = 
REMARK  6 active torsions:
REMARK  status: ('A' for Active; 'I' for Inactive)
REMARK    1  A    between atoms: C_1  and  C_2
REMARK    2  A    between atoms: C_2  and  C_3
REMARK    3  A    between atoms: C_9  and  S_10
REMARK    4  A    between atoms: C_12  and  O_13
REMARK    5  A    between atoms: C_15  and  C_16
REMARK    6  A    between atoms: C_23  and  O_24
REMARK                            x       y       z     vdW  Elec       q    Type
REMARK                         _______ _______ _______ _____ _____    ______ ____
ROOT
ATOM      1  C   UNL     1      -3.326  12.191  23.835  0.00  0.00    +0.000 C 
ATOM      2  C   UNL     1      -2.902  13.540  23.214  0.00  0.00    +0.000 C 
ATOM      3  C   UNL     1      -3.669  14.661  23.946  0.00  0.00    +0.000 C 
ATOM      4  C   UNL     1      -1.385  13.751  23.422  0.00  0.00    +0.000 C 
ATOM      5  C   UNL     1      -0.508  13.639  22.185  0.00  0.00    +0.000 C 
ATOM      6  N   UNL     1       0.693  14.132  22.255  0.00  0.00    +0.000 NA
ATOM      7  C   UNL     1       1.545  14.023  21.148  0.00  0.00    +0.000 A 
ATOM      8  N   UNL     1       2.680  14.738  21.234  0.00  0.00    +0.000 NA
ATOM      9  C   UNL     1       3.517  14.651  20.193  0.00  0.00    +0.000 A 
ATOM     10  N   UNL     1       3.299  13.947  19.072  0.00  0.00    +0.000 NA
ATOM     11  C   UNL     1       2.164  13.250  19.061  0.00  0.00    +0.000 A 
ATOM     12  C   UNL     1       1.245  13.220  20.071  0.00  0.00    +0.000 A 
ATOM     13  C   UNL     1       0.037  12.345  20.097  0.00  0.00    +0.000 C 
ATOM     14  C   UNL     1      -1.033  12.910  20.995  0.00  0.00    +0.000 C 
ATOM     15  C   UNL     1      -2.361  12.888  20.805  0.00  0.00    +0.000 C 
ATOM     16  C   UNL     1      -3.320  13.576  21.730  0.00  0.00    +0.000 C 
ENDROOT
BRANCH  13  17
ATOM     17  C   UNL     1       0.379  10.908  20.493  0.00  0.00    +0.000 A 
ATOM     18  C   UNL     1       0.164  10.436  21.803  0.00  0.00    +0.000 A 
ATOM     19  C   UNL     1       0.477   9.122  22.151  0.00  0.00    +0.000 A 
ATOM     20  C   UNL     1       1.009   8.261  21.198  0.00  0.00    +0.000 A 
ATOM     21  C   UNL     1       1.231   8.713  19.897  0.00  0.00    +0.000 A 
ATOM     22  C   UNL     1       0.920  10.028  19.546  0.00  0.00    +0.000 A 
ENDBRANCH  13  17
BRANCH   9  23
ATOM     23  S   UNL     1       5.058  15.507  20.317  0.00  0.00    +0.000 S 
ATOM     24  H   UNL     1       4.814  16.285  19.256  0.00  0.00    +0.000 HD
ENDBRANCH   9  23
BRANCH  11  25
ATOM     25  O   UNL     1       1.968  12.543  17.918  0.00  0.00    +0.000 OA
ATOM     26  H   UNL     1       1.067  12.201  18.067  0.00  0.00    +0.000 HD
ENDBRANCH  11  25
BRANCH  15  27
ATOM     27  O   UNL     1      -2.976  12.267  19.738  0.00  0.00    +0.000 OA
ATOM     28  H   UNL     1      -3.618  11.606  20.046  0.00  0.00    +0.000 HD
ENDBRANCH  15  27
TORSDOF 4
ENDMDL
