MODEL 1
REMARK VINA RESULT:      -7.8      0.000      0.000
REMARK  Name = 
REMARK  6 active torsions:
REMARK  status: ('A' for Active; 'I' for Inactive)
REMARK    1  A    between atoms: C_1  and  C_2
REMARK    2  A    between atoms: C_2  and  C_3
REMARK    3  A    between atoms: C_2  and  C_4
REMARK    4  A    between atoms: N_9  and  C_10
REMARK    5  A    between atoms: N_21  and  C_22
REMARK    6  A    between atoms: N_24  and  C_25
REMARK                            x       y       z     vdW  Elec       q    Type
REMARK                         _______ _______ _______ _____ _____    ______ ____
ROOT
ATOM      1  C   UNL     1      -0.223  10.103  21.104  0.00  0.00    +0.000 C 
ATOM      2  C   UNL     1       1.150   9.402  20.804  0.00  0.00    +0.000 C 
ATOM      3  N   UNL     1       1.240   8.898  19.428  0.00  0.00    +0.000 N 
ATOM      4  C   UNL     1       1.954   7.780  19.002  0.00  0.00    +0.000 C 
ATOM      5  O   UNL     1       2.082   7.550  17.804  0.00  0.00    +0.000 OA
ATOM      6  N   UNL     1       2.451   6.978  20.003  0.00  0.00    +0.000 N 
ATOM      7  C   UNL     1       0.841   9.865  18.390  0.00  0.00    +0.000 C 
ATOM      8  C   UNL     1      -0.482  10.558  18.725  0.00  0.00    +0.000 C 
ATOM      9  N   UNL     1      -0.400  11.177  20.076  0.00  0.00    +0.000 N 
ATOM     10  C   UNL     1      -1.080  12.378  20.213  0.00  0.00    +0.000 C 
ATOM     11  N   UNL     1      -2.323  12.379  20.606  0.00  0.00    +0.000 NA
ATOM     12  N   UNL     1      -0.408  13.495  19.725  0.00  0.00    +0.000 N 
ATOM     13  H   UNL     1       2.140   7.147  20.942  0.00  0.00    +0.000 HD
ATOM     14  H   UNL     1      -0.977  14.313  19.534  0.00  0.00    +0.000 HD
ENDROOT
BRANCH  12  15
ATOM     15  C   UNL     1       0.966  13.753  19.511  0.00  0.00    +0.000 A 
ATOM     16  C   UNL     1       1.618  13.433  18.308  0.00  0.00    +0.000 A 
ATOM     17  C   UNL     1       2.972  13.641  18.052  0.00  0.00    +0.000 A 
ATOM     18  C   UNL     1       3.785  14.194  19.023  0.00  0.00    +0.000 A 
ATOM     19  C   UNL     1       3.159  14.526  20.221  0.00  0.00    +0.000 A 
ATOM     20  O   UNL     1       3.793  15.100  21.278  0.00  0.00    +0.000 OA
ATOM     21  C   UNL     1       2.861  15.286  22.243  0.00  0.00    +0.000 A 
ATOM     22  C   UNL     1       1.631  14.833  21.824  0.00  0.00    +0.000 A 
ATOM     23  C   UNL     1       1.804  14.333  20.498  0.00  0.00    +0.000 A 
ENDBRANCH  12  15
BRANCH   6  24
ATOM     24  C   UNL     1       3.149   5.762  19.838  0.00  0.00    +0.000 A 
ATOM     25  C   UNL     1       4.461   5.682  19.366  0.00  0.00    +0.000 A 
ATOM     26  C   UNL     1       5.057   4.444  19.116  0.00  0.00    +0.000 A 
ATOM     27  C   UNL     1       4.348   3.271  19.357  0.00  0.00    +0.000 A 
ATOM     28  C   UNL     1       3.063   3.350  19.877  0.00  0.00    +0.000 A 
ATOM     29  F   UNL     1       2.380   2.223  20.120  0.00  0.00    +0.000 F 
ATOM     30  C   UNL     1       2.462   4.579  20.132  0.00  0.00    +0.000 A 
ENDBRANCH   6  24
BRANCH   1  32
ATOM     31  C   UNL     1      -1.570  11.026  23.135  0.00  0.00    +0.000 C 
ATOM     32  C   UNL     1      -0.248  10.473  22.610  0.00  0.00    +0.000 C 
ATOM     33  C   UNL     1       0.366   9.401  23.512  0.00  0.00    +0.000 C 
ENDBRANCH   1  32
BRANCH  11  34
ATOM     34  C   UNL     1      -2.979  13.540  20.663  0.00  0.00    +0.000 C 
ATOM     35  N   UNL     1      -3.517  14.564  20.767  0.00  0.00    +0.000 NA
ENDBRANCH  11  34
TORSDOF 4
ENDMDL
MODEL 2
REMARK VINA RESULT:      -7.6      1.572      2.200
REMARK  Name = 
REMARK  6 active torsions:
REMARK  status: ('A' for Active; 'I' for Inactive)
REMARK    1  A    between atoms: C_1  and  C_2
REMARK    2  A    between atoms: C_2  and  C_3
REMARK    3  A    between atoms: C_2  and  C_4
REMARK    4  A    between atoms: N_9  and  C_10
REMARK    5  A    between atoms: N_21  and  C_22
REMARK    6  A    between atoms: N_24  and  C_25
REMARK                            x       y       z     vdW  Elec       q    Type
REMARK                         _______ _______ _______ _____ _____    ______ ____
ROOT
ATOM      1  C   UNL     1      -0.193  10.968  20.933  0.00  0.00    +0.000 C 
ATOM      2  C   UNL     1       1.075  10.102  20.603  0.00  0.00    +0.000 C 
ATOM      3  N   UNL     1       1.304   9.959  19.159  0.00  0.00    +0.000 N 
ATOM      4  C   UNL     1       1.882   8.866  18.518  0.00  0.00    +0.000 C 
ATOM      5  O   UNL     1       2.164   8.929  17.326  0.00  0.00    +0.000 OA
ATOM      6  N   UNL     1       2.068   7.751  19.301  0.00  0.00    +0.000 N 
ATOM      7  C   UNL     1       1.246  11.221  18.399  0.00  0.00    +0.000 C 
ATOM      8  C   UNL     1       0.020  12.060  18.765  0.00  0.00    +0.000 C 
ATOM      9  N   UNL     1      -0.018  12.282  20.238  0.00  0.00    +0.000 N 
ATOM     10  C   UNL     1      -0.503  13.521  20.630  0.00  0.00    +0.000 C 
ATOM     11  N   UNL     1      -1.776  13.675  20.866  0.00  0.00    +0.000 NA
ATOM     12  N   UNL     1       0.415  14.564  20.556  0.00  0.00    +0.000 N 
ATOM     13  H   UNL     1       1.640   7.734  20.209  0.00  0.00    +0.000 HD
ATOM     14  H   UNL     1       0.030  15.502  20.542  0.00  0.00    +0.000 HD
ENDROOT
BRANCH  12  15
ATOM     15  C   UNL     1       1.830  14.582  20.579  0.00  0.00    +0.000 A 
ATOM     16  C   UNL     1       2.572  14.315  21.742  0.00  0.00    +0.000 A 
ATOM     17  C   UNL     1       3.963  14.343  21.828  0.00  0.00    +0.000 A 
ATOM     18  C   UNL     1       4.720  14.662  20.717  0.00  0.00    +0.000 A 
ATOM     19  C   UNL     1       4.006  14.922  19.551  0.00  0.00    +0.000 A 
ATOM     20  O   UNL     1       4.582  15.228  18.358  0.00  0.00    +0.000 OA
ATOM     21  C   UNL     1       3.577  15.396  17.467  0.00  0.00    +0.000 A 
ATOM     22  C   UNL     1       2.354  15.208  18.071  0.00  0.00    +0.000 A 
ATOM     23  C   UNL     1       2.615  14.894  19.439  0.00  0.00    +0.000 A 
ENDBRANCH  12  15
BRANCH   6  24
ATOM     24  C   UNL     1       2.572   6.502  18.878  0.00  0.00    +0.000 A 
ATOM     25  C   UNL     1       1.853   5.606  18.085  0.00  0.00    +0.000 A 
ATOM     26  C   UNL     1       2.363   4.338  17.795  0.00  0.00    +0.000 A 
ATOM     27  C   UNL     1       3.611   3.964  18.283  0.00  0.00    +0.000 A 
ATOM     28  C   UNL     1       4.350   4.875  19.026  0.00  0.00    +0.000 A 
ATOM     29  F   UNL     1       5.556   4.522  19.490  0.00  0.00    +0.000 F 
ATOM     30  C   UNL     1       3.851   6.141  19.318  0.00  0.00    +0.000 A 
ENDBRANCH   6  24
BRANCH   1  32
ATOM     31  C   UNL     1      -1.769  11.404  22.962  0.00  0.00    +0.000 C 
ATOM     32  C   UNL     1      -0.402  10.937  22.469  0.00  0.00    +0.000 C 
ATOM     33  C   UNL     1       0.070   9.638  23.124  0.00  0.00    +0.000 C 
ENDBRANCH   1  32
BRANCH  11  34
ATOM     34  C   UNL     1      -2.231  14.892  21.175  0.00  0.00    +0.000 C 
ATOM     35  N   UNL     1      -2.564  15.973  21.439  0.00  0.00    +0.000 NA
ENDBRANCH  11  34
TORSDOF 4
ENDMDL
MODEL 3
REMARK VINA RESULT:      -7.6      2.653      4.739
REMARK  Name = 
REMARK  6 active torsions:
REMARK  status: ('A' for Active; 'I' for Inactive)
REMARK    1  A    between atoms: C_1  and  C_2
REMARK    2  A    between atoms: C_2  and  C_3
REMARK    3  A    between atoms: C_2  and  C_4
REMARK    4  A    between atoms: N_9  and  C_10
REMARK    5  A    between atoms: N_21  and  C_22
REMARK    6  A    between atoms: N_24  and  C_25
REMARK                            x       y       z     vdW  Elec       q    Type
REMARK                         _______ _______ _______ _____ _____    ______ ____
ROOT
ATOM      1  C   UNL     1       1.473  11.799  20.486  0.00  0.00    +0.000 C 
ATOM      2  C   UNL     1       1.298  10.489  19.639  0.00  0.00    +0.000 C 
ATOM      3  N   UNL     1       0.909   9.333  20.457  0.00  0.00    +0.000 N 
ATOM      4  C   UNL     1       1.240   8.000  20.217  0.00  0.00    +0.000 C 
ATOM      5  O   UNL     1       0.725   7.108  20.882  0.00  0.00    +0.000 OA
ATOM      6  N   UNL     1       2.178   7.792  19.232  0.00  0.00    +0.000 N 
ATOM      7  C   UNL     1      -0.211   9.582  21.382  0.00  0.00    +0.000 C 
ATOM      8  C   UNL     1      -0.031  10.882  22.169  0.00  0.00    +0.000 C 
ATOM      9  N   UNL     1       0.190  12.015  21.228  0.00  0.00    +0.000 N 
ATOM     10  C   UNL     1      -0.369  13.221  21.621  0.00  0.00    +0.000 C 
ATOM     11  N   UNL     1       0.329  14.058  22.337  0.00  0.00    +0.000 NA
ATOM     12  N   UNL     1      -1.731  13.351  21.364  0.00  0.00    +0.000 N 
ATOM     13  H   UNL     1       2.672   8.589  18.875  0.00  0.00    +0.000 HD
ATOM     14  H   UNL     1      -2.222  14.064  21.892  0.00  0.00    +0.000 HD
ENDROOT
BRANCH  12  15
ATOM     15  C   UNL     1      -2.580  12.722  20.423  0.00  0.00    +0.000 A 
ATOM     16  C   UNL     1      -2.102  12.169  19.223  0.00  0.00    +0.000 A 
ATOM     17  C   UNL     1      -2.894  11.560  18.251  0.00  0.00    +0.000 A 
ATOM     18  C   UNL     1      -4.262  11.475  18.425  0.00  0.00    +0.000 A 
ATOM     19  C   UNL     1      -4.757  12.009  19.611  0.00  0.00    +0.000 A 
ATOM     20  O   UNL     1      -6.070  11.994  19.963  0.00  0.00    +0.000 OA
ATOM     21  C   UNL     1      -6.159  12.585  21.178  0.00  0.00    +0.000 A 
ATOM     22  C   UNL     1      -4.918  12.988  21.614  0.00  0.00    +0.000 A 
ATOM     23  C   UNL     1      -3.983  12.617  20.601  0.00  0.00    +0.000 A 
ENDBRANCH  12  15
BRANCH   6  24
ATOM     24  C   UNL     1       2.726   6.551  18.844  0.00  0.00    +0.000 A 
ATOM     25  C   UNL     1       2.045   5.614  18.064  0.00  0.00    +0.000 A 
ATOM     26  C   UNL     1       2.598   4.357  17.809  0.00  0.00    +0.000 A 
ATOM     27  C   UNL     1       3.852   4.035  18.319  0.00  0.00    +0.000 A 
ATOM     28  C   UNL     1       4.553   4.985  19.048  0.00  0.00    +0.000 A 
ATOM     29  F   UNL     1       5.765   4.682  19.533  0.00  0.00    +0.000 F 
ATOM     30  C   UNL     1       4.011   6.241  19.305  0.00  0.00    +0.000 A 
ENDBRANCH   6  24
BRANCH   1  32
ATOM     31  C   UNL     1       3.032  13.860  20.148  0.00  0.00    +0.000 C 
ATOM     32  C   UNL     1       2.006  12.907  19.541  0.00  0.00    +0.000 C 
ATOM     33  C   UNL     1       2.398  12.392  18.155  0.00  0.00    +0.000 C 
ENDBRANCH   1  32
BRANCH  11  34
ATOM     34  C   UNL     1      -0.254  15.182  22.763  0.00  0.00    +0.000 C 
ATOM     35  N   UNL     1      -0.815  16.124  23.146  0.00  0.00    +0.000 NA
ENDBRANCH  11  34
TORSDOF 4
ENDMDL
MODEL 4
REMARK VINA RESULT:      -7.6      1.602      1.955
REMARK  Name = 
REMARK  6 active torsions:
REMARK  status: ('A' for Active; 'I' for Inactive)
REMARK    1  A    between atoms: C_1  and  C_2
REMARK    2  A    between atoms: C_2  and  C_3
REMARK    3  A    between atoms: C_2  and  C_4
REMARK    4  A    between atoms: N_9  and  C_10
REMARK    5  A    between atoms: N_21  and  C_22
REMARK    6  A    between atoms: N_24  and  C_25
REMARK                            x       y       z     vdW  Elec       q    Type
REMARK                         _______ _______ _______ _____ _____    ______ ____
ROOT
ATOM      1  C   UNL     1      -0.260  10.812  20.999  0.00  0.00    +0.000 C 
ATOM      2  C   UNL     1       1.045  10.081  20.522  0.00  0.00    +0.000 C 
ATOM      3  N   UNL     1       1.138   9.984  19.059  0.00  0.00    +0.000 N 
ATOM      4  C   UNL     1       1.751   8.964  18.335  0.00  0.00    +0.000 C 
ATOM      5  O   UNL     1       1.902   9.073  17.123  0.00  0.00    +0.000 OA
ATOM      6  N   UNL     1       2.123   7.860  19.067  0.00  0.00    +0.000 N 
ATOM      7  C   UNL     1       0.881  11.246  18.341  0.00  0.00    +0.000 C 
ATOM      8  C   UNL     1      -0.376  11.953  18.850  0.00  0.00    +0.000 C 
ATOM      9  N   UNL     1      -0.285  12.148  20.324  0.00  0.00    +0.000 N 
ATOM     10  C   UNL     1      -0.845  13.326  20.795  0.00  0.00    +0.000 C 
ATOM     11  N   UNL     1      -2.096  13.350  21.161  0.00  0.00    +0.000 NA
ATOM     12  N   UNL     1      -0.044  14.456  20.656  0.00  0.00    +0.000 N 
ATOM     13  H   UNL     1       1.794   7.787  20.012  0.00  0.00    +0.000 HD
ATOM     14  H   UNL     1      -0.518  15.352  20.704  0.00  0.00    +0.000 HD
ENDROOT
BRANCH  12  15
ATOM     15  C   UNL     1       1.357  14.613  20.537  0.00  0.00    +0.000 A 
ATOM     16  C   UNL     1       2.267  13.968  21.392  0.00  0.00    +0.000 A 
ATOM     17  C   UNL     1       3.653  14.107  21.337  0.00  0.00    +0.000 A 
ATOM     18  C   UNL     1       4.230  14.936  20.395  0.00  0.00    +0.000 A 
ATOM     19  C   UNL     1       3.348  15.579  19.532  0.00  0.00    +0.000 A 
ATOM     20  O   UNL     1       3.736  16.412  18.529  0.00  0.00    +0.000 OA
ATOM     21  C   UNL     1       2.609  16.826  17.903  0.00  0.00    +0.000 A 
ATOM     22  C   UNL     1       1.494  16.276  18.494  0.00  0.00    +0.000 A 
ATOM     23  C   UNL     1       1.959  15.452  19.563  0.00  0.00    +0.000 A 
ENDBRANCH  12  15
BRANCH   6  24
ATOM     24  C   UNL     1       2.700   6.674  18.564  0.00  0.00    +0.000 A 
ATOM     25  C   UNL     1       3.977   6.613  18.002  0.00  0.00    +0.000 A 
ATOM     26  C   UNL     1       4.447   5.434  17.418  0.00  0.00    +0.000 A 
ATOM     27  C   UNL     1       3.645   4.297  17.411  0.00  0.00    +0.000 A 
ATOM     28  C   UNL     1       2.398   4.342  18.018  0.00  0.00    +0.000 A 
ATOM     29  F   UNL     1       1.627   3.246  18.022  0.00  0.00    +0.000 F 
ATOM     30  C   UNL     1       1.922   5.511  18.605  0.00  0.00    +0.000 A 
ENDBRANCH   6  24
BRANCH   1  32
ATOM     31  C   UNL     1      -1.651  11.071  23.187  0.00  0.00    +0.000 C 
ATOM     32  C   UNL     1      -0.306  10.736  22.547  0.00  0.00    +0.000 C 
ATOM     33  C   UNL     1       0.343   9.474  23.117  0.00  0.00    +0.000 C 
ENDBRANCH   1  32
BRANCH  11  34
ATOM     34  C   UNL     1      -2.632  14.511  21.544  0.00  0.00    +0.000 C 
ATOM     35  N   UNL     1      -3.085  15.505  21.940  0.00  0.00    +0.000 NA
ENDBRANCH  11  34
TORSDOF 4
ENDMDL
MODEL 5
REMARK VINA RESULT:      -7.5      2.565      4.689
REMARK  Name = 
REMARK  6 active torsions:
REMARK  status: ('A' for Active; 'I' for Inactive)
REMARK    1  A    between atoms: C_1  and  C_2
REMARK    2  A    between atoms: C_2  and  C_3
REMARK    3  A    between atoms: C_2  and  C_4
REMARK    4  A    between atoms: N_9  and  C_10
REMARK    5  A    between atoms: N_21  and  C_22
REMARK    6  A    between atoms: N_24  and  C_25
REMARK                            x       y       z     vdW  Elec       q    Type
REMARK                         _______ _______ _______ _____ _____    ______ ____
ROOT
ATOM      1  C   UNL     1       1.451  11.687  20.142  0.00  0.00    +0.000 C 
ATOM      2  C   UNL     1       1.368  10.317  19.380  0.00  0.00    +0.000 C 
ATOM      3  N   UNL     1       0.972   9.205  20.254  0.00  0.00    +0.000 N 
ATOM      4  C   UNL     1       1.361   7.873  20.126  0.00  0.00    +0.000 C 
ATOM      5  O   UNL     1       0.839   7.010  20.822  0.00  0.00    +0.000 OA
ATOM      6  N   UNL     1       2.360   7.634  19.211  0.00  0.00    +0.000 N 
ATOM      7  C   UNL     1      -0.206   9.475  21.097  0.00  0.00    +0.000 C 
ATOM      8  C   UNL     1      -0.115  10.831  21.800  0.00  0.00    +0.000 C 
ATOM      9  N   UNL     1       0.121  11.905  20.796  0.00  0.00    +0.000 N 
ATOM     10  C   UNL     1      -0.500  13.113  21.073  0.00  0.00    +0.000 C 
ATOM     11  N   UNL     1       0.128  14.023  21.766  0.00  0.00    +0.000 NA
ATOM     12  N   UNL     1      -1.848  13.175  20.733  0.00  0.00    +0.000 N 
ATOM     13  H   UNL     1       2.847   8.422  18.826  0.00  0.00    +0.000 HD
ATOM     14  H   UNL     1      -2.392  13.903  21.183  0.00  0.00    +0.000 HD
ENDROOT
BRANCH  12  15
ATOM     15  C   UNL     1      -2.620  12.452  19.794  0.00  0.00    +0.000 A 
ATOM     16  C   UNL     1      -2.049  11.786  18.695  0.00  0.00    +0.000 A 
ATOM     17  C   UNL     1      -2.762  11.081  17.727  0.00  0.00    +0.000 A 
ATOM     18  C   UNL     1      -4.140  11.007  17.798  0.00  0.00    +0.000 A 
ATOM     19  C   UNL     1      -4.727  11.652  18.882  0.00  0.00    +0.000 A 
ATOM     20  O   UNL     1      -6.064  11.665  19.128  0.00  0.00    +0.000 OA
ATOM     21  C   UNL     1      -6.249  12.372  20.268  0.00  0.00    +0.000 A 
ATOM     22  C   UNL     1      -5.046  12.823  20.761  0.00  0.00    +0.000 A 
ATOM     23  C   UNL     1      -4.034  12.359  19.867  0.00  0.00    +0.000 A 
ENDBRANCH  12  15
BRANCH   6  24
ATOM     24  C   UNL     1       2.971   6.390  18.941  0.00  0.00    +0.000 A 
ATOM     25  C   UNL     1       4.229   6.026  19.424  0.00  0.00    +0.000 A 
ATOM     26  C   UNL     1       4.828   4.828  19.028  0.00  0.00    +0.000 A 
ATOM     27  C   UNL     1       4.160   3.973  18.157  0.00  0.00    +0.000 A 
ATOM     28  C   UNL     1       2.886   4.309  17.719  0.00  0.00    +0.000 A 
ATOM     29  F   UNL     1       2.235   3.485  16.888  0.00  0.00    +0.000 F 
ATOM     30  C   UNL     1       2.280   5.500  18.111  0.00  0.00    +0.000 A 
ENDBRANCH   6  24
BRANCH   1  32
ATOM     31  C   UNL     1       2.905  13.816  19.760  0.00  0.00    +0.000 C 
ATOM     32  C   UNL     1       1.999  12.748  19.152  0.00  0.00    +0.000 C 
ATOM     33  C   UNL     1       2.548  12.149  17.857  0.00  0.00    +0.000 C 
ENDBRANCH   1  32
BRANCH  11  34
ATOM     34  C   UNL     1      -0.515  15.150  22.080  0.00  0.00    +0.000 C 
ATOM     35  N   UNL     1      -1.131  16.097  22.348  0.00  0.00    +0.000 NA
ENDBRANCH  11  34
TORSDOF 4
ENDMDL
MODEL 6
REMARK VINA RESULT:      -7.5      0.887      1.218
REMARK  Name = 
REMARK  6 active torsions:
REMARK  status: ('A' for Active; 'I' for Inactive)
REMARK    1  A    between atoms: C_1  and  C_2
REMARK    2  A    between atoms: C_2  and  C_3
REMARK    3  A    between atoms: C_2  and  C_4
REMARK    4  A    between atoms: N_9  and  C_10
REMARK    5  A    between atoms: N_21  and  C_22
REMARK    6  A    between atoms: N_24  and  C_25
REMARK                            x       y       z     vdW  Elec       q    Type
REMARK                         _______ _______ _______ _____ _____    ______ ____
ROOT
ATOM      1  C   UNL     1      -0.290  10.238  21.069  0.00  0.00    +0.000 C 
ATOM      2  C   UNL     1       1.072   9.524  20.753  0.00  0.00    +0.000 C 
ATOM      3  N   UNL     1       1.158   9.058  19.363  0.00  0.00    +0.000 N 
ATOM      4  C   UNL     1       1.856   7.941  18.907  0.00  0.00    +0.000 C 
ATOM      5  O   UNL     1       1.983   7.743  17.703  0.00  0.00    +0.000 OA
ATOM      6  N   UNL     1       2.336   7.103  19.886  0.00  0.00    +0.000 N 
ATOM      7  C   UNL     1       0.778  10.061  18.352  0.00  0.00    +0.000 C 
ATOM      8  C   UNL     1      -0.534  10.765  18.703  0.00  0.00    +0.000 C 
ATOM      9  N   UNL     1      -0.446  11.344  20.073  0.00  0.00    +0.000 N 
ATOM     10  C   UNL     1      -1.107  12.551  20.242  0.00  0.00    +0.000 C 
ATOM     11  N   UNL     1      -2.351  12.561  20.632  0.00  0.00    +0.000 NA
ATOM     12  N   UNL     1      -0.416  13.671  19.788  0.00  0.00    +0.000 N 
ATOM     13  H   UNL     1       2.025   7.250  20.828  0.00  0.00    +0.000 HD
ATOM     14  H   UNL     1      -0.970  14.504  19.619  0.00  0.00    +0.000 HD
ENDROOT
BRANCH  12  15
ATOM     15  C   UNL     1       0.963  13.913  19.585  0.00  0.00    +0.000 A 
ATOM     16  C   UNL     1       1.623  13.577  18.390  0.00  0.00    +0.000 A 
ATOM     17  C   UNL     1       2.981  13.769  18.145  0.00  0.00    +0.000 A 
ATOM     18  C   UNL     1       3.791  14.319  19.120  0.00  0.00    +0.000 A 
ATOM     19  C   UNL     1       3.158  14.667  20.309  0.00  0.00    +0.000 A 
ATOM     20  O   UNL     1       3.788  15.241  21.368  0.00  0.00    +0.000 OA
ATOM     21  C   UNL     1       2.850  15.444  22.323  0.00  0.00    +0.000 A 
ATOM     22  C   UNL     1       1.618  15.001  21.896  0.00  0.00    +0.000 A 
ATOM     23  C   UNL     1       1.799  14.490  20.576  0.00  0.00    +0.000 A 
ENDBRANCH  12  15
BRANCH   6  24
ATOM     24  C   UNL     1       3.015   5.881  19.687  0.00  0.00    +0.000 A 
ATOM     25  C   UNL     1       2.437   4.630  19.910  0.00  0.00    +0.000 A 
ATOM     26  C   UNL     1       3.196   3.462  19.805  0.00  0.00    +0.000 A 
ATOM     27  C   UNL     1       4.540   3.538  19.454  0.00  0.00    +0.000 A 
ATOM     28  C   UNL     1       5.101   4.777  19.179  0.00  0.00    +0.000 A 
ATOM     29  F   UNL     1       6.393   4.854  18.832  0.00  0.00    +0.000 F 
ATOM     30  C   UNL     1       4.352   5.946  19.279  0.00  0.00    +0.000 A 
ENDBRANCH   6  24
BRANCH   1  32
ATOM     31  C   UNL     1      -1.631  11.112  23.126  0.00  0.00    +0.000 C 
ATOM     32  C   UNL     1      -0.313  10.565  22.585  0.00  0.00    +0.000 C 
ATOM     33  C   UNL     1       0.293   9.464  23.457  0.00  0.00    +0.000 C 
ENDBRANCH   1  32
BRANCH  11  34
ATOM     34  C   UNL     1      -2.989  13.731  20.720  0.00  0.00    +0.000 C 
ATOM     35  N   UNL     1      -3.554  14.736  20.861  0.00  0.00    +0.000 NA
ENDBRANCH  11  34
TORSDOF 4
ENDMDL
MODEL 7
REMARK VINA RESULT:      -7.4      2.196      2.915
REMARK  Name = 
REMARK  6 active torsions:
REMARK  status: ('A' for Active; 'I' for Inactive)
REMARK    1  A    between atoms: C_1  and  C_2
REMARK    2  A    between atoms: C_2  and  C_3
REMARK    3  A    between atoms: C_2  and  C_4
REMARK    4  A    between atoms: N_9  and  C_10
REMARK    5  A    between atoms: N_21  and  C_22
REMARK    6  A    between atoms: N_24  and  C_25
REMARK                            x       y       z     vdW  Elec       q    Type
REMARK                         _______ _______ _______ _____ _____    ______ ____
ROOT
ATOM      1  C   UNL     1      -1.401  11.957  21.179  0.00  0.00    +0.000 C 
ATOM      2  C   UNL     1      -0.036  11.274  20.808  0.00  0.00    +0.000 C 
ATOM      3  N   UNL     1       0.003  10.806  19.417  0.00  0.00    +0.000 N 
ATOM      4  C   UNL     1       0.707   9.704  18.935  0.00  0.00    +0.000 C 
ATOM      5  O   UNL     1       0.789   9.506  17.728  0.00  0.00    +0.000 OA
ATOM      6  N   UNL     1       1.247   8.880  19.895  0.00  0.00    +0.000 N 
ATOM      7  C   UNL     1      -0.442  11.796  18.421  0.00  0.00    +0.000 C 
ATOM      8  C   UNL     1      -1.756  12.471  18.825  0.00  0.00    +0.000 C 
ATOM      9  N   UNL     1      -1.624  13.056  20.188  0.00  0.00    +0.000 N 
ATOM     10  C   UNL     1      -2.306  14.248  20.382  0.00  0.00    +0.000 C 
ATOM     11  N   UNL     1      -3.533  14.229  20.823  0.00  0.00    +0.000 NA
ATOM     12  N   UNL     1      -1.661  15.382  19.897  0.00  0.00    +0.000 N 
ATOM     13  H   UNL     1       0.972   9.024  20.849  0.00  0.00    +0.000 HD
ATOM     14  H   UNL     1      -2.242  16.200  19.750  0.00  0.00    +0.000 HD
ENDROOT
BRANCH  12  15
ATOM     15  C   UNL     1      -0.298  15.655  19.636  0.00  0.00    +0.000 A 
ATOM     16  C   UNL     1       0.748  14.998  20.307  0.00  0.00    +0.000 A 
ATOM     17  C   UNL     1       2.105  15.246  20.108  0.00  0.00    +0.000 A 
ATOM     18  C   UNL     1       2.510  16.206  19.201  0.00  0.00    +0.000 A 
ATOM     19  C   UNL     1       1.491  16.864  18.519  0.00  0.00    +0.000 A 
ATOM     20  O   UNL     1       1.700  17.820  17.575  0.00  0.00    +0.000 OA
ATOM     21  C   UNL     1       0.481  18.209  17.132  0.00  0.00    +0.000 A 
ATOM     22  C   UNL     1      -0.516  17.520  17.783  0.00  0.00    +0.000 A 
ATOM     23  C   UNL     1       0.126  16.630  18.697  0.00  0.00    +0.000 A 
ENDBRANCH  12  15
BRANCH   6  24
ATOM     24  C   UNL     1       1.946   7.675  19.671  0.00  0.00    +0.000 A 
ATOM     25  C   UNL     1       2.799   7.466  18.586  0.00  0.00    +0.000 A 
ATOM     26  C   UNL     1       3.373   6.213  18.357  0.00  0.00    +0.000 A 
ATOM     27  C   UNL     1       3.110   5.160  19.229  0.00  0.00    +0.000 A 
ATOM     28  C   UNL     1       2.306   5.382  20.338  0.00  0.00    +0.000 A 
ATOM     29  F   UNL     1       2.058   4.374  21.185  0.00  0.00    +0.000 F 
ATOM     30  C   UNL     1       1.732   6.628  20.576  0.00  0.00    +0.000 A 
ENDBRANCH   6  24
BRANCH   1  32
ATOM     31  C   UNL     1      -0.818  13.663  23.061  0.00  0.00    +0.000 C 
ATOM     32  C   UNL     1      -1.369  12.288  22.694  0.00  0.00    +0.000 C 
ATOM     33  C   UNL     1      -2.666  11.936  23.425  0.00  0.00    +0.000 C 
ENDBRANCH   1  32
BRANCH  11  34
ATOM     34  C   UNL     1      -4.194  15.384  20.936  0.00  0.00    +0.000 C 
ATOM     35  N   UNL     1      -4.711  16.418  21.046  0.00  0.00    +0.000 NA
ENDBRANCH  11  34
TORSDOF 4
ENDMDL
MODEL 8
REMARK VINA RESULT:      -7.4      3.225      5.783
REMARK  Name = 
REMARK  6 active torsions:
REMARK  status: ('A' for Active; 'I' for Inactive)
REMARK    1  A    between atoms: C_1  and  C_2
REMARK    2  A    between atoms: C_2  and  C_3
REMARK    3  A    between atoms: C_2  and  C_4
REMARK    4  A    between atoms: N_9  and  C_10
REMARK    5  A    between atoms: N_21  and  C_22
REMARK    6  A    between atoms: N_24  and  C_25
REMARK                            x       y       z     vdW  Elec       q    Type
REMARK                         _______ _______ _______ _____ _____    ______ ____
ROOT
ATOM      1  C   UNL     1      -0.295  13.428  20.968  0.00  0.00    +0.000 C 
ATOM      2  C   UNL     1      -0.397  11.982  20.366  0.00  0.00    +0.000 C 
ATOM      3  N   UNL     1      -0.364  10.936  21.396  0.00  0.00    +0.000 N 
ATOM      4  C   UNL     1       0.156   9.651  21.253  0.00  0.00    +0.000 C 
ATOM      5  O   UNL     1      -0.016   8.815  22.134  0.00  0.00    +0.000 OA
ATOM      6  N   UNL     1       0.874   9.427  20.102  0.00  0.00    +0.000 N 
ATOM      7  C   UNL     1      -1.278  11.160  22.530  0.00  0.00    +0.000 C 
ATOM      8  C   UNL     1      -1.182  12.587  23.075  0.00  0.00    +0.000 C 
ATOM      9  N   UNL     1      -1.398  13.564  21.971  0.00  0.00    +0.000 N 
ATOM     10  C   UNL     1      -2.078  14.716  22.334  0.00  0.00    +0.000 C 
ATOM     11  N   UNL     1      -1.414  15.762  22.740  0.00  0.00    +0.000 NA
ATOM     12  N   UNL     1      -3.462  14.585  22.408  0.00  0.00    +0.000 N 
ATOM     13  H   UNL     1       1.114  10.219  19.533  0.00  0.00    +0.000 HD
ATOM     14  H   UNL     1      -3.952  15.292  22.946  0.00  0.00    +0.000 HD
ENDROOT
BRANCH  12  15
ATOM     15  C   UNL     1      -4.360  13.679  21.797  0.00  0.00    +0.000 A 
ATOM     16  C   UNL     1      -4.232  13.274  20.457  0.00  0.00    +0.000 A 
ATOM     17  C   UNL     1      -5.101  12.406  19.798  0.00  0.00    +0.000 A 
ATOM     18  C   UNL     1      -6.193  11.881  20.461  0.00  0.00    +0.000 A 
ATOM     19  C   UNL     1      -6.336  12.262  21.792  0.00  0.00    +0.000 A 
ATOM     20  O   UNL     1      -7.334  11.828  22.606  0.00  0.00    +0.000 OA
ATOM     21  C   UNL     1      -7.131  12.398  23.817  0.00  0.00    +0.000 A 
ATOM     22  C   UNL     1      -6.014  13.202  23.795  0.00  0.00    +0.000 A 
ATOM     23  C   UNL     1      -5.476  13.125  22.475  0.00  0.00    +0.000 A 
ENDBRANCH  12  15
BRANCH   6  24
ATOM     24  C   UNL     1       1.552   8.240  19.751  0.00  0.00    +0.000 A 
ATOM     25  C   UNL     1       2.209   8.055  18.533  0.00  0.00    +0.000 A 
ATOM     26  C   UNL     1       2.763   6.817  18.200  0.00  0.00    +0.000 A 
ATOM     27  C   UNL     1       2.681   5.756  19.096  0.00  0.00    +0.000 A 
ATOM     28  C   UNL     1       2.076   5.955  20.330  0.00  0.00    +0.000 A 
ATOM     29  F   UNL     1       2.002   4.939  21.200  0.00  0.00    +0.000 F 
ATOM     30  C   UNL     1       1.523   7.186  20.672  0.00  0.00    +0.000 A 
ENDBRANCH   6  24
BRANCH   1  32
ATOM     31  C   UNL     1       0.958  15.411  19.832  0.00  0.00    +0.000 C 
ATOM     32  C   UNL     1      -0.209  14.429  19.786  0.00  0.00    +0.000 C 
ATOM     33  C   UNL     1      -0.402  13.775  18.416  0.00  0.00    +0.000 C 
ENDBRANCH   1  32
BRANCH  11  34
ATOM     34  C   UNL     1      -2.093  16.836  23.150  0.00  0.00    +0.000 C 
ATOM     35  N   UNL     1      -2.627  17.796  23.528  0.00  0.00    +0.000 NA
ENDBRANCH  11  34
TORSDOF 4
ENDMDL
MODEL 9
REMARK VINA RESULT:      -7.4      3.296      5.834
REMARK  Name = 
REMARK  6 active torsions:
REMARK  status: ('A' for Active; 'I' for Inactive)
REMARK    1  A    between atoms: C_1  and  C_2
REMARK    2  A    between atoms: C_2  and  C_3
REMARK    3  A    between atoms: C_2  and  C_4
REMARK    4  A    between atoms: N_9  and  C_10
REMARK    5  A    between atoms: N_21  and  C_22
REMARK    6  A    between atoms: N_24  and  C_25
REMARK                            x       y       z     vdW  Elec       q    Type
REMARK                         _______ _______ _______ _____ _____    ______ ____
ROOT
ATOM      1  C   UNL     1      -0.261  13.380  20.792  0.00  0.00    +0.000 C 
ATOM      2  C   UNL     1      -0.382  11.908  20.259  0.00  0.00    +0.000 C 
ATOM      3  N   UNL     1      -0.340  10.910  21.335  0.00  0.00    +0.000 N 
ATOM      4  C   UNL     1       0.170   9.616  21.244  0.00  0.00    +0.000 C 
ATOM      5  O   UNL     1       0.006   8.823  22.165  0.00  0.00    +0.000 OA
ATOM      6  N   UNL     1       0.868   9.335  20.093  0.00  0.00    +0.000 N 
ATOM      7  C   UNL     1      -1.233  11.193  22.473  0.00  0.00    +0.000 C 
ATOM      8  C   UNL     1      -1.120  12.642  22.949  0.00  0.00    +0.000 C 
ATOM      9  N   UNL     1      -1.347  13.569  21.806  0.00  0.00    +0.000 N 
ATOM     10  C   UNL     1      -2.014  14.742  22.125  0.00  0.00    +0.000 C 
ATOM     11  N   UNL     1      -1.336  15.800  22.472  0.00  0.00    +0.000 NA
ATOM     12  N   UNL     1      -3.396  14.624  22.228  0.00  0.00    +0.000 N 
ATOM     13  H   UNL     1       1.103  10.098  19.485  0.00  0.00    +0.000 HD
ATOM     14  H   UNL     1      -3.873  15.358  22.740  0.00  0.00    +0.000 HD
ENDROOT
BRANCH  12  15
ATOM     15  C   UNL     1      -4.310  13.698  21.673  0.00  0.00    +0.000 A 
ATOM     16  C   UNL     1      -4.221  13.248  20.345  0.00  0.00    +0.000 A 
ATOM     17  C   UNL     1      -5.106  12.358  19.740  0.00  0.00    +0.000 A 
ATOM     18  C   UNL     1      -6.178  11.854  20.452  0.00  0.00    +0.000 A 
ATOM     19  C   UNL     1      -6.283  12.280  21.772  0.00  0.00    +0.000 A 
ATOM     20  O   UNL     1      -7.256  11.872  22.629  0.00  0.00    +0.000 OA
ATOM     21  C   UNL     1      -7.019  12.482  23.814  0.00  0.00    +0.000 A 
ATOM     22  C   UNL     1      -5.906  13.287  23.733  0.00  0.00    +0.000 A 
ATOM     23  C   UNL     1      -5.406  13.166  22.401  0.00  0.00    +0.000 A 
ENDBRANCH  12  15
BRANCH   6  24
ATOM     24  C   UNL     1       1.532   8.127  19.787  0.00  0.00    +0.000 A 
ATOM     25  C   UNL     1       1.511   7.002  20.613  0.00  0.00    +0.000 A 
ATOM     26  C   UNL     1       2.281   5.877  20.311  0.00  0.00    +0.000 A 
ATOM     27  C   UNL     1       3.066   5.863  19.162  0.00  0.00    +0.000 A 
ATOM     28  C   UNL     1       3.045   6.959  18.311  0.00  0.00    +0.000 A 
ATOM     29  F   UNL     1       3.792   6.946  17.199  0.00  0.00    +0.000 F 
ATOM     30  C   UNL     1       2.278   8.084  18.603  0.00  0.00    +0.000 A 
ENDBRANCH   6  24
BRANCH   1  32
ATOM     31  C   UNL     1       0.977  15.310  19.554  0.00  0.00    +0.000 C 
ATOM     32  C   UNL     1      -0.188  14.324  19.564  0.00  0.00    +0.000 C 
ATOM     33  C   UNL     1      -0.390  13.607  18.228  0.00  0.00    +0.000 C 
ENDBRANCH   1  32
BRANCH  11  34
ATOM     34  C   UNL     1      -2.001  16.897  22.844  0.00  0.00    +0.000 C 
ATOM     35  N   UNL     1      -2.634  17.814  23.171  0.00  0.00    +0.000 NA
ENDBRANCH  11  34
TORSDOF 4
ENDMDL
