MODEL 1
REMARK VINA RESULT:      -7.1      0.000      0.000
REMARK  Name = 
REMARK  7 active torsions:
REMARK  status: ('A' for Active; 'I' for Inactive)
REMARK    1  A    between atoms: C_2  and  C_3
REMARK    2  A    between atoms: C_3  and  N_4
REMARK    3  A    between atoms: N_4  and  C_5
REMARK    4  A    between atoms: C_9  and  S_10
REMARK    5  A    between atoms: S_10  and  C_11
REMARK    6  A    between atoms: C_11  and  C_12
REMARK    7  A    between atoms: C_12  and  C_13
REMARK                            x       y       z     vdW  Elec       q    Type
REMARK                         _______ _______ _______ _____ _____    ______ ____
ROOT
ATOM      1  C   UNL     1       5.001   4.529  16.619  0.00  0.00    +0.000 C 
ATOM      2  C   UNL     1       5.718   5.285  17.745  0.00  0.00    +0.000 C 
ATOM      3  C   UNL     1       4.648   5.610  18.797  0.00  0.00    +0.000 C 
ATOM      4  C   UNL     1       3.694   4.460  18.657  0.00  0.00    +0.000 A 
ATOM      5  C   UNL     1       2.675   4.005  19.501  0.00  0.00    +0.000 A 
ATOM      6  C   UNL     1       1.925   2.900  19.067  0.00  0.00    +0.000 A 
ATOM      7  C   UNL     1       2.146   2.292  17.822  0.00  0.00    +0.000 A 
ATOM      8  C   UNL     1       3.143   2.771  16.976  0.00  0.00    +0.000 A 
ATOM      9  C   UNL     1       3.914   3.835  17.405  0.00  0.00    +0.000 A 
ENDROOT
BRANCH   1  10
ATOM     10  N   UNL     1       5.885   3.612  15.904  0.00  0.00    +0.000 NA
ATOM     11  H   UNL     1       6.546   3.200  16.563  0.00  0.00    +0.000 HD
BRANCH  10  12
ATOM     12  C   UNL     1       6.634   4.309  14.865  0.00  0.00    +0.000 C 
BRANCH  12  14
ATOM     13  C   UNL     1       5.889   3.299  12.336  0.00  0.00    +0.000 C 
ATOM     14  C   UNL     1       6.233   3.765  13.504  0.00  0.00    +0.000 C 
ENDBRANCH  12  14
ENDBRANCH  10  12
ENDBRANCH   1  10
BRANCH   5  15
ATOM     15  S   UNL     1       2.220   4.614  21.117  0.00  0.00    +0.000 S 
BRANCH  15  16
ATOM     16  C   UNL     1       1.278   6.131  20.756  0.00  0.00    +0.000 C 
BRANCH  16  17
ATOM     17  C   UNL     1       2.074   7.430  20.621  0.00  0.00    +0.000 C 
BRANCH  17  18
ATOM     18  C   UNL     1       1.152   8.644  20.597  0.00  0.00    +0.000 A 
ATOM     19  C   UNL     1       0.939   9.382  19.413  0.00  0.00    +0.000 A 
ATOM     20  C   UNL     1       0.096  10.507  19.421  0.00  0.00    +0.000 A 
ATOM     21  C   UNL     1      -0.557  10.901  20.587  0.00  0.00    +0.000 A 
ATOM     22 CL   UNL     1      -1.575  12.289  20.510  0.00  0.00    +0.000 Cl
ATOM     23  C   UNL     1      -0.363  10.164  21.763  0.00  0.00    +0.000 A 
ATOM     24 CL   UNL     1      -1.136  10.581  23.246  0.00  0.00    +0.000 Cl
ATOM     25  C   UNL     1       0.485   9.045  21.750  0.00  0.00    +0.000 A 
ENDBRANCH  17  18
ENDBRANCH  16  17
ENDBRANCH  15  16
ENDBRANCH   5  15
TORSDOF 7
ENDMDL
MODEL 2
REMARK VINA RESULT:      -7.0      0.642      1.447
REMARK  Name = 
REMARK  7 active torsions:
REMARK  status: ('A' for Active; 'I' for Inactive)
REMARK    1  A    between atoms: C_2  and  C_3
REMARK    2  A    between atoms: C_3  and  N_4
REMARK    3  A    between atoms: N_4  and  C_5
REMARK    4  A    between atoms: C_9  and  S_10
REMARK    5  A    between atoms: S_10  and  C_11
REMARK    6  A    between atoms: C_11  and  C_12
REMARK    7  A    between atoms: C_12  and  C_13
REMARK                            x       y       z     vdW  Elec       q    Type
REMARK                         _______ _______ _______ _____ _____    ______ ____
ROOT
ATOM      1  C   UNL     1       5.085   4.600  16.683  0.00  0.00    +0.000 C 
ATOM      2  C   UNL     1       5.800   5.343  17.820  0.00  0.00    +0.000 C 
ATOM      3  C   UNL     1       4.723   5.682  18.860  0.00  0.00    +0.000 C 
ATOM      4  C   UNL     1       3.754   4.546  18.705  0.00  0.00    +0.000 A 
ATOM      5  C   UNL     1       2.717   4.105  19.537  0.00  0.00    +0.000 A 
ATOM      6  C   UNL     1       1.957   3.012  19.091  0.00  0.00    +0.000 A 
ATOM      7  C   UNL     1       2.183   2.404  17.848  0.00  0.00    +0.000 A 
ATOM      8  C   UNL     1       3.198   2.869  17.014  0.00  0.00    +0.000 A 
ATOM      9  C   UNL     1       3.979   3.921  17.455  0.00  0.00    +0.000 A 
ENDROOT
BRANCH   1  10
ATOM     10  N   UNL     1       5.964   3.672  15.976  0.00  0.00    +0.000 NA
ATOM     11  H   UNL     1       6.632   3.273  16.636  0.00  0.00    +0.000 HD
BRANCH  10  12
ATOM     12  C   UNL     1       6.702   4.351  14.919  0.00  0.00    +0.000 C 
BRANCH  12  14
ATOM     13  C   UNL     1       5.858   3.368  12.410  0.00  0.00    +0.000 C 
ATOM     14  C   UNL     1       6.248   3.822  13.568  0.00  0.00    +0.000 C 
ENDBRANCH  12  14
ENDBRANCH  10  12
ENDBRANCH   1  10
BRANCH   5  15
ATOM     15  S   UNL     1       2.253   4.718  21.148  0.00  0.00    +0.000 S 
BRANCH  15  16
ATOM     16  C   UNL     1       1.163   6.129  20.775  0.00  0.00    +0.000 C 
BRANCH  16  17
ATOM     17  C   UNL     1       1.838   7.446  20.385  0.00  0.00    +0.000 C 
BRANCH  17  18
ATOM     18  C   UNL     1       1.088   8.643  20.959  0.00  0.00    +0.000 A 
ATOM     19  C   UNL     1       0.691   8.683  22.313  0.00  0.00    +0.000 A 
ATOM     20  C   UNL     1      -0.011   9.792  22.813  0.00  0.00    +0.000 A 
ATOM     21  C   UNL     1      -0.311  10.877  21.991  0.00  0.00    +0.000 A 
ATOM     22 CL   UNL     1      -1.173  12.199  22.684  0.00  0.00    +0.000 Cl
ATOM     23  C   UNL     1       0.095  10.852  20.650  0.00  0.00    +0.000 A 
ATOM     24 CL   UNL     1      -0.232  12.154  19.568  0.00  0.00    +0.000 Cl
ATOM     25  C   UNL     1       0.791   9.739  20.155  0.00  0.00    +0.000 A 
ENDBRANCH  17  18
ENDBRANCH  16  17
ENDBRANCH  15  16
ENDBRANCH   5  15
TORSDOF 7
ENDMDL
MODEL 3
REMARK VINA RESULT:      -6.9      2.885      4.197
REMARK  Name = 
REMARK  7 active torsions:
REMARK  status: ('A' for Active; 'I' for Inactive)
REMARK    1  A    between atoms: C_2  and  C_3
REMARK    2  A    between atoms: C_3  and  N_4
REMARK    3  A    between atoms: N_4  and  C_5
REMARK    4  A    between atoms: C_9  and  S_10
REMARK    5  A    between atoms: S_10  and  C_11
REMARK    6  A    between atoms: C_11  and  C_12
REMARK    7  A    between atoms: C_12  and  C_13
REMARK                            x       y       z     vdW  Elec       q    Type
REMARK                         _______ _______ _______ _____ _____    ______ ____
ROOT
ATOM      1  C   UNL     1       4.864   4.732  17.004  0.00  0.00    +0.000 C 
ATOM      2  C   UNL     1       5.373   5.952  16.224  0.00  0.00    +0.000 C 
ATOM      3  C   UNL     1       4.262   7.008  16.300  0.00  0.00    +0.000 C 
ATOM      4  C   UNL     1       3.629   6.719  17.630  0.00  0.00    +0.000 A 
ATOM      5  C   UNL     1       2.762   7.483  18.420  0.00  0.00    +0.000 A 
ATOM      6  C   UNL     1       2.314   6.911  19.621  0.00  0.00    +0.000 A 
ATOM      7  C   UNL     1       2.674   5.613  20.009  0.00  0.00    +0.000 A 
ATOM      8  C   UNL     1       3.514   4.848  19.201  0.00  0.00    +0.000 A 
ATOM      9  C   UNL     1       3.993   5.411  18.033  0.00  0.00    +0.000 A 
ENDROOT
BRANCH   1  10
ATOM     10  N   UNL     1       5.948   3.940  17.581  0.00  0.00    +0.000 NA
ATOM     11  H   UNL     1       5.805   3.858  18.588  0.00  0.00    +0.000 HD
BRANCH  10  12
ATOM     12  C   UNL     1       7.241   4.570  17.344  0.00  0.00    +0.000 C 
BRANCH  12  14
ATOM     13  C   UNL     1       8.057   5.938  19.675  0.00  0.00    +0.000 C 
ATOM     14  C   UNL     1       7.680   5.306  18.600  0.00  0.00    +0.000 C 
ENDBRANCH  12  14
ENDBRANCH  10  12
ENDBRANCH   1  10
BRANCH   5  15
ATOM     15  S   UNL     1       2.177   9.145  18.131  0.00  0.00    +0.000 S 
BRANCH  15  16
ATOM     16  C   UNL     1       0.912   9.387  19.420  0.00  0.00    +0.000 C 
BRANCH  16  17
ATOM     17  C   UNL     1       0.418  10.816  19.650  0.00  0.00    +0.000 C 
BRANCH  17  18
ATOM     18  C   UNL     1      -0.962  11.030  19.039  0.00  0.00    +0.000 A 
ATOM     19  C   UNL     1      -1.901  11.904  19.629  0.00  0.00    +0.000 A 
ATOM     20  C   UNL     1      -3.171  12.072  19.054  0.00  0.00    +0.000 A 
ATOM     21  C   UNL     1      -3.520  11.400  17.885  0.00  0.00    +0.000 A 
ATOM     22 CL   UNL     1      -5.097  11.665  17.242  0.00  0.00    +0.000 Cl
ATOM     23  C   UNL     1      -2.588  10.544  17.283  0.00  0.00    +0.000 A 
ATOM     24 CL   UNL     1      -2.938   9.678  15.834  0.00  0.00    +0.000 Cl
ATOM     25  C   UNL     1      -1.322  10.375  17.866  0.00  0.00    +0.000 A 
ENDBRANCH  17  18
ENDBRANCH  16  17
ENDBRANCH  15  16
ENDBRANCH   5  15
TORSDOF 7
ENDMDL
MODEL 4
REMARK VINA RESULT:      -6.9      4.263      8.235
REMARK  Name = 
REMARK  7 active torsions:
REMARK  status: ('A' for Active; 'I' for Inactive)
REMARK    1  A    between atoms: C_2  and  C_3
REMARK    2  A    between atoms: C_3  and  N_4
REMARK    3  A    between atoms: N_4  and  C_5
REMARK    4  A    between atoms: C_9  and  S_10
REMARK    5  A    between atoms: S_10  and  C_11
REMARK    6  A    between atoms: C_11  and  C_12
REMARK    7  A    between atoms: C_12  and  C_13
REMARK                            x       y       z     vdW  Elec       q    Type
REMARK                         _______ _______ _______ _____ _____    ______ ____
ROOT
ATOM      1  C   UNL     1       0.622  10.481  20.027  0.00  0.00    +0.000 C 
ATOM      2  C   UNL     1       0.692  10.067  21.503  0.00  0.00    +0.000 C 
ATOM      3  C   UNL     1       0.708   8.532  21.521  0.00  0.00    +0.000 C 
ATOM      4  C   UNL     1       1.407   8.200  20.234  0.00  0.00    +0.000 A 
ATOM      5  C   UNL     1       1.989   7.007  19.788  0.00  0.00    +0.000 A 
ATOM      6  C   UNL     1       2.548   7.008  18.500  0.00  0.00    +0.000 A 
ATOM      7  C   UNL     1       2.494   8.132  17.664  0.00  0.00    +0.000 A 
ATOM      8  C   UNL     1       1.885   9.305  18.106  0.00  0.00    +0.000 A 
ATOM      9  C   UNL     1       1.363   9.332  19.386  0.00  0.00    +0.000 A 
ENDROOT
BRANCH   1  10
ATOM     10  N   UNL     1       1.231  11.785  19.778  0.00  0.00    +0.000 NA
ATOM     11  H   UNL     1       1.797  12.052  20.585  0.00  0.00    +0.000 HD
BRANCH  10  12
ATOM     12  C   UNL     1       0.214  12.807  19.564  0.00  0.00    +0.000 C 
BRANCH  12  14
ATOM     13  C   UNL     1      -1.764  11.806  17.816  0.00  0.00    +0.000 C 
ATOM     14  C   UNL     1      -0.851  12.268  18.623  0.00  0.00    +0.000 C 
ENDBRANCH  12  14
ENDBRANCH  10  12
ENDBRANCH   1  10
BRANCH   5  15
ATOM     15  S   UNL     1       2.174   5.467  20.671  0.00  0.00    +0.000 S 
BRANCH  15  16
ATOM     16  C   UNL     1       2.695   4.290  19.382  0.00  0.00    +0.000 C 
BRANCH  16  17
ATOM     17  C   UNL     1       4.137   3.786  19.440  0.00  0.00    +0.000 C 
BRANCH  17  18
ATOM     18  C   UNL     1       4.911   4.176  18.186  0.00  0.00    +0.000 A 
ATOM     19  C   UNL     1       4.725   3.493  16.965  0.00  0.00    +0.000 A 
ATOM     20  C   UNL     1       5.462   3.862  15.827  0.00  0.00    +0.000 A 
ATOM     21  C   UNL     1       6.371   4.917  15.877  0.00  0.00    +0.000 A 
ATOM     22 CL   UNL     1       7.231   5.308  14.435  0.00  0.00    +0.000 Cl
ATOM     23  C   UNL     1       6.549   5.611  17.081  0.00  0.00    +0.000 A 
ATOM     24 CL   UNL     1       7.649   6.931  17.226  0.00  0.00    +0.000 Cl
ATOM     25  C   UNL     1       5.814   5.233  18.216  0.00  0.00    +0.000 A 
ENDBRANCH  17  18
ENDBRANCH  16  17
ENDBRANCH  15  16
ENDBRANCH   5  15
TORSDOF 7
ENDMDL
MODEL 5
REMARK VINA RESULT:      -6.9      5.210      9.672
REMARK  Name = 
REMARK  7 active torsions:
REMARK  status: ('A' for Active; 'I' for Inactive)
REMARK    1  A    between atoms: C_2  and  C_3
REMARK    2  A    between atoms: C_3  and  N_4
REMARK    3  A    between atoms: N_4  and  C_5
REMARK    4  A    between atoms: C_9  and  S_10
REMARK    5  A    between atoms: S_10  and  C_11
REMARK    6  A    between atoms: C_11  and  C_12
REMARK    7  A    between atoms: C_12  and  C_13
REMARK                            x       y       z     vdW  Elec       q    Type
REMARK                         _______ _______ _______ _____ _____    ______ ____
ROOT
ATOM      1  C   UNL     1      -4.344  11.990  19.044  0.00  0.00    +0.000 C 
ATOM      2  C   UNL     1      -3.587  12.930  19.991  0.00  0.00    +0.000 C 
ATOM      3  C   UNL     1      -2.315  12.185  20.415  0.00  0.00    +0.000 C 
ATOM      4  C   UNL     1      -2.018  11.339  19.211  0.00  0.00    +0.000 A 
ATOM      5  C   UNL     1      -0.857  10.651  18.836  0.00  0.00    +0.000 A 
ATOM      6  C   UNL     1      -0.906   9.911  17.644  0.00  0.00    +0.000 A 
ATOM      7  C   UNL     1      -2.072   9.817  16.872  0.00  0.00    +0.000 A 
ATOM      8  C   UNL     1      -3.231  10.481  17.269  0.00  0.00    +0.000 A 
ATOM      9  C   UNL     1      -3.189  11.243  18.421  0.00  0.00    +0.000 A 
ENDROOT
BRANCH   1  10
ATOM     10  N   UNL     1      -5.169  12.710  18.076  0.00  0.00    +0.000 NA
ATOM     11  H   UNL     1      -4.999  13.712  18.169  0.00  0.00    +0.000 HD
BRANCH  10  12
ATOM     12  C   UNL     1      -6.586  12.454  18.302  0.00  0.00    +0.000 C 
BRANCH  12  14
ATOM     13  C   UNL     1      -6.932   9.776  19.128  0.00  0.00    +0.000 C 
ATOM     14  C   UNL     1      -6.773  11.012  18.747  0.00  0.00    +0.000 C 
ENDBRANCH  12  14
ENDBRANCH  10  12
ENDBRANCH   1  10
BRANCH   5  15
ATOM     15  S   UNL     1       0.729  10.629  19.654  0.00  0.00    +0.000 S 
BRANCH  15  16
ATOM     16  C   UNL     1       1.456   9.038  19.144  0.00  0.00    +0.000 C 
BRANCH  16  17
ATOM     17  C   UNL     1       1.846   8.062  20.254  0.00  0.00    +0.000 C 
BRANCH  17  18
ATOM     18  C   UNL     1       1.949   6.635  19.728  0.00  0.00    +0.000 A 
ATOM     19  C   UNL     1       2.385   6.366  18.412  0.00  0.00    +0.000 A 
ATOM     20  C   UNL     1       2.457   5.043  17.946  0.00  0.00    +0.000 A 
ATOM     21  C   UNL     1       2.121   3.975  18.775  0.00  0.00    +0.000 A 
ATOM     22 CL   UNL     1       2.240   2.383  18.126  0.00  0.00    +0.000 Cl
ATOM     23  C   UNL     1       1.703   4.233  20.088  0.00  0.00    +0.000 A 
ATOM     24 CL   UNL     1       1.274   2.969  21.179  0.00  0.00    +0.000 Cl
ATOM     25  C   UNL     1       1.628   5.557  20.546  0.00  0.00    +0.000 A 
ENDBRANCH  17  18
ENDBRANCH  16  17
ENDBRANCH  15  16
ENDBRANCH   5  15
TORSDOF 7
ENDMDL
MODEL 6
REMARK VINA RESULT:      -6.8      1.740      2.527
REMARK  Name = 
REMARK  7 active torsions:
REMARK  status: ('A' for Active; 'I' for Inactive)
REMARK    1  A    between atoms: C_2  and  C_3
REMARK    2  A    between atoms: C_3  and  N_4
REMARK    3  A    between atoms: N_4  and  C_5
REMARK    4  A    between atoms: C_9  and  S_10
REMARK    5  A    between atoms: S_10  and  C_11
REMARK    6  A    between atoms: C_11  and  C_12
REMARK    7  A    between atoms: C_12  and  C_13
REMARK                            x       y       z     vdW  Elec       q    Type
REMARK                         _______ _______ _______ _____ _____    ______ ____
ROOT
ATOM      1  C   UNL     1       4.770   4.905  16.408  0.00  0.00    +0.000 C 
ATOM      2  C   UNL     1       5.335   6.300  16.703  0.00  0.00    +0.000 C 
ATOM      3  C   UNL     1       4.201   7.095  17.366  0.00  0.00    +0.000 C 
ATOM      4  C   UNL     1       3.436   6.026  18.089  0.00  0.00    +0.000 A 
ATOM      5  C   UNL     1       2.474   6.112  19.103  0.00  0.00    +0.000 A 
ATOM      6  C   UNL     1       1.911   4.909  19.559  0.00  0.00    +0.000 A 
ATOM      7  C   UNL     1       2.253   3.668  19.003  0.00  0.00    +0.000 A 
ATOM      8  C   UNL     1       3.189   3.595  17.974  0.00  0.00    +0.000 A 
ATOM      9  C   UNL     1       3.780   4.767  17.539  0.00  0.00    +0.000 A 
ENDROOT
BRANCH   1  10
ATOM     10  N   UNL     1       5.801   3.870  16.399  0.00  0.00    +0.000 NA
ATOM     11  H   UNL     1       6.219   3.805  17.328  0.00  0.00    +0.000 HD
BRANCH  10  12
ATOM     12  C   UNL     1       6.850   4.181  15.436  0.00  0.00    +0.000 C 
BRANCH  12  14
ATOM     13  C   UNL     1       5.902   3.674  12.825  0.00  0.00    +0.000 C 
ATOM     14  C   UNL     1       6.339   3.908  14.030  0.00  0.00    +0.000 C 
ENDBRANCH  12  14
ENDBRANCH  10  12
ENDBRANCH   1  10
BRANCH   5  15
ATOM     15  S   UNL     1       1.890   7.568  19.954  0.00  0.00    +0.000 S 
BRANCH  15  16
ATOM     16  C   UNL     1       2.079   8.895  18.720  0.00  0.00    +0.000 C 
BRANCH  16  17
ATOM     17  C   UNL     1       0.878   9.184  17.819  0.00  0.00    +0.000 C 
BRANCH  17  18
ATOM     18  C   UNL     1      -0.083  10.169  18.476  0.00  0.00    +0.000 A 
ATOM     19  C   UNL     1       0.297  10.922  19.608  0.00  0.00    +0.000 A 
ATOM     20  C   UNL     1      -0.612  11.813  20.204  0.00  0.00    +0.000 A 
ATOM     21  C   UNL     1      -1.892  11.984  19.679  0.00  0.00    +0.000 A 
ATOM     22 CL   UNL     1      -2.944  13.098  20.468  0.00  0.00    +0.000 Cl
ATOM     23  C   UNL     1      -2.270  11.252  18.546  0.00  0.00    +0.000 A 
ATOM     24 CL   UNL     1      -3.832  11.408  17.832  0.00  0.00    +0.000 Cl
ATOM     25  C   UNL     1      -1.360  10.360  17.959  0.00  0.00    +0.000 A 
ENDBRANCH  17  18
ENDBRANCH  16  17
ENDBRANCH  15  16
ENDBRANCH   5  15
TORSDOF 7
ENDMDL
MODEL 7
REMARK VINA RESULT:      -6.8      1.583      3.134
REMARK  Name = 
REMARK  7 active torsions:
REMARK  status: ('A' for Active; 'I' for Inactive)
REMARK    1  A    between atoms: C_2  and  C_3
REMARK    2  A    between atoms: C_3  and  N_4
REMARK    3  A    between atoms: N_4  and  C_5
REMARK    4  A    between atoms: C_9  and  S_10
REMARK    5  A    between atoms: S_10  and  C_11
REMARK    6  A    between atoms: C_11  and  C_12
REMARK    7  A    between atoms: C_12  and  C_13
REMARK                            x       y       z     vdW  Elec       q    Type
REMARK                         _______ _______ _______ _____ _____    ______ ____
ROOT
ATOM      1  C   UNL     1       6.555   4.513  15.250  0.00  0.00    +0.000 C 
ATOM      2  C   UNL     1       5.060   4.230  15.052  0.00  0.00    +0.000 C 
ATOM      3  C   UNL     1       4.517   3.793  16.419  0.00  0.00    +0.000 C 
ATOM      4  C   UNL     1       5.391   4.553  17.373  0.00  0.00    +0.000 A 
ATOM      5  C   UNL     1       5.242   4.823  18.739  0.00  0.00    +0.000 A 
ATOM      6  C   UNL     1       6.266   5.548  19.367  0.00  0.00    +0.000 A 
ATOM      7  C   UNL     1       7.419   5.956  18.681  0.00  0.00    +0.000 A 
ATOM      8  C   UNL     1       7.573   5.657  17.329  0.00  0.00    +0.000 A 
ATOM      9  C   UNL     1       6.556   4.975  16.688  0.00  0.00    +0.000 A 
ENDROOT
BRANCH   1  10
ATOM     10  N   UNL     1       7.070   5.508  14.313  0.00  0.00    +0.000 NA
ATOM     11  H   UNL     1       6.292   6.055  13.942  0.00  0.00    +0.000 HD
BRANCH  10  12
ATOM     12  C   UNL     1       7.763   4.871  13.200  0.00  0.00    +0.000 C 
BRANCH  12  14
ATOM     13  C   UNL     1       6.013   3.060  11.921  0.00  0.00    +0.000 C 
ATOM     14  C   UNL     1       6.821   3.896  12.511  0.00  0.00    +0.000 C 
ENDBRANCH  12  14
ENDBRANCH  10  12
ENDBRANCH   1  10
BRANCH   5  15
ATOM     15  S   UNL     1       3.870   4.410  19.805  0.00  0.00    +0.000 S 
BRANCH  15  16
ATOM     16  C   UNL     1       2.466   5.306  19.068  0.00  0.00    +0.000 C 
BRANCH  16  17
ATOM     17  C   UNL     1       2.745   6.703  18.511  0.00  0.00    +0.000 C 
BRANCH  17  18
ATOM     18  C   UNL     1       2.021   7.775  19.316  0.00  0.00    +0.000 A 
ATOM     19  C   UNL     1       1.708   7.587  20.680  0.00  0.00    +0.000 A 
ATOM     20  C   UNL     1       1.026   8.585  21.395  0.00  0.00    +0.000 A 
ATOM     21  C   UNL     1       0.666   9.783  20.781  0.00  0.00    +0.000 A 
ATOM     22 CL   UNL     1      -0.165  10.957  21.732  0.00  0.00    +0.000 Cl
ATOM     23  C   UNL     1       0.987   9.985  19.433  0.00  0.00    +0.000 A 
ATOM     24 CL   UNL     1       0.582  11.439  18.600  0.00  0.00    +0.000 Cl
ATOM     25  C   UNL     1       1.663   8.981  18.722  0.00  0.00    +0.000 A 
ENDBRANCH  17  18
ENDBRANCH  16  17
ENDBRANCH  15  16
ENDBRANCH   5  15
TORSDOF 7
ENDMDL
MODEL 8
REMARK VINA RESULT:      -6.7      3.637      6.074
REMARK  Name = 
REMARK  7 active torsions:
REMARK  status: ('A' for Active; 'I' for Inactive)
REMARK    1  A    between atoms: C_2  and  C_3
REMARK    2  A    between atoms: C_3  and  N_4
REMARK    3  A    between atoms: N_4  and  C_5
REMARK    4  A    between atoms: C_9  and  S_10
REMARK    5  A    between atoms: S_10  and  C_11
REMARK    6  A    between atoms: C_11  and  C_12
REMARK    7  A    between atoms: C_12  and  C_13
REMARK                            x       y       z     vdW  Elec       q    Type
REMARK                         _______ _______ _______ _____ _____    ______ ____
ROOT
ATOM      1  C   UNL     1       2.708   6.466  19.037  0.00  0.00    +0.000 C 
ATOM      2  C   UNL     1       3.404   7.284  17.941  0.00  0.00    +0.000 C 
ATOM      3  C   UNL     1       2.498   8.491  17.661  0.00  0.00    +0.000 C 
ATOM      4  C   UNL     1       1.857   8.732  18.997  0.00  0.00    +0.000 A 
ATOM      5  C   UNL     1       1.157   9.839  19.492  0.00  0.00    +0.000 A 
ATOM      6  C   UNL     1       0.645   9.744  20.796  0.00  0.00    +0.000 A 
ATOM      7  C   UNL     1       0.781   8.581  21.568  0.00  0.00    +0.000 A 
ATOM      8  C   UNL     1       1.453   7.474  21.055  0.00  0.00    +0.000 A 
ATOM      9  C   UNL     1       1.995   7.565  19.787  0.00  0.00    +0.000 A 
ENDROOT
BRANCH   1  10
ATOM     10  N   UNL     1       3.650   5.709  19.858  0.00  0.00    +0.000 NA
ATOM     11  H   UNL     1       4.603   5.981  19.615  0.00  0.00    +0.000 HD
BRANCH  10  12
ATOM     12  C   UNL     1       3.504   4.275  19.638  0.00  0.00    +0.000 C 
BRANCH  12  14
ATOM     13  C   UNL     1       0.932   3.458  20.471  0.00  0.00    +0.000 C 
ATOM     14  C   UNL     1       2.119   3.835  20.087  0.00  0.00    +0.000 C 
ENDBRANCH  12  14
ENDBRANCH  10  12
ENDBRANCH   1  10
BRANCH   5  15
ATOM     15  S   UNL     1       0.866  11.411  18.698  0.00  0.00    +0.000 S 
BRANCH  15  16
ATOM     16  C   UNL     1      -0.923  11.680  18.915  0.00  0.00    +0.000 C 
BRANCH  16  17
ATOM     17  C   UNL     1      -1.858  10.966  17.937  0.00  0.00    +0.000 C 
BRANCH  17  18
ATOM     18  C   UNL     1      -3.297  11.441  18.100  0.00  0.00    +0.000 A 
ATOM     19  C   UNL     1      -4.249  11.268  17.072  0.00  0.00    +0.000 A 
ATOM     20  C   UNL     1      -5.566  11.728  17.241  0.00  0.00    +0.000 A 
ATOM     21  C   UNL     1      -5.960  12.343  18.428  0.00  0.00    +0.000 A 
ATOM     22 CL   UNL     1      -7.594  12.875  18.555  0.00  0.00    +0.000 Cl
ATOM     23  C   UNL     1      -5.025  12.503  19.459  0.00  0.00    +0.000 A 
ATOM     24 CL   UNL     1      -5.432  13.249  20.959  0.00  0.00    +0.000 Cl
ATOM     25  C   UNL     1      -3.710  12.047  19.282  0.00  0.00    +0.000 A 
ENDBRANCH  17  18
ENDBRANCH  16  17
ENDBRANCH  15  16
ENDBRANCH   5  15
TORSDOF 7
ENDMDL
MODEL 9
REMARK VINA RESULT:      -6.7      1.508      1.947
REMARK  Name = 
REMARK  7 active torsions:
REMARK  status: ('A' for Active; 'I' for Inactive)
REMARK    1  A    between atoms: C_2  and  C_3
REMARK    2  A    between atoms: C_3  and  N_4
REMARK    3  A    between atoms: N_4  and  C_5
REMARK    4  A    between atoms: C_9  and  S_10
REMARK    5  A    between atoms: S_10  and  C_11
REMARK    6  A    between atoms: C_11  and  C_12
REMARK    7  A    between atoms: C_12  and  C_13
REMARK                            x       y       z     vdW  Elec       q    Type
REMARK                         _______ _______ _______ _____ _____    ______ ____
ROOT
ATOM      1  C   UNL     1       4.930   4.711  16.520  0.00  0.00    +0.000 C 
ATOM      2  C   UNL     1       5.658   5.553  17.576  0.00  0.00    +0.000 C 
ATOM      3  C   UNL     1       4.576   6.097  18.518  0.00  0.00    +0.000 C 
ATOM      4  C   UNL     1       3.537   5.014  18.478  0.00  0.00    +0.000 A 
ATOM      5  C   UNL     1       2.448   4.755  19.319  0.00  0.00    +0.000 A 
ATOM      6  C   UNL     1       1.629   3.663  18.991  0.00  0.00    +0.000 A 
ATOM      7  C   UNL     1       1.851   2.880  17.850  0.00  0.00    +0.000 A 
ATOM      8  C   UNL     1       2.920   3.164  17.002  0.00  0.00    +0.000 A 
ATOM      9  C   UNL     1       3.757   4.213  17.331  0.00  0.00    +0.000 A 
ENDROOT
BRANCH   1  10
ATOM     10  N   UNL     1       5.765   3.642  15.977  0.00  0.00    +0.000 NA
ATOM     11  H   UNL     1       6.307   3.223  16.733  0.00  0.00    +0.000 HD
BRANCH  10  12
ATOM     12  C   UNL     1       6.686   4.156  14.971  0.00  0.00    +0.000 C 
BRANCH  12  14
ATOM     13  C   UNL     1       5.758   3.443  12.402  0.00  0.00    +0.000 C 
ATOM     14  C   UNL     1       6.187   3.772  13.588  0.00  0.00    +0.000 C 
ENDBRANCH  12  14
ENDBRANCH  10  12
ENDBRANCH   1  10
BRANCH   5  15
ATOM     15  S   UNL     1       1.977   5.607  20.815  0.00  0.00    +0.000 S 
BRANCH  15  16
ATOM     16  C   UNL     1       1.802   7.342  20.287  0.00  0.00    +0.000 C 
BRANCH  16  17
ATOM     17  C   UNL     1       0.895   8.239  21.131  0.00  0.00    +0.000 C 
BRANCH  17  18
ATOM     18  C   UNL     1       0.586   9.547  20.413  0.00  0.00    +0.000 A 
ATOM     19  C   UNL     1      -0.659  10.195  20.567  0.00  0.00    +0.000 A 
ATOM     20  C   UNL     1      -0.924  11.393  19.882  0.00  0.00    +0.000 A 
ATOM     21  C   UNL     1       0.039  11.972  19.058  0.00  0.00    +0.000 A 
ATOM     22 CL   UNL     1      -0.366  13.443  18.257  0.00  0.00    +0.000 Cl
ATOM     23  C   UNL     1       1.283  11.344  18.913  0.00  0.00    +0.000 A 
ATOM     24 CL   UNL     1       2.530  11.996  17.916  0.00  0.00    +0.000 Cl
ATOM     25  C   UNL     1       1.540  10.144  19.595  0.00  0.00    +0.000 A 
ENDBRANCH  17  18
ENDBRANCH  16  17
ENDBRANCH  15  16
ENDBRANCH   5  15
TORSDOF 7
ENDMDL
