MODEL 1
REMARK VINA RESULT:      -7.3      0.000      0.000
REMARK  Name = 
REMARK  13 active torsions:
REMARK  status: ('A' for Active; 'I' for Inactive)
REMARK    1  A    between atoms: C_1  and  O_2
REMARK    2  A    between atoms: O_2  and  C_3
REMARK    3  A    between atoms: C_3  and  C_4
REMARK    4  A    between atoms: C_4  and  C_5
REMARK    5  A    between atoms: C_4  and  C_6
REMARK    6  A    between atoms: C_4  and  C_7
REMARK    7  A    between atoms: C_7  and  N_8
REMARK    8  A    between atoms: C_9  and  C_11
REMARK    9  A    between atoms: C_16  and  N_17
REMARK   10  A    between atoms: C_18  and  C_20
REMARK   11  A    between atoms: C_22  and  C_23
REMARK   12  A    between atoms: C_28  and  N_29
REMARK   13  A    between atoms: N_29  and  C_30
REMARK                            x       y       z     vdW  Elec       q    Type
REMARK                         _______ _______ _______ _____ _____    ______ ____
ROOT
ATOM      1  N   UNL     1       3.586   3.826  16.703  0.00  0.00    +0.000 N 
ATOM      2  C   UNL     1       4.975   3.739  16.889  0.00  0.00    +0.000 C 
ATOM      3  O   UNL     1       5.522   3.346  17.919  0.00  0.00    +0.000 OA
ATOM      4  H   UNL     1       3.234   3.958  15.751  0.00  0.00    +0.000 HD
ENDROOT
BRANCH   1  10
ATOM      5  C   UNL     1       2.299   4.881  18.600  0.00  0.00    +0.000 A 
ATOM      6  C   UNL     1       1.410   4.694  19.678  0.00  0.00    +0.000 A 
ATOM      7  C   UNL     1       0.801   3.469  19.850  0.00  0.00    +0.000 A 
ATOM      8  N   UNL     1       1.049   2.415  19.065  0.00  0.00    +0.000 NA
ATOM      9  C   UNL     1       1.955   2.593  18.067  0.00  0.00    +0.000 A 
ATOM     10  C   UNL     1       2.618   3.787  17.761  0.00  0.00    +0.000 A 
BRANCH   5  12
ATOM     11  N   UNL     1       1.900   7.214  17.954  0.00  0.00    +0.000 N 
ATOM     12  C   UNL     1       2.828   6.269  18.390  0.00  0.00    +0.000 C 
ATOM     13  O   UNL     1       4.013   6.498  18.591  0.00  0.00    +0.000 OA
ATOM     14  H   UNL     1       0.943   6.940  17.792  0.00  0.00    +0.000 HD
BRANCH  11  15
ATOM     15  C   UNL     1       2.183   8.632  17.733  0.00  0.00    +0.000 C 
BRANCH  15  16
ATOM     16  C   UNL     1       1.282   9.634  18.513  0.00  0.00    +0.000 C 
ATOM     17  C   UNL     1       1.121   9.279  20.006  0.00  0.00    +0.000 C 
ATOM     18  C   UNL     1      -0.114   9.668  17.874  0.00  0.00    +0.000 C 
BRANCH  16  19
ATOM     19  C   UNL     1       1.930  11.044  18.451  0.00  0.00    +0.000 C 
BRANCH  19  21
ATOM     20  C   UNL     1       1.736  12.985  19.781  0.00  0.00    +0.000 C 
ATOM     21  O   UNL     1       1.050  12.028  18.986  0.00  0.00    +0.000 OA
ENDBRANCH  19  21
ENDBRANCH  16  19
ENDBRANCH  15  16
ENDBRANCH  11  15
ENDBRANCH   5  12
ENDBRANCH   1  10
BRANCH   2  22
ATOM     22  C   UNL     1       5.858   4.172  15.753  0.00  0.00    +0.000 A 
ATOM     23  N   UNL     1       5.516   3.681  14.526  0.00  0.00    +0.000 NA
ATOM     24  C   UNL     1       6.246   4.128  13.471  0.00  0.00    +0.000 A 
ATOM     25  C   UNL     1       7.240   5.080  13.658  0.00  0.00    +0.000 A 
ATOM     26  N   UNL     1       7.596   5.548  14.871  0.00  0.00    +0.000 NA
ATOM     27  C   UNL     1       6.931   5.072  15.949  0.00  0.00    +0.000 A 
BRANCH  24  28
ATOM     28  C   UNL     1       5.975   3.600  12.088  0.00  0.00    +0.000 C 
ATOM     29  C   UNL     1       5.676   2.144  11.875  0.00  0.00    +0.000 C 
ATOM     30  C   UNL     1       4.574   3.156  11.758  0.00  0.00    +0.000 C 
ENDBRANCH  24  28
BRANCH  27  31
ATOM     31  N   UNL     1       7.429   5.449  17.218  0.00  0.00    +0.000 N 
ATOM     32  H   UNL     1       8.021   4.725  17.640  0.00  0.00    +0.000 HD
BRANCH  31  33
ATOM     33  C   UNL     1       7.624   6.763  17.678  0.00  0.00    +0.000 A 
ATOM     34  C   UNL     1       7.147   7.913  17.059  0.00  0.00    +0.000 A 
ATOM     35  N   UNL     1       7.475   9.183  17.403  0.00  0.00    +0.000 NA
ATOM     36  C   UNL     1       8.328   9.295  18.430  0.00  0.00    +0.000 A 
ATOM     37  N   UNL     1       8.831   8.288  19.147  0.00  0.00    +0.000 NA
ATOM     38  C   UNL     1       8.457   7.044  18.747  0.00  0.00    +0.000 A 
ENDBRANCH  31  33
ENDBRANCH  27  31
ENDBRANCH   2  22
TORSDOF 10
ENDMDL
MODEL 2
REMARK VINA RESULT:      -7.3      4.793     10.296
REMARK  Name = 
REMARK  13 active torsions:
REMARK  status: ('A' for Active; 'I' for Inactive)
REMARK    1  A    between atoms: C_1  and  O_2
REMARK    2  A    between atoms: O_2  and  C_3
REMARK    3  A    between atoms: C_3  and  C_4
REMARK    4  A    between atoms: C_4  and  C_5
REMARK    5  A    between atoms: C_4  and  C_6
REMARK    6  A    between atoms: C_4  and  C_7
REMARK    7  A    between atoms: C_7  and  N_8
REMARK    8  A    between atoms: C_9  and  C_11
REMARK    9  A    between atoms: C_16  and  N_17
REMARK   10  A    between atoms: C_18  and  C_20
REMARK   11  A    between atoms: C_22  and  C_23
REMARK   12  A    between atoms: C_28  and  N_29
REMARK   13  A    between atoms: N_29  and  C_30
REMARK                            x       y       z     vdW  Elec       q    Type
REMARK                         _______ _______ _______ _____ _____    ______ ____
ROOT
ATOM      1  N   UNL     1      -1.062   9.847  19.876  0.00  0.00    +0.000 N 
ATOM      2  C   UNL     1      -1.261  11.062  19.201  0.00  0.00    +0.000 C 
ATOM      3  O   UNL     1      -0.560  12.064  19.338  0.00  0.00    +0.000 OA
ATOM      4  H   UNL     1      -1.561   9.020  19.537  0.00  0.00    +0.000 HD
ENDROOT
BRANCH   1  10
ATOM      5  C   UNL     1       0.943   8.906  21.085  0.00  0.00    +0.000 A 
ATOM      6  C   UNL     1       1.613   8.731  22.313  0.00  0.00    +0.000 A 
ATOM      7  C   UNL     1       1.154   9.389  23.435  0.00  0.00    +0.000 A 
ATOM      8  N   UNL     1       0.061  10.160  23.432  0.00  0.00    +0.000 NA
ATOM      9  C   UNL     1      -0.609  10.269  22.255  0.00  0.00    +0.000 A 
ATOM     10  C   UNL     1      -0.238   9.686  21.039  0.00  0.00    +0.000 A 
BRANCH   5  12
ATOM     11  N   UNL     1       2.209   7.051  20.097  0.00  0.00    +0.000 N 
ATOM     12  C   UNL     1       1.564   8.268  19.878  0.00  0.00    +0.000 C 
ATOM     13  O   UNL     1       1.492   8.833  18.794  0.00  0.00    +0.000 OA
ATOM     14  H   UNL     1       2.241   6.660  21.026  0.00  0.00    +0.000 HD
BRANCH  11  15
ATOM     15  C   UNL     1       2.838   6.234  19.059  0.00  0.00    +0.000 C 
BRANCH  15  16
ATOM     16  C   UNL     1       2.377   4.748  18.994  0.00  0.00    +0.000 C 
ATOM     17  C   UNL     1       1.545   4.419  17.737  0.00  0.00    +0.000 C 
ATOM     18  C   UNL     1       1.526   4.423  20.231  0.00  0.00    +0.000 C 
BRANCH  16  19
ATOM     19  C   UNL     1       3.632   3.835  18.956  0.00  0.00    +0.000 C 
BRANCH  19  21
ATOM     20  C   UNL     1       3.562   1.511  18.546  0.00  0.00    +0.000 C 
ATOM     21  O   UNL     1       3.483   2.811  17.978  0.00  0.00    +0.000 OA
ENDBRANCH  19  21
ENDBRANCH  16  19
ENDBRANCH  15  16
ENDBRANCH  11  15
ENDBRANCH   5  12
ENDBRANCH   1  10
BRANCH   2  22
ATOM     22  C   UNL     1      -2.425  11.151  18.255  0.00  0.00    +0.000 A 
ATOM     23  N   UNL     1      -2.357  10.331  17.166  0.00  0.00    +0.000 NA
ATOM     24  C   UNL     1      -3.438  10.330  16.343  0.00  0.00    +0.000 A 
ATOM     25  C   UNL     1      -4.560  11.087  16.655  0.00  0.00    +0.000 A 
ATOM     26  N   UNL     1      -4.620  11.915  17.716  0.00  0.00    +0.000 NA
ATOM     27  C   UNL     1      -3.533  11.989  18.519  0.00  0.00    +0.000 A 
BRANCH  24  28
ATOM     28  C   UNL     1      -3.431   9.497  15.088  0.00  0.00    +0.000 C 
ATOM     29  C   UNL     1      -4.176   9.955  13.868  0.00  0.00    +0.000 C 
ATOM     30  C   UNL     1      -2.677  10.019  13.893  0.00  0.00    +0.000 C 
ENDBRANCH  24  28
BRANCH  27  31
ATOM     31  N   UNL     1      -3.555  12.982  19.527  0.00  0.00    +0.000 N 
ATOM     32  H   UNL     1      -3.526  13.933  19.142  0.00  0.00    +0.000 HD
BRANCH  31  33
ATOM     33  C   UNL     1      -4.094  12.846  20.817  0.00  0.00    +0.000 A 
ATOM     34  C   UNL     1      -5.393  12.448  21.111  0.00  0.00    +0.000 A 
ATOM     35  N   UNL     1      -5.964  12.479  22.341  0.00  0.00    +0.000 NA
ATOM     36  C   UNL     1      -5.178  12.934  23.325  0.00  0.00    +0.000 A 
ATOM     37  N   UNL     1      -3.902  13.306  23.203  0.00  0.00    +0.000 NA
ATOM     38  C   UNL     1      -3.395  13.246  21.943  0.00  0.00    +0.000 A 
ENDBRANCH  31  33
ENDBRANCH  27  31
ENDBRANCH   2  22
TORSDOF 10
ENDMDL
MODEL 3
REMARK VINA RESULT:      -7.3      2.945      5.899
REMARK  Name = 
REMARK  13 active torsions:
REMARK  status: ('A' for Active; 'I' for Inactive)
REMARK    1  A    between atoms: C_1  and  O_2
REMARK    2  A    between atoms: O_2  and  C_3
REMARK    3  A    between atoms: C_3  and  C_4
REMARK    4  A    between atoms: C_4  and  C_5
REMARK    5  A    between atoms: C_4  and  C_6
REMARK    6  A    between atoms: C_4  and  C_7
REMARK    7  A    between atoms: C_7  and  N_8
REMARK    8  A    between atoms: C_9  and  C_11
REMARK    9  A    between atoms: C_16  and  N_17
REMARK   10  A    between atoms: C_18  and  C_20
REMARK   11  A    between atoms: C_22  and  C_23
REMARK   12  A    between atoms: C_28  and  N_29
REMARK   13  A    between atoms: N_29  and  C_30
REMARK                            x       y       z     vdW  Elec       q    Type
REMARK                         _______ _______ _______ _____ _____    ______ ____
ROOT
ATOM      1  N   UNL     1       2.861   7.715  19.265  0.00  0.00    +0.000 N 
ATOM      2  C   UNL     1       2.866   6.607  18.403  0.00  0.00    +0.000 C 
ATOM      3  O   UNL     1       1.865   6.122  17.878  0.00  0.00    +0.000 OA
ATOM      4  H   UNL     1       3.755   8.167  19.474  0.00  0.00    +0.000 HD
ENDROOT
BRANCH   1  10
ATOM      5  C   UNL     1       1.144   9.519  19.668  0.00  0.00    +0.000 A 
ATOM      6  C   UNL     1       0.057   9.970  20.444  0.00  0.00    +0.000 A 
ATOM      7  C   UNL     1      -0.507   9.124  21.376  0.00  0.00    +0.000 A 
ATOM      8  N   UNL     1      -0.042   7.895  21.621  0.00  0.00    +0.000 NA
ATOM      9  C   UNL     1       1.045   7.497  20.908  0.00  0.00    +0.000 A 
ATOM     10  C   UNL     1       1.693   8.238  19.913  0.00  0.00    +0.000 A 
BRANCH   5  12
ATOM     11  N   UNL     1       1.674  11.793  18.912  0.00  0.00    +0.000 N 
ATOM     12  C   UNL     1       1.630  10.437  18.586  0.00  0.00    +0.000 C 
ATOM     13  O   UNL     1       1.942   9.972  17.497  0.00  0.00    +0.000 OA
ATOM     14  H   UNL     1       1.380  12.098  19.826  0.00  0.00    +0.000 HD
BRANCH  11  15
ATOM     15  C   UNL     1       2.159  12.855  18.030  0.00  0.00    +0.000 C 
BRANCH  15  16
ATOM     16  C   UNL     1       2.560  14.186  18.730  0.00  0.00    +0.000 C 
ATOM     17  C   UNL     1       3.088  13.990  20.166  0.00  0.00    +0.000 C 
ATOM     18  C   UNL     1       1.340  15.118  18.790  0.00  0.00    +0.000 C 
BRANCH  16  19
ATOM     19  C   UNL     1       3.701  14.855  17.916  0.00  0.00    +0.000 C 
BRANCH  19  21
ATOM     20  C   UNL     1       6.053  14.663  17.863  0.00  0.00    +0.000 C 
ATOM     21  O   UNL     1       4.908  14.888  18.672  0.00  0.00    +0.000 OA
ENDBRANCH  19  21
ENDBRANCH  16  19
ENDBRANCH  15  16
ENDBRANCH  11  15
ENDBRANCH   5  12
ENDBRANCH   1  10
BRANCH   2  22
ATOM     22  C   UNL     1       4.190   5.957  18.112  0.00  0.00    +0.000 A 
ATOM     23  N   UNL     1       5.219   6.816  17.858  0.00  0.00    +0.000 NA
ATOM     24  C   UNL     1       6.444   6.255  17.679  0.00  0.00    +0.000 A 
ATOM     25  C   UNL     1       6.615   4.883  17.815  0.00  0.00    +0.000 A 
ATOM     26  N   UNL     1       5.595   4.031  18.041  0.00  0.00    +0.000 NA
ATOM     27  C   UNL     1       4.352   4.553  18.158  0.00  0.00    +0.000 A 
BRANCH  24  28
ATOM     28  C   UNL     1       7.629   7.120  17.341  0.00  0.00    +0.000 C 
ATOM     29  C   UNL     1       7.571   8.605  17.554  0.00  0.00    +0.000 C 
ATOM     30  C   UNL     1       8.393   7.752  18.475  0.00  0.00    +0.000 C 
ENDBRANCH  24  28
BRANCH  27  31
ATOM     31  N   UNL     1       3.281   3.632  18.230  0.00  0.00    +0.000 N 
ATOM     32  H   UNL     1       3.244   3.008  17.416  0.00  0.00    +0.000 HD
BRANCH  31  33
ATOM     33  C   UNL     1       2.660   3.168  19.402  0.00  0.00    +0.000 A 
ATOM     34  C   UNL     1       1.293   3.188  19.652  0.00  0.00    +0.000 A 
ATOM     35  N   UNL     1       0.708   2.901  20.842  0.00  0.00    +0.000 NA
ATOM     36  C   UNL     1       1.552   2.574  21.830  0.00  0.00    +0.000 A 
ATOM     37  N   UNL     1       2.879   2.469  21.727  0.00  0.00    +0.000 NA
ATOM     38  C   UNL     1       3.394   2.768  20.505  0.00  0.00    +0.000 A 
ENDBRANCH  31  33
ENDBRANCH  27  31
ENDBRANCH   2  22
TORSDOF 10
ENDMDL
MODEL 4
REMARK VINA RESULT:      -7.1      2.945      5.875
REMARK  Name = 
REMARK  13 active torsions:
REMARK  status: ('A' for Active; 'I' for Inactive)
REMARK    1  A    between atoms: C_1  and  O_2
REMARK    2  A    between atoms: O_2  and  C_3
REMARK    3  A    between atoms: C_3  and  C_4
REMARK    4  A    between atoms: C_4  and  C_5
REMARK    5  A    between atoms: C_4  and  C_6
REMARK    6  A    between atoms: C_4  and  C_7
REMARK    7  A    between atoms: C_7  and  N_8
REMARK    8  A    between atoms: C_9  and  C_11
REMARK    9  A    between atoms: C_16  and  N_17
REMARK   10  A    between atoms: C_18  and  C_20
REMARK   11  A    between atoms: C_22  and  C_23
REMARK   12  A    between atoms: C_28  and  N_29
REMARK   13  A    between atoms: N_29  and  C_30
REMARK                            x       y       z     vdW  Elec       q    Type
REMARK                         _______ _______ _______ _____ _____    ______ ____
ROOT
ATOM      1  N   UNL     1       2.870   7.703  19.290  0.00  0.00    +0.000 N 
ATOM      2  C   UNL     1       2.878   6.619  18.396  0.00  0.00    +0.000 C 
ATOM      3  O   UNL     1       1.881   6.161  17.840  0.00  0.00    +0.000 OA
ATOM      4  H   UNL     1       3.765   8.138  19.527  0.00  0.00    +0.000 HD
ENDROOT
BRANCH   1  10
ATOM      5  C   UNL     1       1.134   9.494  19.669  0.00  0.00    +0.000 A 
ATOM      6  C   UNL     1       0.043   9.944  20.439  0.00  0.00    +0.000 A 
ATOM      7  C   UNL     1      -0.513   9.104  21.381  0.00  0.00    +0.000 A 
ATOM      8  N   UNL     1      -0.034   7.883  21.643  0.00  0.00    +0.000 NA
ATOM      9  C   UNL     1       1.057   7.487  20.935  0.00  0.00    +0.000 A 
ATOM     10  C   UNL     1       1.697   8.222  19.931  0.00  0.00    +0.000 A 
BRANCH   5  12
ATOM     11  N   UNL     1       1.704  11.755  18.904  0.00  0.00    +0.000 N 
ATOM     12  C   UNL     1       1.611  10.402  18.575  0.00  0.00    +0.000 C 
ATOM     13  O   UNL     1       1.874   9.934  17.474  0.00  0.00    +0.000 OA
ATOM     14  H   UNL     1       1.449  12.065  19.829  0.00  0.00    +0.000 HD
BRANCH  11  15
ATOM     15  C   UNL     1       2.191  12.807  18.011  0.00  0.00    +0.000 C 
BRANCH  15  16
ATOM     16  C   UNL     1       2.393  14.207  18.660  0.00  0.00    +0.000 C 
ATOM     17  C   UNL     1       1.076  14.984  18.867  0.00  0.00    +0.000 C 
ATOM     18  C   UNL     1       3.314  15.054  17.769  0.00  0.00    +0.000 C 
BRANCH  16  19
ATOM     19  C   UNL     1       3.032  14.022  20.063  0.00  0.00    +0.000 C 
BRANCH  19  21
ATOM     20  C   UNL     1       3.694  15.783  21.490  0.00  0.00    +0.000 C 
ATOM     21  O   UNL     1       2.603  15.047  20.953  0.00  0.00    +0.000 OA
ENDBRANCH  19  21
ENDBRANCH  16  19
ENDBRANCH  15  16
ENDBRANCH  11  15
ENDBRANCH   5  12
ENDBRANCH   1  10
BRANCH   2  22
ATOM     22  C   UNL     1       4.199   5.961  18.111  0.00  0.00    +0.000 A 
ATOM     23  N   UNL     1       5.234   6.814  17.859  0.00  0.00    +0.000 NA
ATOM     24  C   UNL     1       6.456   6.245  17.684  0.00  0.00    +0.000 A 
ATOM     25  C   UNL     1       6.619   4.873  17.825  0.00  0.00    +0.000 A 
ATOM     26  N   UNL     1       5.594   4.027  18.050  0.00  0.00    +0.000 NA
ATOM     27  C   UNL     1       4.354   4.557  18.162  0.00  0.00    +0.000 A 
BRANCH  24  28
ATOM     28  C   UNL     1       7.647   7.103  17.348  0.00  0.00    +0.000 C 
ATOM     29  C   UNL     1       7.595   8.590  17.551  0.00  0.00    +0.000 C 
ATOM     30  C   UNL     1       8.408   7.739  18.482  0.00  0.00    +0.000 C 
ENDBRANCH  24  28
BRANCH  27  31
ATOM     31  N   UNL     1       3.278   3.641  18.233  0.00  0.00    +0.000 N 
ATOM     32  H   UNL     1       3.238   3.017  17.419  0.00  0.00    +0.000 HD
BRANCH  31  33
ATOM     33  C   UNL     1       2.651   3.182  19.404  0.00  0.00    +0.000 A 
ATOM     34  C   UNL     1       1.287   3.235  19.663  0.00  0.00    +0.000 A 
ATOM     35  N   UNL     1       0.702   2.951  20.853  0.00  0.00    +0.000 NA
ATOM     36  C   UNL     1       1.543   2.594  21.832  0.00  0.00    +0.000 A 
ATOM     37  N   UNL     1       2.865   2.456  21.721  0.00  0.00    +0.000 NA
ATOM     38  C   UNL     1       3.382   2.753  20.499  0.00  0.00    +0.000 A 
ENDBRANCH  31  33
ENDBRANCH  27  31
ENDBRANCH   2  22
TORSDOF 10
ENDMDL
MODEL 5
REMARK VINA RESULT:      -7.1      1.101      1.427
REMARK  Name = 
REMARK  13 active torsions:
REMARK  status: ('A' for Active; 'I' for Inactive)
REMARK    1  A    between atoms: C_1  and  O_2
REMARK    2  A    between atoms: O_2  and  C_3
REMARK    3  A    between atoms: C_3  and  C_4
REMARK    4  A    between atoms: C_4  and  C_5
REMARK    5  A    between atoms: C_4  and  C_6
REMARK    6  A    between atoms: C_4  and  C_7
REMARK    7  A    between atoms: C_7  and  N_8
REMARK    8  A    between atoms: C_9  and  C_11
REMARK    9  A    between atoms: C_16  and  N_17
REMARK   10  A    between atoms: C_18  and  C_20
REMARK   11  A    between atoms: C_22  and  C_23
REMARK   12  A    between atoms: C_28  and  N_29
REMARK   13  A    between atoms: N_29  and  C_30
REMARK                            x       y       z     vdW  Elec       q    Type
REMARK                         _______ _______ _______ _____ _____    ______ ____
ROOT
ATOM      1  N   UNL     1       3.771   4.036  17.583  0.00  0.00    +0.000 N 
ATOM      2  C   UNL     1       5.168   4.075  17.719  0.00  0.00    +0.000 C 
ATOM      3  O   UNL     1       5.773   3.962  18.784  0.00  0.00    +0.000 OA
ATOM      4  H   UNL     1       3.381   3.924  16.643  0.00  0.00    +0.000 HD
ENDROOT
BRANCH   1  10
ATOM      5  C   UNL     1       2.386   5.426  19.168  0.00  0.00    +0.000 A 
ATOM      6  C   UNL     1       1.557   5.453  20.309  0.00  0.00    +0.000 A 
ATOM      7  C   UNL     1       1.138   4.265  20.869  0.00  0.00    +0.000 A 
ATOM      8  N   UNL     1       1.519   3.068  20.411  0.00  0.00    +0.000 NA
ATOM      9  C   UNL     1       2.367   3.059  19.348  0.00  0.00    +0.000 A 
ATOM     10  C   UNL     1       2.843   4.185  18.666  0.00  0.00    +0.000 A 
BRANCH   5  12
ATOM     11  N   UNL     1       1.791   7.774  18.774  0.00  0.00    +0.000 N 
ATOM     12  C   UNL     1       2.703   6.746  18.531  0.00  0.00    +0.000 C 
ATOM     13  O   UNL     1       3.706   6.855  17.837  0.00  0.00    +0.000 OA
ATOM     14  H   UNL     1       0.977   7.598  19.342  0.00  0.00    +0.000 HD
BRANCH  11  15
ATOM     15  C   UNL     1       1.926   9.150  18.294  0.00  0.00    +0.000 C 
BRANCH  15  16
ATOM     16  C   UNL     1       0.961  10.189  18.935  0.00  0.00    +0.000 C 
ATOM     17  C   UNL     1      -0.453  10.176  18.318  0.00  0.00    +0.000 C 
ATOM     18  C   UNL     1       1.545  11.600  18.766  0.00  0.00    +0.000 C 
BRANCH  16  19
ATOM     19  C   UNL     1       0.798   9.858  20.444  0.00  0.00    +0.000 C 
BRANCH  19  21
ATOM     20  C   UNL     1      -0.543  10.977  22.032  0.00  0.00    +0.000 C 
ATOM     21  O   UNL     1      -0.527  10.142  20.883  0.00  0.00    +0.000 OA
ENDBRANCH  19  21
ENDBRANCH  16  19
ENDBRANCH  15  16
ENDBRANCH  11  15
ENDBRANCH   5  12
ENDBRANCH   1  10
BRANCH   2  22
ATOM     22  C   UNL     1       5.983   4.285  16.473  0.00  0.00    +0.000 A 
ATOM     23  N   UNL     1       5.564   3.590  15.376  0.00  0.00    +0.000 NA
ATOM     24  C   UNL     1       6.232   3.830  14.217  0.00  0.00    +0.000 A 
ATOM     25  C   UNL     1       7.240   4.785  14.173  0.00  0.00    +0.000 A 
ATOM     26  N   UNL     1       7.672   5.454  15.260  0.00  0.00    +0.000 NA
ATOM     27  C   UNL     1       7.071   5.188  16.443  0.00  0.00    +0.000 A 
BRANCH  24  28
ATOM     28  C   UNL     1       5.875   3.070  12.968  0.00  0.00    +0.000 C 
ATOM     29  C   UNL     1       4.969   3.682  11.938  0.00  0.00    +0.000 C 
ATOM     30  C   UNL     1       6.438   3.552  11.657  0.00  0.00    +0.000 C 
ENDBRANCH  24  28
BRANCH  27  31
ATOM     31  N   UNL     1       7.647   5.777  17.593  0.00  0.00    +0.000 N 
ATOM     32  H   UNL     1       8.350   5.173  18.034  0.00  0.00    +0.000 HD
BRANCH  31  33
ATOM     33  C   UNL     1       7.746   7.153  17.862  0.00  0.00    +0.000 A 
ATOM     34  C   UNL     1       7.135   8.163  17.130  0.00  0.00    +0.000 A 
ATOM     35  N   UNL     1       7.364   9.492  17.281  0.00  0.00    +0.000 NA
ATOM     36  C   UNL     1       8.258   9.813  18.226  0.00  0.00    +0.000 A 
ATOM     37  N   UNL     1       8.888   8.959  19.034  0.00  0.00    +0.000 NA
ATOM     38  C   UNL     1       8.607   7.645  18.827  0.00  0.00    +0.000 A 
ENDBRANCH  31  33
ENDBRANCH  27  31
ENDBRANCH   2  22
TORSDOF 10
ENDMDL
MODEL 6
REMARK VINA RESULT:      -7.1      2.946      5.878
REMARK  Name = 
REMARK  13 active torsions:
REMARK  status: ('A' for Active; 'I' for Inactive)
REMARK    1  A    between atoms: C_1  and  O_2
REMARK    2  A    between atoms: O_2  and  C_3
REMARK    3  A    between atoms: C_3  and  C_4
REMARK    4  A    between atoms: C_4  and  C_5
REMARK    5  A    between atoms: C_4  and  C_6
REMARK    6  A    between atoms: C_4  and  C_7
REMARK    7  A    between atoms: C_7  and  N_8
REMARK    8  A    between atoms: C_9  and  C_11
REMARK    9  A    between atoms: C_16  and  N_17
REMARK   10  A    between atoms: C_18  and  C_20
REMARK   11  A    between atoms: C_22  and  C_23
REMARK   12  A    between atoms: C_28  and  N_29
REMARK   13  A    between atoms: N_29  and  C_30
REMARK                            x       y       z     vdW  Elec       q    Type
REMARK                         _______ _______ _______ _____ _____    ______ ____
ROOT
ATOM      1  N   UNL     1       2.871   7.697  19.281  0.00  0.00    +0.000 N 
ATOM      2  C   UNL     1       2.876   6.602  18.402  0.00  0.00    +0.000 C 
ATOM      3  O   UNL     1       1.877   6.132  17.860  0.00  0.00    +0.000 OA
ATOM      4  H   UNL     1       3.766   8.139  19.506  0.00  0.00    +0.000 HD
ENDROOT
BRANCH   1  10
ATOM      5  C   UNL     1       1.141   9.493  19.664  0.00  0.00    +0.000 A 
ATOM      6  C   UNL     1       0.052   9.946  20.436  0.00  0.00    +0.000 A 
ATOM      7  C   UNL     1      -0.504   9.108  21.380  0.00  0.00    +0.000 A 
ATOM      8  N   UNL     1      -0.028   7.885  21.640  0.00  0.00    +0.000 NA
ATOM      9  C   UNL     1       1.060   7.486  20.930  0.00  0.00    +0.000 A 
ATOM     10  C   UNL     1       1.700   8.219  19.925  0.00  0.00    +0.000 A 
BRANCH   5  12
ATOM     11  N   UNL     1       1.680  11.757  18.886  0.00  0.00    +0.000 N 
ATOM     12  C   UNL     1       1.618  10.400  18.568  0.00  0.00    +0.000 C 
ATOM     13  O   UNL     1       1.907   9.926  17.477  0.00  0.00    +0.000 OA
ATOM     14  H   UNL     1       1.404  12.070  19.804  0.00  0.00    +0.000 HD
BRANCH  11  15
ATOM     15  C   UNL     1       2.161  12.809  17.991  0.00  0.00    +0.000 C 
BRANCH  15  16
ATOM     16  C   UNL     1       2.396  14.202  18.646  0.00  0.00    +0.000 C 
ATOM     17  C   UNL     1       3.274  15.140  17.793  0.00  0.00    +0.000 C 
ATOM     18  C   UNL     1       3.079  14.014  20.010  0.00  0.00    +0.000 C 
BRANCH  16  19
ATOM     19  C   UNL     1       1.025  14.907  18.830  0.00  0.00    +0.000 C 
BRANCH  19  21
ATOM     20  C   UNL     1      -0.320  15.497  20.678  0.00  0.00    +0.000 C 
ATOM     21  O   UNL     1       0.968  15.580  20.084  0.00  0.00    +0.000 OA
ENDBRANCH  19  21
ENDBRANCH  16  19
ENDBRANCH  15  16
ENDBRANCH  11  15
ENDBRANCH   5  12
ENDBRANCH   1  10
BRANCH   2  22
ATOM     22  C   UNL     1       4.198   5.945  18.115  0.00  0.00    +0.000 A 
ATOM     23  N   UNL     1       5.232   6.800  17.861  0.00  0.00    +0.000 NA
ATOM     24  C   UNL     1       6.454   6.233  17.685  0.00  0.00    +0.000 A 
ATOM     25  C   UNL     1       6.619   4.861  17.826  0.00  0.00    +0.000 A 
ATOM     26  N   UNL     1       5.596   4.014  18.052  0.00  0.00    +0.000 NA
ATOM     27  C   UNL     1       4.355   4.541  18.166  0.00  0.00    +0.000 A 
BRANCH  24  28
ATOM     28  C   UNL     1       7.643   7.092  17.348  0.00  0.00    +0.000 C 
ATOM     29  C   UNL     1       7.589   8.579  17.549  0.00  0.00    +0.000 C 
ATOM     30  C   UNL     1       8.404   7.730  18.480  0.00  0.00    +0.000 C 
ENDBRANCH  24  28
BRANCH  27  31
ATOM     31  N   UNL     1       3.280   3.624  18.238  0.00  0.00    +0.000 N 
ATOM     32  H   UNL     1       3.242   2.999  17.426  0.00  0.00    +0.000 HD
BRANCH  31  33
ATOM     33  C   UNL     1       2.655   3.166  19.411  0.00  0.00    +0.000 A 
ATOM     34  C   UNL     1       1.290   3.209  19.666  0.00  0.00    +0.000 A 
ATOM     35  N   UNL     1       0.704   2.927  20.857  0.00  0.00    +0.000 NA
ATOM     36  C   UNL     1       1.546   2.580  21.839  0.00  0.00    +0.000 A 
ATOM     37  N   UNL     1       2.870   2.452  21.731  0.00  0.00    +0.000 NA
ATOM     38  C   UNL     1       3.386   2.748  20.509  0.00  0.00    +0.000 A 
ENDBRANCH  31  33
ENDBRANCH  27  31
ENDBRANCH   2  22
TORSDOF 10
ENDMDL
MODEL 7
REMARK VINA RESULT:      -7.1      5.074     10.476
REMARK  Name = 
REMARK  13 active torsions:
REMARK  status: ('A' for Active; 'I' for Inactive)
REMARK    1  A    between atoms: C_1  and  O_2
REMARK    2  A    between atoms: O_2  and  C_3
REMARK    3  A    between atoms: C_3  and  C_4
REMARK    4  A    between atoms: C_4  and  C_5
REMARK    5  A    between atoms: C_4  and  C_6
REMARK    6  A    between atoms: C_4  and  C_7
REMARK    7  A    between atoms: C_7  and  N_8
REMARK    8  A    between atoms: C_9  and  C_11
REMARK    9  A    between atoms: C_16  and  N_17
REMARK   10  A    between atoms: C_18  and  C_20
REMARK   11  A    between atoms: C_22  and  C_23
REMARK   12  A    between atoms: C_28  and  N_29
REMARK   13  A    between atoms: N_29  and  C_30
REMARK                            x       y       z     vdW  Elec       q    Type
REMARK                         _______ _______ _______ _____ _____    ______ ____
ROOT
ATOM      1  N   UNL     1      -1.080  10.003  19.771  0.00  0.00    +0.000 N 
ATOM      2  C   UNL     1      -1.481  11.276  19.336  0.00  0.00    +0.000 C 
ATOM      3  O   UNL     1      -0.947  12.332  19.670  0.00  0.00    +0.000 OA
ATOM      4  H   UNL     1      -1.445   9.186  19.274  0.00  0.00    +0.000 HD
ENDROOT
BRANCH   1  10
ATOM      5  C   UNL     1       1.002   9.055  20.835  0.00  0.00    +0.000 A 
ATOM      6  C   UNL     1       1.706   8.780  22.025  0.00  0.00    +0.000 A 
ATOM      7  C   UNL     1       1.231   9.271  23.222  0.00  0.00    +0.000 A 
ATOM      8  N   UNL     1       0.093   9.966  23.325  0.00  0.00    +0.000 NA
ATOM      9  C   UNL     1      -0.607  10.170  22.178  0.00  0.00    +0.000 A 
ATOM     10  C   UNL     1      -0.224   9.758  20.896  0.00  0.00    +0.000 A 
BRANCH   5  12
ATOM     11  N   UNL     1       2.191   7.324  19.565  0.00  0.00    +0.000 N 
ATOM     12  C   UNL     1       1.636   8.604  19.552  0.00  0.00    +0.000 C 
ATOM     13  O   UNL     1       1.651   9.359  18.589  0.00  0.00    +0.000 OA
ATOM     14  H   UNL     1       2.155   6.770  20.407  0.00  0.00    +0.000 HD
BRANCH  11  15
ATOM     15  C   UNL     1       2.814   6.665  18.417  0.00  0.00    +0.000 C 
BRANCH  15  16
ATOM     16  C   UNL     1       2.870   5.111  18.475  0.00  0.00    +0.000 C 
ATOM     17  C   UNL     1       4.090   4.513  17.744  0.00  0.00    +0.000 C 
ATOM     18  C   UNL     1       1.597   4.530  17.840  0.00  0.00    +0.000 C 
BRANCH  16  19
ATOM     19  C   UNL     1       2.973   4.668  19.961  0.00  0.00    +0.000 C 
BRANCH  19  21
ATOM     20  C   UNL     1       1.635   3.218  21.257  0.00  0.00    +0.000 C 
ATOM     21  O   UNL     1       1.680   4.422  20.505  0.00  0.00    +0.000 OA
ENDBRANCH  19  21
ENDBRANCH  16  19
ENDBRANCH  15  16
ENDBRANCH  11  15
ENDBRANCH   5  12
ENDBRANCH   1  10
BRANCH   2  22
ATOM     22  C   UNL     1      -2.658  11.355  18.404  0.00  0.00    +0.000 A 
ATOM     23  N   UNL     1      -2.604  10.524  17.322  0.00  0.00    +0.000 NA
ATOM     24  C   UNL     1      -3.696  10.514  16.513  0.00  0.00    +0.000 A 
ATOM     25  C   UNL     1      -4.814  11.274  16.833  0.00  0.00    +0.000 A 
ATOM     26  N   UNL     1      -4.859  12.113  17.886  0.00  0.00    +0.000 NA
ATOM     27  C   UNL     1      -3.762  12.195  18.674  0.00  0.00    +0.000 A 
BRANCH  24  28
ATOM     28  C   UNL     1      -3.705   9.669  15.268  0.00  0.00    +0.000 C 
ATOM     29  C   UNL     1      -4.259  10.214  13.983  0.00  0.00    +0.000 C 
ATOM     30  C   UNL     1      -2.776  10.049  14.144  0.00  0.00    +0.000 C 
ENDBRANCH  24  28
BRANCH  27  31
ATOM     31  N   UNL     1      -3.771  13.199  19.671  0.00  0.00    +0.000 N 
ATOM     32  H   UNL     1      -3.413  14.097  19.328  0.00  0.00    +0.000 HD
BRANCH  31  33
ATOM     33  C   UNL     1      -4.617  13.249  20.793  0.00  0.00    +0.000 A 
ATOM     34  C   UNL     1      -5.707  14.098  20.944  0.00  0.00    +0.000 A 
ATOM     35  N   UNL     1      -6.418  14.267  22.086  0.00  0.00    +0.000 NA
ATOM     36  C   UNL     1      -6.004  13.537  23.130  0.00  0.00    +0.000 A 
ATOM     37  N   UNL     1      -5.007  12.650  23.123  0.00  0.00    +0.000 NA
ATOM     38  C   UNL     1      -4.342  12.531  21.944  0.00  0.00    +0.000 A 
ENDBRANCH  31  33
ENDBRANCH  27  31
ENDBRANCH   2  22
TORSDOF 10
ENDMDL
MODEL 8
REMARK VINA RESULT:      -7.0      2.986      8.139
REMARK  Name = 
REMARK  13 active torsions:
REMARK  status: ('A' for Active; 'I' for Inactive)
REMARK    1  A    between atoms: C_1  and  O_2
REMARK    2  A    between atoms: O_2  and  C_3
REMARK    3  A    between atoms: C_3  and  C_4
REMARK    4  A    between atoms: C_4  and  C_5
REMARK    5  A    between atoms: C_4  and  C_6
REMARK    6  A    between atoms: C_4  and  C_7
REMARK    7  A    between atoms: C_7  and  N_8
REMARK    8  A    between atoms: C_9  and  C_11
REMARK    9  A    between atoms: C_16  and  N_17
REMARK   10  A    between atoms: C_18  and  C_20
REMARK   11  A    between atoms: C_22  and  C_23
REMARK   12  A    between atoms: C_28  and  N_29
REMARK   13  A    between atoms: N_29  and  C_30
REMARK                            x       y       z     vdW  Elec       q    Type
REMARK                         _______ _______ _______ _____ _____    ______ ____
ROOT
ATOM      1  N   UNL     1       1.687   8.050  18.902  0.00  0.00    +0.000 N 
ATOM      2  C   UNL     1       1.181   9.047  19.750  0.00  0.00    +0.000 C 
ATOM      3  O   UNL     1       1.410   9.126  20.956  0.00  0.00    +0.000 OA
ATOM      4  H   UNL     1       1.615   8.194  17.891  0.00  0.00    +0.000 HD
ENDROOT
BRANCH   1  10
ATOM      5  C   UNL     1       3.299   6.122  18.676  0.00  0.00    +0.000 A 
ATOM      6  C   UNL     1       3.714   4.861  19.151  0.00  0.00    +0.000 A 
ATOM      7  C   UNL     1       3.164   4.360  20.311  0.00  0.00    +0.000 A 
ATOM      8  N   UNL     1       2.207   4.993  20.997  0.00  0.00    +0.000 NA
ATOM      9  C   UNL     1       1.773   6.179  20.494  0.00  0.00    +0.000 A 
ATOM     10  C   UNL     1       2.266   6.816  19.349  0.00  0.00    +0.000 A 
BRANCH   5  12
ATOM     11  N   UNL     1       4.615   5.724  16.643  0.00  0.00    +0.000 N 
ATOM     12  C   UNL     1       4.025   6.669  17.483  0.00  0.00    +0.000 C 
ATOM     13  O   UNL     1       4.078   7.880  17.313  0.00  0.00    +0.000 OA
ATOM     14  H   UNL     1       4.543   4.743  16.864  0.00  0.00    +0.000 HD
BRANCH  11  15
ATOM     15  C   UNL     1       5.328   6.028  15.403  0.00  0.00    +0.000 C 
BRANCH  15  16
ATOM     16  C   UNL     1       6.214   4.884  14.831  0.00  0.00    +0.000 C 
ATOM     17  C   UNL     1       7.395   5.390  13.978  0.00  0.00    +0.000 C 
ATOM     18  C   UNL     1       5.352   3.959  13.957  0.00  0.00    +0.000 C 
BRANCH  16  19
ATOM     19  C   UNL     1       6.822   4.083  16.014  0.00  0.00    +0.000 C 
BRANCH  19  21
ATOM     20  C   UNL     1       7.612   4.719  18.147  0.00  0.00    +0.000 C 
ATOM     21  O   UNL     1       7.750   4.882  16.742  0.00  0.00    +0.000 OA
ENDBRANCH  19  21
ENDBRANCH  16  19
ENDBRANCH  15  16
ENDBRANCH  11  15
ENDBRANCH   5  12
ENDBRANCH   1  10
BRANCH   2  22
ATOM     22  C   UNL     1       0.279  10.086  19.143  0.00  0.00    +0.000 A 
ATOM     23  N   UNL     1      -0.727   9.600  18.359  0.00  0.00    +0.000 NA
ATOM     24  C   UNL     1      -1.607  10.514  17.871  0.00  0.00    +0.000 A 
ATOM     25  C   UNL     1      -1.495  11.853  18.221  0.00  0.00    +0.000 A 
ATOM     26  N   UNL     1      -0.489  12.338  18.975  0.00  0.00    +0.000 NA
ATOM     27  C   UNL     1       0.442  11.462  19.421  0.00  0.00    +0.000 A 
BRANCH  24  28
ATOM     28  C   UNL     1      -2.717  10.077  16.953  0.00  0.00    +0.000 C 
ATOM     29  C   UNL     1      -3.680  11.084  16.392  0.00  0.00    +0.000 C 
ATOM     30  C   UNL     1      -2.637  10.473  15.502  0.00  0.00    +0.000 C 
ENDBRANCH  24  28
BRANCH  27  31
ATOM     31  N   UNL     1       1.573  12.014  20.068  0.00  0.00    +0.000 N 
ATOM     32  H   UNL     1       2.092  11.317  20.614  0.00  0.00    +0.000 HD
BRANCH  31  33
ATOM     33  C   UNL     1       2.289  13.153  19.663  0.00  0.00    +0.000 A 
ATOM     34  C   UNL     1       2.748  13.401  18.374  0.00  0.00    +0.000 A 
ATOM     35  N   UNL     1       3.581  14.410  18.018  0.00  0.00    +0.000 NA
ATOM     36  C   UNL     1       3.968  15.212  19.019  0.00  0.00    +0.000 A 
ATOM     37  N   UNL     1       3.576  15.125  20.291  0.00  0.00    +0.000 NA
ATOM     38  C   UNL     1       2.739  14.092  20.574  0.00  0.00    +0.000 A 
ENDBRANCH  31  33
ENDBRANCH  27  31
ENDBRANCH   2  22
TORSDOF 10
ENDMDL
MODEL 9
REMARK VINA RESULT:      -7.0      0.931      1.378
REMARK  Name = 
REMARK  13 active torsions:
REMARK  status: ('A' for Active; 'I' for Inactive)
REMARK    1  A    between atoms: C_1  and  O_2
REMARK    2  A    between atoms: O_2  and  C_3
REMARK    3  A    between atoms: C_3  and  C_4
REMARK    4  A    between atoms: C_4  and  C_5
REMARK    5  A    between atoms: C_4  and  C_6
REMARK    6  A    between atoms: C_4  and  C_7
REMARK    7  A    between atoms: C_7  and  N_8
REMARK    8  A    between atoms: C_9  and  C_11
REMARK    9  A    between atoms: C_16  and  N_17
REMARK   10  A    between atoms: C_18  and  C_20
REMARK   11  A    between atoms: C_22  and  C_23
REMARK   12  A    between atoms: C_28  and  N_29
REMARK   13  A    between atoms: N_29  and  C_30
REMARK                            x       y       z     vdW  Elec       q    Type
REMARK                         _______ _______ _______ _____ _____    ______ ____
ROOT
ATOM      1  N   UNL     1       3.662   4.020  17.416  0.00  0.00    +0.000 N 
ATOM      2  C   UNL     1       5.062   4.032  17.513  0.00  0.00    +0.000 C 
ATOM      3  O   UNL     1       5.696   3.849  18.551  0.00  0.00    +0.000 OA
ATOM      4  H   UNL     1       3.243   3.969  16.483  0.00  0.00    +0.000 HD
ENDROOT
BRANCH   1  10
ATOM      5  C   UNL     1       2.362   5.329  19.136  0.00  0.00    +0.000 A 
ATOM      6  C   UNL     1       1.565   5.297  20.299  0.00  0.00    +0.000 A 
ATOM      7  C   UNL     1       1.124   4.083  20.783  0.00  0.00    +0.000 A 
ATOM      8  N   UNL     1       1.456   2.912  20.228  0.00  0.00    +0.000 NA
ATOM      9  C   UNL     1       2.275   2.957  19.145  0.00  0.00    +0.000 A 
ATOM     10  C   UNL     1       2.767   4.115  18.533  0.00  0.00    +0.000 A 
BRANCH   5  12
ATOM     11  N   UNL     1       1.728   7.668  18.748  0.00  0.00    +0.000 N 
ATOM     12  C   UNL     1       2.703   6.683  18.587  0.00  0.00    +0.000 C 
ATOM     13  O   UNL     1       3.778   6.853  18.028  0.00  0.00    +0.000 OA
ATOM     14  H   UNL     1       0.857   7.443  19.204  0.00  0.00    +0.000 HD
BRANCH  11  15
ATOM     15  C   UNL     1       1.867   9.065  18.335  0.00  0.00    +0.000 C 
BRANCH  15  16
ATOM     16  C   UNL     1       0.850  10.062  18.964  0.00  0.00    +0.000 C 
ATOM     17  C   UNL     1       1.393  11.501  19.078  0.00  0.00    +0.000 C 
ATOM     18  C   UNL     1       0.467   9.580  20.372  0.00  0.00    +0.000 C 
BRANCH  16  19
ATOM     19  C   UNL     1      -0.412  10.126  18.062  0.00  0.00    +0.000 C 
BRANCH  19  21
ATOM     20  C   UNL     1      -2.390  11.361  18.433  0.00  0.00    +0.000 C 
ATOM     21  O   UNL     1      -1.006  11.419  18.115  0.00  0.00    +0.000 OA
ENDBRANCH  19  21
ENDBRANCH  16  19
ENDBRANCH  15  16
ENDBRANCH  11  15
ENDBRANCH   5  12
ENDBRANCH   1  10
BRANCH   2  22
ATOM     22  C   UNL     1       5.845   4.306  16.258  0.00  0.00    +0.000 A 
ATOM     23  N   UNL     1       5.360   3.716  15.127  0.00  0.00    +0.000 NA
ATOM     24  C   UNL     1       5.999   4.019  13.967  0.00  0.00    +0.000 A 
ATOM     25  C   UNL     1       7.046   4.932  13.959  0.00  0.00    +0.000 A 
ATOM     26  N   UNL     1       7.541   5.497  15.078  0.00  0.00    +0.000 NA
ATOM     27  C   UNL     1       6.968   5.164  16.258  0.00  0.00    +0.000 A 
BRANCH  24  28
ATOM     28  C   UNL     1       5.569   3.374  12.677  0.00  0.00    +0.000 C 
ATOM     29  C   UNL     1       6.333   3.625  11.409  0.00  0.00    +0.000 C 
ATOM     30  C   UNL     1       6.445   2.295  12.095  0.00  0.00    +0.000 C 
ENDBRANCH  24  28
BRANCH  27  31
ATOM     31  N   UNL     1       7.607   5.637  17.428  0.00  0.00    +0.000 N 
ATOM     32  H   UNL     1       8.308   4.980  17.787  0.00  0.00    +0.000 HD
BRANCH  31  33
ATOM     33  C   UNL     1       7.758   6.982  17.807  0.00  0.00    +0.000 A 
ATOM     34  C   UNL     1       7.269   8.077  17.104  0.00  0.00    +0.000 A 
ATOM     35  N   UNL     1       7.557   9.375  17.374  0.00  0.00    +0.000 NA
ATOM     36  C   UNL     1       8.381   9.574  18.411  0.00  0.00    +0.000 A 
ATOM     37  N   UNL     1       8.890   8.628  19.203  0.00  0.00    +0.000 NA
ATOM     38  C   UNL     1       8.557   7.352  18.875  0.00  0.00    +0.000 A 
ENDBRANCH  31  33
ENDBRANCH  27  31
ENDBRANCH   2  22
TORSDOF 10
ENDMDL
