MODEL 1
REMARK VINA RESULT:      -7.3      0.000      0.000
REMARK  Name = 
REMARK  2 active torsions:
REMARK  status: ('A' for Active; 'I' for Inactive)
REMARK    1  A    between atoms: C_6  and  C_7
REMARK    2  A    between atoms: C_7  and  C_8
REMARK                            x       y       z     vdW  Elec       q    Type
REMARK                         _______ _______ _______ _____ _____    ______ ____
ROOT
ATOM      1  C   UNL     1       7.448   6.864  17.622  0.00  0.00    +0.000 A 
ATOM      2  C   UNL     1       7.798   6.221  18.802  0.00  0.00    +0.000 A 
ATOM      3  N   UNL     1       7.194   5.125  19.315  0.00  0.00    +0.000 NA
ATOM      4  C   UNL     1       6.171   4.693  18.556  0.00  0.00    +0.000 A 
ATOM      5  N   UNL     1       5.395   3.604  18.838  0.00  0.00    +0.000 N 
ATOM      6  C   UNL     1       4.402   3.462  17.892  0.00  0.00    +0.000 A 
ATOM      7  C   UNL     1       4.596   4.458  16.951  0.00  0.00    +0.000 A 
ATOM      8  C   UNL     1       5.706   5.243  17.366  0.00  0.00    +0.000 A 
ATOM      9  C   UNL     1       6.379   6.372  16.872  0.00  0.00    +0.000 A 
ATOM     10  H   UNL     1       5.501   3.013  19.653  0.00  0.00    +0.000 HD
ENDROOT
BRANCH   6  11
ATOM     11  C   UNL     1       3.374   2.371  17.974  0.00  0.00    +0.000 C 
BRANCH  11  12
ATOM     12  C   UNL     1       2.319   2.528  19.088  0.00  0.00    +0.000 C 
ATOM     13  C   UNL     1       1.453   3.775  18.968  0.00  0.00    +0.000 C 
ATOM     14  C   UNL     1       0.891   3.945  20.367  0.00  0.00    +0.000 C 
ATOM     15  C   UNL     1       1.924   3.316  21.289  0.00  0.00    +0.000 C 
ATOM     16  N   UNL     1       2.905   2.640  20.438  0.00  0.00    +0.000 NA
ATOM     17  H   UNL     1       3.120   1.713  20.805  0.00  0.00    +0.000 HD
ENDBRANCH  11  12
ENDBRANCH   6  11
TORSDOF 2
ENDMDL
MODEL 2
REMARK VINA RESULT:      -6.7      1.607      5.504
REMARK  Name = 
REMARK  2 active torsions:
REMARK  status: ('A' for Active; 'I' for Inactive)
REMARK    1  A    between atoms: C_6  and  C_7
REMARK    2  A    between atoms: C_7  and  C_8
REMARK                            x       y       z     vdW  Elec       q    Type
REMARK                         _______ _______ _______ _____ _____    ______ ____
ROOT
ATOM      1  C   UNL     1       0.940   3.260  18.754  0.00  0.00    +0.000 A 
ATOM      2  C   UNL     1       1.589   2.042  18.904  0.00  0.00    +0.000 A 
ATOM      3  N   UNL     1       2.839   1.752  18.476  0.00  0.00    +0.000 NA
ATOM      4  C   UNL     1       3.428   2.790  17.854  0.00  0.00    +0.000 A 
ATOM      5  N   UNL     1       4.689   2.772  17.331  0.00  0.00    +0.000 N 
ATOM      6  C   UNL     1       4.973   3.973  16.716  0.00  0.00    +0.000 A 
ATOM      7  C   UNL     1       3.877   4.795  16.911  0.00  0.00    +0.000 A 
ATOM      8  C   UNL     1       2.895   4.054  17.622  0.00  0.00    +0.000 A 
ATOM      9  C   UNL     1       1.598   4.303  18.100  0.00  0.00    +0.000 A 
ATOM     10  H   UNL     1       5.312   1.974  17.347  0.00  0.00    +0.000 HD
ENDROOT
BRANCH   6  11
ATOM     11  C   UNL     1       6.278   4.221  16.016  0.00  0.00    +0.000 C 
BRANCH  11  12
ATOM     12  C   UNL     1       7.249   5.183  16.730  0.00  0.00    +0.000 C 
ATOM     13  C   UNL     1       7.240   5.077  18.250  0.00  0.00    +0.000 C 
ATOM     14  C   UNL     1       7.855   6.392  18.693  0.00  0.00    +0.000 C 
ATOM     15  C   UNL     1       7.530   7.378  17.581  0.00  0.00    +0.000 C 
ATOM     16  N   UNL     1       6.954   6.606  16.478  0.00  0.00    +0.000 NA
ATOM     17  H   UNL     1       7.359   6.896  15.588  0.00  0.00    +0.000 HD
ENDBRANCH  11  12
ENDBRANCH   6  11
TORSDOF 2
ENDMDL
MODEL 3
REMARK VINA RESULT:      -6.7      1.156      1.275
REMARK  Name = 
REMARK  2 active torsions:
REMARK  status: ('A' for Active; 'I' for Inactive)
REMARK    1  A    between atoms: C_6  and  C_7
REMARK    2  A    between atoms: C_7  and  C_8
REMARK                            x       y       z     vdW  Elec       q    Type
REMARK                         _______ _______ _______ _____ _____    ______ ____
ROOT
ATOM      1  C   UNL     1       6.579   6.890  17.123  0.00  0.00    +0.000 A 
ATOM      2  C   UNL     1       7.352   5.741  17.230  0.00  0.00    +0.000 A 
ATOM      3  N   UNL     1       6.883   4.482  17.381  0.00  0.00    +0.000 NA
ATOM      4  C   UNL     1       5.539   4.432  17.430  0.00  0.00    +0.000 A 
ATOM      5  N   UNL     1       4.806   3.288  17.570  0.00  0.00    +0.000 N 
ATOM      6  C   UNL     1       3.460   3.584  17.637  0.00  0.00    +0.000 A 
ATOM      7  C   UNL     1       3.340   4.952  17.474  0.00  0.00    +0.000 A 
ATOM      8  C   UNL     1       4.646   5.496  17.349  0.00  0.00    +0.000 A 
ATOM      9  C   UNL     1       5.189   6.780  17.180  0.00  0.00    +0.000 A 
ATOM     10  H   UNL     1       5.194   2.358  17.662  0.00  0.00    +0.000 HD
ENDROOT
BRANCH   6  11
ATOM     11  C   UNL     1       2.420   2.519  17.835  0.00  0.00    +0.000 C 
BRANCH  11  12
ATOM     12  C   UNL     1       2.077   2.181  19.300  0.00  0.00    +0.000 C 
ATOM     13  C   UNL     1       0.957   3.021  19.897  0.00  0.00    +0.000 C 
ATOM     14  C   UNL     1       1.157   2.855  21.392  0.00  0.00    +0.000 C 
ATOM     15  C   UNL     1       2.643   2.582  21.567  0.00  0.00    +0.000 C 
ATOM     16  N   UNL     1       3.205   2.392  20.228  0.00  0.00    +0.000 NA
ATOM     17  H   UNL     1       3.828   1.585  20.212  0.00  0.00    +0.000 HD
ENDBRANCH  11  12
ENDBRANCH   6  11
TORSDOF 2
ENDMDL
MODEL 4
REMARK VINA RESULT:      -6.6      1.343      1.531
REMARK  Name = 
REMARK  2 active torsions:
REMARK  status: ('A' for Active; 'I' for Inactive)
REMARK    1  A    between atoms: C_6  and  C_7
REMARK    2  A    between atoms: C_7  and  C_8
REMARK                            x       y       z     vdW  Elec       q    Type
REMARK                         _______ _______ _______ _____ _____    ______ ____
ROOT
ATOM      1  C   UNL     1       7.848   6.619  18.235  0.00  0.00    +0.000 A 
ATOM      2  C   UNL     1       7.701   5.752  19.311  0.00  0.00    +0.000 A 
ATOM      3  N   UNL     1       6.566   5.104  19.656  0.00  0.00    +0.000 NA
ATOM      4  C   UNL     1       5.537   5.387  18.836  0.00  0.00    +0.000 A 
ATOM      5  N   UNL     1       4.280   4.865  18.953  0.00  0.00    +0.000 N 
ATOM      6  C   UNL     1       3.447   5.396  17.992  0.00  0.00    +0.000 A 
ATOM      7  C   UNL     1       4.219   6.234  17.207  0.00  0.00    +0.000 A 
ATOM      8  C   UNL     1       5.537   6.240  17.737  0.00  0.00    +0.000 A 
ATOM      9  C   UNL     1       6.747   6.877  17.417  0.00  0.00    +0.000 A 
ATOM     10  H   UNL     1       3.986   4.217  19.673  0.00  0.00    +0.000 HD
ENDROOT
BRANCH   6  11
ATOM     11  C   UNL     1       1.992   5.033  17.909  0.00  0.00    +0.000 C 
BRANCH  11  12
ATOM     12  C   UNL     1       1.503   3.992  18.938  0.00  0.00    +0.000 C 
ATOM     13  C   UNL     1       1.375   4.522  20.360  0.00  0.00    +0.000 C 
ATOM     14  C   UNL     1       1.376   3.259  21.202  0.00  0.00    +0.000 C 
ATOM     15  C   UNL     1       2.165   2.242  20.392  0.00  0.00    +0.000 C 
ATOM     16  N   UNL     1       2.408   2.835  19.076  0.00  0.00    +0.000 NA
ATOM     17  H   UNL     1       2.224   2.156  18.337  0.00  0.00    +0.000 HD
ENDBRANCH  11  12
ENDBRANCH   6  11
TORSDOF 2
ENDMDL
MODEL 5
REMARK VINA RESULT:      -6.6      1.655      5.508
REMARK  Name = 
REMARK  2 active torsions:
REMARK  status: ('A' for Active; 'I' for Inactive)
REMARK    1  A    between atoms: C_6  and  C_7
REMARK    2  A    between atoms: C_7  and  C_8
REMARK                            x       y       z     vdW  Elec       q    Type
REMARK                         _______ _______ _______ _____ _____    ______ ____
ROOT
ATOM      1  C   UNL     1       0.860   3.101  20.072  0.00  0.00    +0.000 A 
ATOM      2  C   UNL     1       1.476   2.021  19.453  0.00  0.00    +0.000 A 
ATOM      3  N   UNL     1       2.735   2.004  18.961  0.00  0.00    +0.000 NA
ATOM      4  C   UNL     1       3.371   3.179  19.120  0.00  0.00    +0.000 A 
ATOM      5  N   UNL     1       4.652   3.434  18.720  0.00  0.00    +0.000 N 
ATOM      6  C   UNL     1       4.986   4.746  18.980  0.00  0.00    +0.000 A 
ATOM      7  C   UNL     1       3.900   5.319  19.619  0.00  0.00    +0.000 A 
ATOM      8  C   UNL     1       2.875   4.340  19.705  0.00  0.00    +0.000 A 
ATOM      9  C   UNL     1       1.565   4.297  20.211  0.00  0.00    +0.000 A 
ATOM     10  H   UNL     1       5.256   2.769  18.253  0.00  0.00    +0.000 HD
ENDROOT
BRANCH   6  11
ATOM     11  C   UNL     1       6.323   5.317  18.605  0.00  0.00    +0.000 C 
BRANCH  11  12
ATOM     12  C   UNL     1       6.645   5.332  17.096  0.00  0.00    +0.000 C 
ATOM     13  C   UNL     1       5.568   5.965  16.226  0.00  0.00    +0.000 C 
ATOM     14  C   UNL     1       5.877   5.424  14.842  0.00  0.00    +0.000 C 
ATOM     15  C   UNL     1       6.559   4.085  15.082  0.00  0.00    +0.000 C 
ATOM     16  N   UNL     1       6.811   3.984  16.520  0.00  0.00    +0.000 NA
ATOM     17  H   UNL     1       7.757   3.642  16.695  0.00  0.00    +0.000 HD
ENDBRANCH  11  12
ENDBRANCH   6  11
TORSDOF 2
ENDMDL
MODEL 6
REMARK VINA RESULT:      -6.5      1.357      5.459
REMARK  Name = 
REMARK  2 active torsions:
REMARK  status: ('A' for Active; 'I' for Inactive)
REMARK    1  A    between atoms: C_6  and  C_7
REMARK    2  A    between atoms: C_7  and  C_8
REMARK                            x       y       z     vdW  Elec       q    Type
REMARK                         _______ _______ _______ _____ _____    ______ ____
ROOT
ATOM      1  C   UNL     1       1.163   3.798  20.358  0.00  0.00    +0.000 A 
ATOM      2  C   UNL     1       1.741   2.536  20.331  0.00  0.00    +0.000 A 
ATOM      3  N   UNL     1       2.824   2.176  19.605  0.00  0.00    +0.000 NA
ATOM      4  C   UNL     1       3.314   3.189  18.867  0.00  0.00    +0.000 A 
ATOM      5  N   UNL     1       4.404   3.102  18.049  0.00  0.00    +0.000 N 
ATOM      6  C   UNL     1       4.613   4.298  17.395  0.00  0.00    +0.000 A 
ATOM      7  C   UNL     1       3.659   5.185  17.864  0.00  0.00    +0.000 A 
ATOM      8  C   UNL     1       2.832   4.491  18.787  0.00  0.00    +0.000 A 
ATOM      9  C   UNL     1       1.712   4.813  19.573  0.00  0.00    +0.000 A 
ATOM     10  H   UNL     1       4.954   2.264  17.903  0.00  0.00    +0.000 HD
ENDROOT
BRANCH   6  11
ATOM     11  C   UNL     1       5.720   4.478  16.398  0.00  0.00    +0.000 C 
BRANCH  11  12
ATOM     12  C   UNL     1       6.894   5.368  16.854  0.00  0.00    +0.000 C 
ATOM     13  C   UNL     1       7.198   5.299  18.345  0.00  0.00    +0.000 C 
ATOM     14  C   UNL     1       7.996   6.565  18.596  0.00  0.00    +0.000 C 
ATOM     15  C   UNL     1       7.523   7.549  17.537  0.00  0.00    +0.000 C 
ATOM     16  N   UNL     1       6.667   6.806  16.611  0.00  0.00    +0.000 NA
ATOM     17  H   UNL     1       6.897   7.039  15.644  0.00  0.00    +0.000 HD
ENDBRANCH  11  12
ENDBRANCH   6  11
TORSDOF 2
ENDMDL
MODEL 7
REMARK VINA RESULT:      -6.5      1.905      5.731
REMARK  Name = 
REMARK  2 active torsions:
REMARK  status: ('A' for Active; 'I' for Inactive)
REMARK    1  A    between atoms: C_6  and  C_7
REMARK    2  A    between atoms: C_7  and  C_8
REMARK                            x       y       z     vdW  Elec       q    Type
REMARK                         _______ _______ _______ _____ _____    ______ ____
ROOT
ATOM      1  C   UNL     1       0.708   3.079  20.248  0.00  0.00    +0.000 A 
ATOM      2  C   UNL     1       0.884   2.449  19.023  0.00  0.00    +0.000 A 
ATOM      3  N   UNL     1       1.641   2.905  18.000  0.00  0.00    +0.000 NA
ATOM      4  C   UNL     1       2.232   4.082  18.277  0.00  0.00    +0.000 A 
ATOM      5  N   UNL     1       3.055   4.761  17.423  0.00  0.00    +0.000 N 
ATOM      6  C   UNL     1       3.453   5.955  17.986  0.00  0.00    +0.000 A 
ATOM      7  C   UNL     1       2.912   6.001  19.259  0.00  0.00    +0.000 A 
ATOM      8  C   UNL     1       2.135   4.826  19.448  0.00  0.00    +0.000 A 
ATOM      9  C   UNL     1       1.346   4.298  20.483  0.00  0.00    +0.000 A 
ATOM     10  H   UNL     1       3.299   4.457  16.489  0.00  0.00    +0.000 HD
ENDROOT
BRANCH   6  11
ATOM     11  C   UNL     1       4.330   6.929  17.253  0.00  0.00    +0.000 C 
BRANCH  11  12
ATOM     12  C   UNL     1       5.676   6.369  16.749  0.00  0.00    +0.000 C 
ATOM     13  C   UNL     1       5.610   5.699  15.383  0.00  0.00    +0.000 C 
ATOM     14  C   UNL     1       6.862   4.842  15.356  0.00  0.00    +0.000 C 
ATOM     15  C   UNL     1       7.152   4.516  16.813  0.00  0.00    +0.000 C 
ATOM     16  N   UNL     1       6.239   5.324  17.624  0.00  0.00    +0.000 NA
ATOM     17  H   UNL     1       6.737   5.751  18.406  0.00  0.00    +0.000 HD
ENDBRANCH  11  12
ENDBRANCH   6  11
TORSDOF 2
ENDMDL
MODEL 8
REMARK VINA RESULT:      -6.5      1.645      2.225
REMARK  Name = 
REMARK  2 active torsions:
REMARK  status: ('A' for Active; 'I' for Inactive)
REMARK    1  A    between atoms: C_6  and  C_7
REMARK    2  A    between atoms: C_7  and  C_8
REMARK                            x       y       z     vdW  Elec       q    Type
REMARK                         _______ _______ _______ _____ _____    ______ ____
ROOT
ATOM      1  C   UNL     1       7.047   5.658  16.444  0.00  0.00    +0.000 A 
ATOM      2  C   UNL     1       7.381   4.821  17.501  0.00  0.00    +0.000 A 
ATOM      3  N   UNL     1       6.603   4.551  18.573  0.00  0.00    +0.000 NA
ATOM      4  C   UNL     1       5.424   5.198  18.535  0.00  0.00    +0.000 A 
ATOM      5  N   UNL     1       4.450   5.100  19.487  0.00  0.00    +0.000 N 
ATOM      6  C   UNL     1       3.390   5.928  19.179  0.00  0.00    +0.000 A 
ATOM      7  C   UNL     1       3.682   6.520  17.963  0.00  0.00    +0.000 A 
ATOM      8  C   UNL     1       4.966   6.070  17.553  0.00  0.00    +0.000 A 
ATOM      9  C   UNL     1       5.810   6.304  16.455  0.00  0.00    +0.000 A 
ATOM     10  H   UNL     1       4.513   4.538  20.327  0.00  0.00    +0.000 HD
ENDROOT
BRANCH   6  11
ATOM     11  C   UNL     1       2.192   6.055  20.075  0.00  0.00    +0.000 C 
BRANCH  11  12
ATOM     12  C   UNL     1       1.461   4.738  20.406  0.00  0.00    +0.000 C 
ATOM     13  C   UNL     1       2.083   3.938  21.542  0.00  0.00    +0.000 C 
ATOM     14  C   UNL     1       1.520   2.544  21.335  0.00  0.00    +0.000 C 
ATOM     15  C   UNL     1       1.242   2.446  19.843  0.00  0.00    +0.000 C 
ATOM     16  N   UNL     1       1.435   3.784  19.281  0.00  0.00    +0.000 NA
ATOM     17  H   UNL     1       0.676   4.017  18.640  0.00  0.00    +0.000 HD
ENDBRANCH  11  12
ENDBRANCH   6  11
TORSDOF 2
ENDMDL
MODEL 9
REMARK VINA RESULT:      -6.5      2.395      5.614
REMARK  Name = 
REMARK  2 active torsions:
REMARK  status: ('A' for Active; 'I' for Inactive)
REMARK    1  A    between atoms: C_6  and  C_7
REMARK    2  A    between atoms: C_7  and  C_8
REMARK                            x       y       z     vdW  Elec       q    Type
REMARK                         _______ _______ _______ _____ _____    ______ ____
ROOT
ATOM      1  C   UNL     1       2.303   4.342  20.776  0.00  0.00    +0.000 A 
ATOM      2  C   UNL     1       2.888   3.083  20.790  0.00  0.00    +0.000 A 
ATOM      3  N   UNL     1       3.991   2.716  20.100  0.00  0.00    +0.000 NA
ATOM      4  C   UNL     1       4.496   3.717  19.356  0.00  0.00    +0.000 A 
ATOM      5  N   UNL     1       5.608   3.620  18.569  0.00  0.00    +0.000 N 
ATOM      6  C   UNL     1       5.828   4.805  17.898  0.00  0.00    +0.000 A 
ATOM      7  C   UNL     1       4.857   5.695  18.323  0.00  0.00    +0.000 A 
ATOM      8  C   UNL     1       4.009   5.015  19.238  0.00  0.00    +0.000 A 
ATOM      9  C   UNL     1       2.868   5.345  19.987  0.00  0.00    +0.000 A 
ATOM     10  H   UNL     1       6.166   2.783  18.453  0.00  0.00    +0.000 HD
ENDROOT
BRANCH   6  11
ATOM     11  C   UNL     1       6.961   4.972  16.927  0.00  0.00    +0.000 C 
BRANCH  11  12
ATOM     12  C   UNL     1       6.561   5.055  15.439  0.00  0.00    +0.000 C 
ATOM     13  C   UNL     1       5.974   3.770  14.870  0.00  0.00    +0.000 C 
ATOM     14  C   UNL     1       6.135   3.948  13.372  0.00  0.00    +0.000 C 
ATOM     15  C   UNL     1       7.338   4.865  13.208  0.00  0.00    +0.000 C 
ATOM     16  N   UNL     1       7.696   5.346  14.544  0.00  0.00    +0.000 NA
ATOM     17  H   UNL     1       7.880   6.350  14.526  0.00  0.00    +0.000 HD
ENDBRANCH  11  12
ENDBRANCH   6  11
TORSDOF 2
ENDMDL
