MODEL 1
REMARK VINA RESULT:      -7.0      0.000      0.000
REMARK  Name = 
REMARK  6 active torsions:
REMARK  status: ('A' for Active; 'I' for Inactive)
REMARK    1  A    between atoms: C_1  and  N_2
REMARK    2  A    between atoms: C_3  and  C_4
REMARK    3  A    between atoms: C_4  and  O_6
REMARK    4  A    between atoms: C_7  and  C_8
REMARK    5  A    between atoms: C_8  and  C_9
REMARK    6  A    between atoms: C_9  and  O_11
REMARK                            x       y       z     vdW  Elec       q    Type
REMARK                         _______ _______ _______ _____ _____    ______ ____
ROOT
ATOM      1  C   UNL     1       2.302   4.148  21.047  0.00  0.00    +0.000 C 
ATOM      2  N   UNL     1       3.019   4.540  19.849  0.00  0.00    +0.000 N 
ATOM      3  C   UNL     1       3.817   3.770  19.012  0.00  0.00    +0.000 A 
ATOM      4  C   UNL     1       4.283   4.634  18.006  0.00  0.00    +0.000 A 
ATOM      5  C   UNL     1       3.654   5.907  18.193  0.00  0.00    +0.000 A 
ATOM      6  C   UNL     1       3.664   7.120  17.473  0.00  0.00    +0.000 A 
ATOM      7  C   UNL     1       2.869   8.189  17.903  0.00  0.00    +0.000 A 
ATOM      8  C   UNL     1       2.082   8.072  19.042  0.00  0.00    +0.000 A 
ATOM      9  C   UNL     1       2.074   6.890  19.781  0.00  0.00    +0.000 A 
ATOM     10  C   UNL     1       2.866   5.817  19.335  0.00  0.00    +0.000 A 
ENDROOT
BRANCH   3  11
ATOM     11  C   UNL     1       4.065   2.344  19.100  0.00  0.00    +0.000 C 
ATOM     12  O   UNL     1       3.389   1.447  18.626  0.00  0.00    +0.000 OA
BRANCH  11  13
ATOM     13  O   UNL     1       5.179   2.039  19.788  0.00  0.00    +0.000 OA
ATOM     14  H   UNL     1       4.934   2.236  20.715  0.00  0.00    +0.000 HD
ENDBRANCH  11  13
ENDBRANCH   3  11
BRANCH   4  15
ATOM     15  C   UNL     1       5.201   4.312  16.848  0.00  0.00    +0.000 C 
BRANCH  15  16
ATOM     16  C   UNL     1       6.678   4.523  17.126  0.00  0.00    +0.000 C 
ATOM     17  O   UNL     1       7.462   4.936  16.284  0.00  0.00    +0.000 OA
BRANCH  16  18
ATOM     18  O   UNL     1       7.097   4.145  18.356  0.00  0.00    +0.000 OA
ATOM     19  H   UNL     1       6.608   4.570  19.086  0.00  0.00    +0.000 HD
ENDBRANCH  16  18
ENDBRANCH  15  16
ENDBRANCH   4  15
TORSDOF 5
ENDMDL
MODEL 2
REMARK VINA RESULT:      -6.6      1.813      4.006
REMARK  Name = 
REMARK  6 active torsions:
REMARK  status: ('A' for Active; 'I' for Inactive)
REMARK    1  A    between atoms: C_1  and  N_2
REMARK    2  A    between atoms: C_3  and  C_4
REMARK    3  A    between atoms: C_4  and  O_6
REMARK    4  A    between atoms: C_7  and  C_8
REMARK    5  A    between atoms: C_8  and  C_9
REMARK    6  A    between atoms: C_9  and  O_11
REMARK                            x       y       z     vdW  Elec       q    Type
REMARK                         _______ _______ _______ _____ _____    ______ ____
ROOT
ATOM      1  C   UNL     1       5.001   4.024  17.015  0.00  0.00    +0.000 C 
ATOM      2  N   UNL     1       4.158   4.409  18.131  0.00  0.00    +0.000 N 
ATOM      3  C   UNL     1       3.857   3.702  19.287  0.00  0.00    +0.000 A 
ATOM      4  C   UNL     1       2.988   4.517  20.034  0.00  0.00    +0.000 A 
ATOM      5  C   UNL     1       2.870   5.772  19.354  0.00  0.00    +0.000 A 
ATOM      6  C   UNL     1       2.217   6.987  19.648  0.00  0.00    +0.000 A 
ATOM      7  C   UNL     1       2.352   8.076  18.778  0.00  0.00    +0.000 A 
ATOM      8  C   UNL     1       3.111   7.965  17.619  0.00  0.00    +0.000 A 
ATOM      9  C   UNL     1       3.746   6.766  17.298  0.00  0.00    +0.000 A 
ATOM     10  C   UNL     1       3.616   5.682  18.184  0.00  0.00    +0.000 A 
ENDROOT
BRANCH   3  11
ATOM     11  C   UNL     1       4.386   2.414  19.695  0.00  0.00    +0.000 C 
ATOM     12  O   UNL     1       5.105   2.181  20.652  0.00  0.00    +0.000 OA
BRANCH  11  13
ATOM     13  O   UNL     1       4.003   1.404  18.894  0.00  0.00    +0.000 OA
ATOM     14  H   UNL     1       3.454   1.848  18.216  0.00  0.00    +0.000 HD
ENDBRANCH  11  13
ENDBRANCH   3  11
BRANCH   4  15
ATOM     15  C   UNL     1       2.345   4.221  21.370  0.00  0.00    +0.000 C 
BRANCH  15  16
ATOM     16  C   UNL     1       1.379   3.050  21.369  0.00  0.00    +0.000 C 
ATOM     17  O   UNL     1       1.459   2.120  22.157  0.00  0.00    +0.000 OA
BRANCH  16  18
ATOM     18  O   UNL     1       0.460   3.057  20.376  0.00  0.00    +0.000 OA
ATOM     19  H   UNL     1      -0.222   3.748  20.475  0.00  0.00    +0.000 HD
ENDBRANCH  16  18
ENDBRANCH  15  16
ENDBRANCH   4  15
TORSDOF 5
ENDMDL
MODEL 3
REMARK VINA RESULT:      -6.5      0.388      1.135
REMARK  Name = 
REMARK  6 active torsions:
REMARK  status: ('A' for Active; 'I' for Inactive)
REMARK    1  A    between atoms: C_1  and  N_2
REMARK    2  A    between atoms: C_3  and  C_4
REMARK    3  A    between atoms: C_4  and  O_6
REMARK    4  A    between atoms: C_7  and  C_8
REMARK    5  A    between atoms: C_8  and  C_9
REMARK    6  A    between atoms: C_9  and  O_11
REMARK                            x       y       z     vdW  Elec       q    Type
REMARK                         _______ _______ _______ _____ _____    ______ ____
ROOT
ATOM      1  C   UNL     1       2.366   4.068  21.186  0.00  0.00    +0.000 C 
ATOM      2  N   UNL     1       3.160   4.411  20.021  0.00  0.00    +0.000 N 
ATOM      3  C   UNL     1       4.034   3.616  19.291  0.00  0.00    +0.000 A 
ATOM      4  C   UNL     1       4.553   4.434  18.272  0.00  0.00    +0.000 A 
ATOM      5  C   UNL     1       3.884   5.698  18.338  0.00  0.00    +0.000 A 
ATOM      6  C   UNL     1       3.919   6.868  17.550  0.00  0.00    +0.000 A 
ATOM      7  C   UNL     1       3.070   7.938  17.858  0.00  0.00    +0.000 A 
ATOM      8  C   UNL     1       2.204   7.864  18.943  0.00  0.00    +0.000 A 
ATOM      9  C   UNL     1       2.170   6.726  19.748  0.00  0.00    +0.000 A 
ATOM     10  C   UNL     1       3.016   5.652  19.423  0.00  0.00    +0.000 A 
ENDROOT
BRANCH   3  11
ATOM     11  C   UNL     1       4.307   2.205  19.480  0.00  0.00    +0.000 C 
ATOM     12  O   UNL     1       5.093   1.705  20.268  0.00  0.00    +0.000 OA
BRANCH  11  13
ATOM     13  O   UNL     1       3.582   1.409  18.675  0.00  0.00    +0.000 OA
ATOM     14  H   UNL     1       2.683   1.459  19.058  0.00  0.00    +0.000 HD
ENDBRANCH  11  13
ENDBRANCH   3  11
BRANCH   4  15
ATOM     15  C   UNL     1       5.560   4.071  17.204  0.00  0.00    +0.000 C 
BRANCH  15  16
ATOM     16  C   UNL     1       6.963   4.599  17.443  0.00  0.00    +0.000 C 
ATOM     17  O   UNL     1       7.470   4.662  18.554  0.00  0.00    +0.000 OA
BRANCH  16  18
ATOM     18  O   UNL     1       7.597   5.080  16.349  0.00  0.00    +0.000 OA
ATOM     19  H   UNL     1       8.570   5.073  16.424  0.00  0.00    +0.000 HD
ENDBRANCH  16  18
ENDBRANCH  15  16
ENDBRANCH   4  15
TORSDOF 5
ENDMDL
MODEL 4
REMARK VINA RESULT:      -6.5      2.231      4.058
REMARK  Name = 
REMARK  6 active torsions:
REMARK  status: ('A' for Active; 'I' for Inactive)
REMARK    1  A    between atoms: C_1  and  N_2
REMARK    2  A    between atoms: C_3  and  C_4
REMARK    3  A    between atoms: C_4  and  O_6
REMARK    4  A    between atoms: C_7  and  C_8
REMARK    5  A    between atoms: C_8  and  C_9
REMARK    6  A    between atoms: C_9  and  O_11
REMARK                            x       y       z     vdW  Elec       q    Type
REMARK                         _______ _______ _______ _____ _____    ______ ____
ROOT
ATOM      1  C   UNL     1       2.687   6.981  18.305  0.00  0.00    +0.000 C 
ATOM      2  N   UNL     1       3.360   5.810  17.778  0.00  0.00    +0.000 N 
ATOM      3  C   UNL     1       4.485   5.736  16.967  0.00  0.00    +0.000 A 
ATOM      4  C   UNL     1       4.715   4.368  16.734  0.00  0.00    +0.000 A 
ATOM      5  C   UNL     1       3.774   3.625  17.517  0.00  0.00    +0.000 A 
ATOM      6  C   UNL     1       3.568   2.250  17.756  0.00  0.00    +0.000 A 
ATOM      7  C   UNL     1       2.570   1.842  18.649  0.00  0.00    +0.000 A 
ATOM      8  C   UNL     1       1.770   2.780  19.291  0.00  0.00    +0.000 A 
ATOM      9  C   UNL     1       1.942   4.143  19.053  0.00  0.00    +0.000 A 
ATOM     10  C   UNL     1       2.955   4.543  18.164  0.00  0.00    +0.000 A 
ENDROOT
BRANCH   3  11
ATOM     11  C   UNL     1       5.313   6.834  16.508  0.00  0.00    +0.000 C 
ATOM     12  O   UNL     1       6.097   7.494  17.169  0.00  0.00    +0.000 OA
BRANCH  11  13
ATOM     13  O   UNL     1       5.160   7.106  15.200  0.00  0.00    +0.000 OA
ATOM     14  H   UNL     1       4.978   8.067  15.188  0.00  0.00    +0.000 HD
ENDBRANCH  11  13
ENDBRANCH   3  11
BRANCH   4  15
ATOM     15  C   UNL     1       5.805   3.731  15.902  0.00  0.00    +0.000 C 
BRANCH  15  16
ATOM     16  C   UNL     1       7.163   4.400  16.009  0.00  0.00    +0.000 C 
ATOM     17  O   UNL     1       7.855   4.345  17.015  0.00  0.00    +0.000 OA
BRANCH  16  18
ATOM     18  O   UNL     1       7.532   5.141  14.938  0.00  0.00    +0.000 OA
ATOM     19  H   UNL     1       8.078   5.917  15.166  0.00  0.00    +0.000 HD
ENDBRANCH  16  18
ENDBRANCH  15  16
ENDBRANCH   4  15
TORSDOF 5
ENDMDL
MODEL 5
REMARK VINA RESULT:      -6.3      1.908      3.478
REMARK  Name = 
REMARK  6 active torsions:
REMARK  status: ('A' for Active; 'I' for Inactive)
REMARK    1  A    between atoms: C_1  and  N_2
REMARK    2  A    between atoms: C_3  and  C_4
REMARK    3  A    between atoms: C_4  and  O_6
REMARK    4  A    between atoms: C_7  and  C_8
REMARK    5  A    between atoms: C_8  and  C_9
REMARK    6  A    between atoms: C_9  and  O_11
REMARK                            x       y       z     vdW  Elec       q    Type
REMARK                         _______ _______ _______ _____ _____    ______ ____
ROOT
ATOM      1  C   UNL     1       2.310   6.919  19.863  0.00  0.00    +0.000 C 
ATOM      2  N   UNL     1       2.836   5.728  19.224  0.00  0.00    +0.000 N 
ATOM      3  C   UNL     1       2.573   4.394  19.505  0.00  0.00    +0.000 A 
ATOM      4  C   UNL     1       3.346   3.641  18.604  0.00  0.00    +0.000 A 
ATOM      5  C   UNL     1       3.985   4.553  17.704  0.00  0.00    +0.000 A 
ATOM      6  C   UNL     1       4.803   4.394  16.565  0.00  0.00    +0.000 A 
ATOM      7  C   UNL     1       5.226   5.523  15.852  0.00  0.00    +0.000 A 
ATOM      8  C   UNL     1       4.861   6.798  16.265  0.00  0.00    +0.000 A 
ATOM      9  C   UNL     1       4.072   6.979  17.401  0.00  0.00    +0.000 A 
ATOM     10  C   UNL     1       3.641   5.839  18.103  0.00  0.00    +0.000 A 
ENDROOT
BRANCH   3  11
ATOM     11  C   UNL     1       1.634   3.867  20.476  0.00  0.00    +0.000 C 
ATOM     12  O   UNL     1       1.818   3.715  21.673  0.00  0.00    +0.000 OA
BRANCH  11  13
ATOM     13  O   UNL     1       0.447   3.531  19.942  0.00  0.00    +0.000 OA
ATOM     14  H   UNL     1       0.248   4.279  19.344  0.00  0.00    +0.000 HD
ENDBRANCH  11  13
ENDBRANCH   3  11
BRANCH   4  15
ATOM     15  C   UNL     1       3.446   2.136  18.487  0.00  0.00    +0.000 C 
BRANCH  15  16
ATOM     16  C   UNL     1       4.470   1.492  19.404  0.00  0.00    +0.000 C 
ATOM     17  O   UNL     1       5.032   2.098  20.305  0.00  0.00    +0.000 OA
BRANCH  16  18
ATOM     18  O   UNL     1       4.788   0.210  19.109  0.00  0.00    +0.000 OA
ATOM     19  H   UNL     1       4.258  -0.449  19.596  0.00  0.00    +0.000 HD
ENDBRANCH  16  18
ENDBRANCH  15  16
ENDBRANCH   4  15
TORSDOF 5
ENDMDL
MODEL 6
REMARK VINA RESULT:      -6.3      1.772      3.734
REMARK  Name = 
REMARK  6 active torsions:
REMARK  status: ('A' for Active; 'I' for Inactive)
REMARK    1  A    between atoms: C_1  and  N_2
REMARK    2  A    between atoms: C_3  and  C_4
REMARK    3  A    between atoms: C_4  and  O_6
REMARK    4  A    between atoms: C_7  and  C_8
REMARK    5  A    between atoms: C_8  and  C_9
REMARK    6  A    between atoms: C_9  and  O_11
REMARK                            x       y       z     vdW  Elec       q    Type
REMARK                         _______ _______ _______ _____ _____    ______ ____
ROOT
ATOM      1  C   UNL     1       5.588   4.101  16.840  0.00  0.00    +0.000 C 
ATOM      2  N   UNL     1       4.384   4.337  17.614  0.00  0.00    +0.000 N 
ATOM      3  C   UNL     1       3.688   3.463  18.440  0.00  0.00    +0.000 A 
ATOM      4  C   UNL     1       2.589   4.184  18.940  0.00  0.00    +0.000 A 
ATOM      5  C   UNL     1       2.708   5.537  18.487  0.00  0.00    +0.000 A 
ATOM      6  C   UNL     1       1.970   6.717  18.721  0.00  0.00    +0.000 A 
ATOM      7  C   UNL     1       2.398   7.926  18.160  0.00  0.00    +0.000 A 
ATOM      8  C   UNL     1       3.535   7.972  17.362  0.00  0.00    +0.000 A 
ATOM      9  C   UNL     1       4.266   6.814  17.100  0.00  0.00    +0.000 A 
ATOM     10  C   UNL     1       3.836   5.607  17.678  0.00  0.00    +0.000 A 
ENDROOT
BRANCH   3  11
ATOM     11  C   UNL     1       4.052   2.104  18.789  0.00  0.00    +0.000 C 
ATOM     12  O   UNL     1       3.628   1.075  18.289  0.00  0.00    +0.000 OA
BRANCH  11  13
ATOM     13  O   UNL     1       4.963   2.032  19.775  0.00  0.00    +0.000 OA
ATOM     14  H   UNL     1       5.055   1.070  19.929  0.00  0.00    +0.000 HD
ENDBRANCH  11  13
ENDBRANCH   3  11
BRANCH   4  15
ATOM     15  C   UNL     1       1.501   3.702  19.874  0.00  0.00    +0.000 C 
BRANCH  15  16
ATOM     16  C   UNL     1       1.909   3.606  21.333  0.00  0.00    +0.000 C 
ATOM     17  O   UNL     1       1.609   2.660  22.047  0.00  0.00    +0.000 OA
BRANCH  16  18
ATOM     18  O   UNL     1       2.565   4.682  21.825  0.00  0.00    +0.000 OA
ATOM     19  H   UNL     1       2.121   5.531  21.639  0.00  0.00    +0.000 HD
ENDBRANCH  16  18
ENDBRANCH  15  16
ENDBRANCH   4  15
TORSDOF 5
ENDMDL
MODEL 7
REMARK VINA RESULT:      -6.3      2.026      3.901
REMARK  Name = 
REMARK  6 active torsions:
REMARK  status: ('A' for Active; 'I' for Inactive)
REMARK    1  A    between atoms: C_1  and  N_2
REMARK    2  A    between atoms: C_3  and  C_4
REMARK    3  A    between atoms: C_4  and  O_6
REMARK    4  A    between atoms: C_7  and  C_8
REMARK    5  A    between atoms: C_8  and  C_9
REMARK    6  A    between atoms: C_9  and  O_11
REMARK                            x       y       z     vdW  Elec       q    Type
REMARK                         _______ _______ _______ _____ _____    ______ ____
ROOT
ATOM      1  C   UNL     1       2.725   7.417  18.805  0.00  0.00    +0.000 C 
ATOM      2  N   UNL     1       3.177   6.059  18.566  0.00  0.00    +0.000 N 
ATOM      3  C   UNL     1       2.815   4.887  19.217  0.00  0.00    +0.000 A 
ATOM      4  C   UNL     1       3.550   3.855  18.609  0.00  0.00    +0.000 A 
ATOM      5  C   UNL     1       4.270   4.418  17.506  0.00  0.00    +0.000 A 
ATOM      6  C   UNL     1       5.096   3.878  16.498  0.00  0.00    +0.000 A 
ATOM      7  C   UNL     1       5.612   4.716  15.502  0.00  0.00    +0.000 A 
ATOM      8  C   UNL     1       5.331   6.077  15.506  0.00  0.00    +0.000 A 
ATOM      9  C   UNL     1       4.535   6.634  16.506  0.00  0.00    +0.000 A 
ATOM     10  C   UNL     1       4.010   5.783  17.495  0.00  0.00    +0.000 A 
ENDROOT
BRANCH   3  11
ATOM     11  C   UNL     1       1.823   4.732  20.263  0.00  0.00    +0.000 C 
ATOM     12  O   UNL     1       0.677   4.332  20.139  0.00  0.00    +0.000 OA
BRANCH  11  13
ATOM     13  O   UNL     1       2.274   5.077  21.481  0.00  0.00    +0.000 OA
ATOM     14  H   UNL     1       3.027   5.669  21.284  0.00  0.00    +0.000 HD
ENDBRANCH  11  13
ENDBRANCH   3  11
BRANCH   4  15
ATOM     15  C   UNL     1       3.546   2.380  18.945  0.00  0.00    +0.000 C 
BRANCH  15  16
ATOM     16  C   UNL     1       4.179   2.027  20.279  0.00  0.00    +0.000 C 
ATOM     17  O   UNL     1       3.674   2.320  21.353  0.00  0.00    +0.000 OA
BRANCH  16  18
ATOM     18  O   UNL     1       5.392   1.433  20.207  0.00  0.00    +0.000 OA
ATOM     19  H   UNL     1       5.797   1.472  19.320  0.00  0.00    +0.000 HD
ENDBRANCH  16  18
ENDBRANCH  15  16
ENDBRANCH   4  15
TORSDOF 5
ENDMDL
MODEL 8
REMARK VINA RESULT:      -6.3      2.125      3.562
REMARK  Name = 
REMARK  6 active torsions:
REMARK  status: ('A' for Active; 'I' for Inactive)
REMARK    1  A    between atoms: C_1  and  N_2
REMARK    2  A    between atoms: C_3  and  C_4
REMARK    3  A    between atoms: C_4  and  O_6
REMARK    4  A    between atoms: C_7  and  C_8
REMARK    5  A    between atoms: C_8  and  C_9
REMARK    6  A    between atoms: C_9  and  O_11
REMARK                            x       y       z     vdW  Elec       q    Type
REMARK                         _______ _______ _______ _____ _____    ______ ____
ROOT
ATOM      1  C   UNL     1       2.108   7.152  19.853  0.00  0.00    +0.000 C 
ATOM      2  N   UNL     1       2.898   5.998  19.467  0.00  0.00    +0.000 N 
ATOM      3  C   UNL     1       2.871   4.706  19.977  0.00  0.00    +0.000 A 
ATOM      4  C   UNL     1       3.842   3.981  19.264  0.00  0.00    +0.000 A 
ATOM      5  C   UNL     1       4.366   4.834  18.241  0.00  0.00    +0.000 A 
ATOM      6  C   UNL     1       5.287   4.650  17.188  0.00  0.00    +0.000 A 
ATOM      7  C   UNL     1       5.544   5.700  16.299  0.00  0.00    +0.000 A 
ATOM      8  C   UNL     1       4.913   6.929  16.454  0.00  0.00    +0.000 A 
ATOM      9  C   UNL     1       4.016   7.139  17.501  0.00  0.00    +0.000 A 
ATOM     10  C   UNL     1       3.754   6.074  18.381  0.00  0.00    +0.000 A 
ENDROOT
BRANCH   3  11
ATOM     11  C   UNL     1       1.975   4.177  20.986  0.00  0.00    +0.000 C 
ATOM     12  O   UNL     1       2.269   3.796  22.107  0.00  0.00    +0.000 OA
BRANCH  11  13
ATOM     13  O   UNL     1       0.692   4.129  20.587  0.00  0.00    +0.000 OA
ATOM     14  H   UNL     1       0.556   3.183  20.375  0.00  0.00    +0.000 HD
ENDBRANCH  11  13
ENDBRANCH   3  11
BRANCH   4  15
ATOM     15  C   UNL     1       4.234   2.529  19.431  0.00  0.00    +0.000 C 
BRANCH  15  16
ATOM     16  C   UNL     1       3.591   1.576  18.439  0.00  0.00    +0.000 C 
ATOM     17  O   UNL     1       2.559   1.838  17.838  0.00  0.00    +0.000 OA
BRANCH  16  18
ATOM     18  O   UNL     1       4.192   0.370  18.320  0.00  0.00    +0.000 OA
ATOM     19  H   UNL     1       3.785  -0.328  18.868  0.00  0.00    +0.000 HD
ENDBRANCH  16  18
ENDBRANCH  15  16
ENDBRANCH   4  15
TORSDOF 5
ENDMDL
MODEL 9
REMARK VINA RESULT:      -6.2      2.137      3.987
REMARK  Name = 
REMARK  6 active torsions:
REMARK  status: ('A' for Active; 'I' for Inactive)
REMARK    1  A    between atoms: C_1  and  N_2
REMARK    2  A    between atoms: C_3  and  C_4
REMARK    3  A    between atoms: C_4  and  O_6
REMARK    4  A    between atoms: C_7  and  C_8
REMARK    5  A    between atoms: C_8  and  C_9
REMARK    6  A    between atoms: C_9  and  O_11
REMARK                            x       y       z     vdW  Elec       q    Type
REMARK                         _______ _______ _______ _____ _____    ______ ____
ROOT
ATOM      1  C   UNL     1       2.601   7.605  18.247  0.00  0.00    +0.000 C 
ATOM      2  N   UNL     1       3.257   6.312  18.289  0.00  0.00    +0.000 N 
ATOM      3  C   UNL     1       3.016   5.234  19.131  0.00  0.00    +0.000 A 
ATOM      4  C   UNL     1       3.932   4.233  18.764  0.00  0.00    +0.000 A 
ATOM      5  C   UNL     1       4.646   4.692  17.611  0.00  0.00    +0.000 A 
ATOM      6  C   UNL     1       5.613   4.113  16.762  0.00  0.00    +0.000 A 
ATOM      7  C   UNL     1       6.079   4.828  15.652  0.00  0.00    +0.000 A 
ATOM      8  C   UNL     1       5.609   6.108  15.387  0.00  0.00    +0.000 A 
ATOM      9  C   UNL     1       4.670   6.708  16.225  0.00  0.00    +0.000 A 
ATOM     10  C   UNL     1       4.198   5.978  17.330  0.00  0.00    +0.000 A 
ENDROOT
BRANCH   3  11
ATOM     11  C   UNL     1       1.979   5.118  20.139  0.00  0.00    +0.000 C 
ATOM     12  O   UNL     1       1.004   4.386  20.114  0.00  0.00    +0.000 OA
BRANCH  11  13
ATOM     13  O   UNL     1       2.171   5.928  21.195  0.00  0.00    +0.000 OA
ATOM     14  H   UNL     1       1.943   5.361  21.960  0.00  0.00    +0.000 HD
ENDBRANCH  11  13
ENDBRANCH   3  11
BRANCH   4  15
ATOM     15  C   UNL     1       4.111   2.859  19.371  0.00  0.00    +0.000 C 
BRANCH  15  16
ATOM     16  C   UNL     1       3.557   1.717  18.538  0.00  0.00    +0.000 C 
ATOM     17  O   UNL     1       2.464   1.760  17.992  0.00  0.00    +0.000 OA
BRANCH  16  18
ATOM     18  O   UNL     1       4.319   0.600  18.505  0.00  0.00    +0.000 OA
ATOM     19  H   UNL     1       5.220   0.728  18.857  0.00  0.00    +0.000 HD
ENDBRANCH  16  18
ENDBRANCH  15  16
ENDBRANCH   4  15
TORSDOF 5
ENDMDL
