MODEL 1
REMARK VINA RESULT:      -6.3      0.000      0.000
REMARK  Name = 
REMARK  4 active torsions:
REMARK  status: ('A' for Active; 'I' for Inactive)
REMARK    1  A    between atoms: N_1  and  C_2
REMARK    2  A    between atoms: C_2  and  C_3
REMARK    3  A    between atoms: C_3  and  N_4
REMARK    4  A    between atoms: N_4  and  C_5
REMARK                            x       y       z     vdW  Elec       q    Type
REMARK                         _______ _______ _______ _____ _____    ______ ____
ROOT
ATOM      1  C   UNL     1       2.232   5.599  19.959  0.00  0.00    +0.000 A 
ATOM      2  N   UNL     1       1.338   4.961  20.756  0.00  0.00    +0.000 NA
ATOM      3  C   UNL     1       1.080   3.665  20.553  0.00  0.00    +0.000 A 
ATOM      4  N   UNL     1       1.606   2.875  19.623  0.00  0.00    +0.000 NA
ATOM      5  C   UNL     1       2.452   3.532  18.815  0.00  0.00    +0.000 A 
ATOM      6  S   UNL     1       3.241   2.689  17.567  0.00  0.00    +0.000 S 
ATOM      7  C   UNL     1       4.062   4.084  17.065  0.00  0.00    +0.000 A 
ATOM      8  C   UNL     1       3.720   5.208  17.798  0.00  0.00    +0.000 A 
ATOM      9  C   UNL     1       2.806   4.878  18.881  0.00  0.00    +0.000 A 
ATOM     10  C   UNL     1       4.301   6.557  17.466  0.00  0.00    +0.000 C 
ATOM     11  C   UNL     1       5.139   6.556  16.169  0.00  0.00    +0.000 C 
ATOM     12  C   UNL     1       5.952   5.268  15.986  0.00  0.00    +0.000 C 
ATOM     13  C   UNL     1       5.029   4.046  15.924  0.00  0.00    +0.000 C 
ENDROOT
BRANCH   1  14
ATOM     14  N   UNL     1       2.589   6.919  20.279  0.00  0.00    +0.000 N 
ATOM     15  H   UNL     1       2.560   7.038  21.289  0.00  0.00    +0.000 HD
BRANCH  14  16
ATOM     16  C   UNL     1       1.735   7.934  19.638  0.00  0.00    +0.000 C 
BRANCH  16  17
ATOM     17  C   UNL     1       1.073   8.859  20.684  0.00  0.00    +0.000 C 
BRANCH  17  18
ATOM     18  N   UNL     1       1.628   8.653  22.031  0.00  0.00    +0.000 NA
ATOM     19  H   UNL     1       0.868   8.386  22.657  0.00  0.00    +0.000 HD
ATOM     20  H   UNL     1       1.982   9.541  22.383  0.00  0.00    +0.000 HD
ENDBRANCH  17  18
ENDBRANCH  16  17
ENDBRANCH  14  16
ENDBRANCH   1  14
TORSDOF 4
ENDMDL
MODEL 2
REMARK VINA RESULT:      -6.2      3.073      5.496
REMARK  Name = 
REMARK  4 active torsions:
REMARK  status: ('A' for Active; 'I' for Inactive)
REMARK    1  A    between atoms: N_1  and  C_2
REMARK    2  A    between atoms: C_2  and  C_3
REMARK    3  A    between atoms: C_3  and  N_4
REMARK    4  A    between atoms: N_4  and  C_5
REMARK                            x       y       z     vdW  Elec       q    Type
REMARK                         _______ _______ _______ _____ _____    ______ ____
ROOT
ATOM      1  C   UNL     1       5.603   5.035  17.598  0.00  0.00    +0.000 A 
ATOM      2  N   UNL     1       5.932   5.918  16.620  0.00  0.00    +0.000 NA
ATOM      3  C   UNL     1       5.104   6.928  16.337  0.00  0.00    +0.000 A 
ATOM      4  N   UNL     1       3.936   7.197  16.909  0.00  0.00    +0.000 NA
ATOM      5  C   UNL     1       3.604   6.289  17.841  0.00  0.00    +0.000 A 
ATOM      6  S   UNL     1       2.147   6.468  18.700  0.00  0.00    +0.000 S 
ATOM      7  C   UNL     1       2.443   5.066  19.606  0.00  0.00    +0.000 A 
ATOM      8  C   UNL     1       3.615   4.423  19.243  0.00  0.00    +0.000 A 
ATOM      9  C   UNL     1       4.343   5.176  18.233  0.00  0.00    +0.000 A 
ATOM     10  C   UNL     1       4.023   3.127  19.894  0.00  0.00    +0.000 C 
ATOM     11  C   UNL     1       2.942   2.553  20.835  0.00  0.00    +0.000 C 
ATOM     12  C   UNL     1       2.193   3.640  21.616  0.00  0.00    +0.000 C 
ATOM     13  C   UNL     1       1.486   4.608  20.660  0.00  0.00    +0.000 C 
ENDROOT
BRANCH   1  14
ATOM     14  N   UNL     1       6.551   4.069  17.971  0.00  0.00    +0.000 N 
ATOM     15  H   UNL     1       6.229   3.589  18.808  0.00  0.00    +0.000 HD
BRANCH  14  16
ATOM     16  C   UNL     1       7.897   4.622  18.207  0.00  0.00    +0.000 C 
BRANCH  16  17
ATOM     17  C   UNL     1       7.863   5.771  19.241  0.00  0.00    +0.000 C 
BRANCH  17  18
ATOM     18  N   UNL     1       8.216   5.306  20.591  0.00  0.00    +0.000 NA
ATOM     19  H   UNL     1       8.450   6.118  21.162  0.00  0.00    +0.000 HD
ATOM     20  H   UNL     1       9.067   4.748  20.536  0.00  0.00    +0.000 HD
ENDBRANCH  17  18
ENDBRANCH  16  17
ENDBRANCH  14  16
ENDBRANCH   1  14
TORSDOF 4
ENDMDL
MODEL 3
REMARK VINA RESULT:      -6.1      1.105      1.259
REMARK  Name = 
REMARK  4 active torsions:
REMARK  status: ('A' for Active; 'I' for Inactive)
REMARK    1  A    between atoms: N_1  and  C_2
REMARK    2  A    between atoms: C_2  and  C_3
REMARK    3  A    between atoms: C_3  and  N_4
REMARK    4  A    between atoms: N_4  and  C_5
REMARK                            x       y       z     vdW  Elec       q    Type
REMARK                         _______ _______ _______ _____ _____    ______ ____
ROOT
ATOM      1  C   UNL     1       2.294   5.856  19.781  0.00  0.00    +0.000 A 
ATOM      2  N   UNL     1       1.383   5.307  20.624  0.00  0.00    +0.000 NA
ATOM      3  C   UNL     1       1.107   4.002  20.538  0.00  0.00    +0.000 A 
ATOM      4  N   UNL     1       1.627   3.123  19.690  0.00  0.00    +0.000 NA
ATOM      5  C   UNL     1       2.491   3.690  18.832  0.00  0.00    +0.000 A 
ATOM      6  S   UNL     1       3.276   2.724  17.674  0.00  0.00    +0.000 S 
ATOM      7  C   UNL     1       4.123   4.055  17.054  0.00  0.00    +0.000 A 
ATOM      8  C   UNL     1       3.793   5.247  17.679  0.00  0.00    +0.000 A 
ATOM      9  C   UNL     1       2.865   5.031  18.778  0.00  0.00    +0.000 A 
ATOM     10  C   UNL     1       4.397   6.551  17.230  0.00  0.00    +0.000 C 
ATOM     11  C   UNL     1       5.246   6.419  15.948  0.00  0.00    +0.000 C 
ATOM     12  C   UNL     1       6.040   5.107  15.890  0.00  0.00    +0.000 C 
ATOM     13  C   UNL     1       5.098   3.899  15.931  0.00  0.00    +0.000 C 
ENDROOT
BRANCH   1  14
ATOM     14  N   UNL     1       2.669   7.195  19.983  0.00  0.00    +0.000 N 
ATOM     15  H   UNL     1       2.914   7.330  20.960  0.00  0.00    +0.000 HD
BRANCH  14  16
ATOM     16  C   UNL     1       1.629   8.164  19.595  0.00  0.00    +0.000 C 
BRANCH  16  17
ATOM     17  C   UNL     1       1.908   8.764  18.198  0.00  0.00    +0.000 C 
BRANCH  17  18
ATOM     18  N   UNL     1       0.993   9.872  17.884  0.00  0.00    +0.000 NA
ATOM     19  H   UNL     1       0.598   9.713  16.957  0.00  0.00    +0.000 HD
ATOM     20  H   UNL     1       1.530  10.736  17.815  0.00  0.00    +0.000 HD
ENDBRANCH  17  18
ENDBRANCH  16  17
ENDBRANCH  14  16
ENDBRANCH   1  14
TORSDOF 4
ENDMDL
MODEL 4
REMARK VINA RESULT:      -6.1      2.291      4.227
REMARK  Name = 
REMARK  4 active torsions:
REMARK  status: ('A' for Active; 'I' for Inactive)
REMARK    1  A    between atoms: N_1  and  C_2
REMARK    2  A    between atoms: C_2  and  C_3
REMARK    3  A    between atoms: C_3  and  N_4
REMARK    4  A    between atoms: N_4  and  C_5
REMARK                            x       y       z     vdW  Elec       q    Type
REMARK                         _______ _______ _______ _____ _____    ______ ____
ROOT
ATOM      1  C   UNL     1       4.107   6.503  17.412  0.00  0.00    +0.000 A 
ATOM      2  N   UNL     1       4.947   6.644  16.355  0.00  0.00    +0.000 NA
ATOM      3  C   UNL     1       5.352   5.561  15.684  0.00  0.00    +0.000 A 
ATOM      4  N   UNL     1       5.031   4.296  15.929  0.00  0.00    +0.000 NA
ATOM      5  C   UNL     1       4.238   4.169  17.005  0.00  0.00    +0.000 A 
ATOM      6  S   UNL     1       3.703   2.624  17.472  0.00  0.00    +0.000 S 
ATOM      7  C   UNL     1       2.825   3.260  18.775  0.00  0.00    +0.000 A 
ATOM      8  C   UNL     1       2.959   4.632  18.902  0.00  0.00    +0.000 A 
ATOM      9  C   UNL     1       3.751   5.191  17.817  0.00  0.00    +0.000 A 
ATOM     10  C   UNL     1       2.300   5.375  20.034  0.00  0.00    +0.000 C 
ATOM     11  C   UNL     1       1.642   4.441  21.072  0.00  0.00    +0.000 C 
ATOM     12  C   UNL     1       0.988   3.209  20.436  0.00  0.00    +0.000 C 
ATOM     13  C   UNL     1       2.024   2.374  19.676  0.00  0.00    +0.000 C 
ENDROOT
BRANCH   1  14
ATOM     14  N   UNL     1       3.587   7.662  18.011  0.00  0.00    +0.000 N 
ATOM     15  H   UNL     1       3.593   7.548  19.022  0.00  0.00    +0.000 HD
BRANCH  14  16
ATOM     16  C   UNL     1       2.225   7.998  17.560  0.00  0.00    +0.000 C 
BRANCH  16  17
ATOM     17  C   UNL     1       1.678   9.245  18.292  0.00  0.00    +0.000 C 
BRANCH  17  18
ATOM     18  N   UNL     1       1.959  10.485  17.551  0.00  0.00    +0.000 NA
ATOM     19  H   UNL     1       1.938  10.277  16.553  0.00  0.00    +0.000 HD
ATOM     20  H   UNL     1       2.911  10.784  17.756  0.00  0.00    +0.000 HD
ENDBRANCH  17  18
ENDBRANCH  16  17
ENDBRANCH  14  16
ENDBRANCH   1  14
TORSDOF 4
ENDMDL
MODEL 5
REMARK VINA RESULT:      -6.1      3.023      5.924
REMARK  Name = 
REMARK  4 active torsions:
REMARK  status: ('A' for Active; 'I' for Inactive)
REMARK    1  A    between atoms: N_1  and  C_2
REMARK    2  A    between atoms: C_2  and  C_3
REMARK    3  A    between atoms: C_3  and  N_4
REMARK    4  A    between atoms: N_4  and  C_5
REMARK                            x       y       z     vdW  Elec       q    Type
REMARK                         _______ _______ _______ _____ _____    ______ ____
ROOT
ATOM      1  C   UNL     1       4.463   5.045  16.633  0.00  0.00    +0.000 A 
ATOM      2  N   UNL     1       5.109   6.167  16.226  0.00  0.00    +0.000 NA
ATOM      3  C   UNL     1       4.896   7.321  16.865  0.00  0.00    +0.000 A 
ATOM      4  N   UNL     1       4.089   7.532  17.899  0.00  0.00    +0.000 NA
ATOM      5  C   UNL     1       3.422   6.424  18.260  0.00  0.00    +0.000 A 
ATOM      6  S   UNL     1       2.348   6.485  19.577  0.00  0.00    +0.000 S 
ATOM      7  C   UNL     1       1.962   4.843  19.412  0.00  0.00    +0.000 A 
ATOM      8  C   UNL     1       2.600   4.240  18.341  0.00  0.00    +0.000 A 
ATOM      9  C   UNL     1       3.517   5.159  17.683  0.00  0.00    +0.000 A 
ATOM     10  C   UNL     1       2.341   2.798  17.995  0.00  0.00    +0.000 C 
ATOM     11  C   UNL     1       1.208   2.166  18.832  0.00  0.00    +0.000 C 
ATOM     12  C   UNL     1       1.197   2.655  20.286  0.00  0.00    +0.000 C 
ATOM     13  C   UNL     1       1.005   4.174  20.348  0.00  0.00    +0.000 C 
ENDROOT
BRANCH   1  14
ATOM     14  N   UNL     1       4.810   3.821  16.037  0.00  0.00    +0.000 N 
ATOM     15  H   UNL     1       4.565   3.061  16.667  0.00  0.00    +0.000 HD
BRANCH  14  16
ATOM     16  C   UNL     1       6.235   3.724  15.675  0.00  0.00    +0.000 C 
BRANCH  16  17
ATOM     17  C   UNL     1       6.492   4.251  14.245  0.00  0.00    +0.000 C 
BRANCH  17  18
ATOM     18  N   UNL     1       7.470   5.350  14.231  0.00  0.00    +0.000 NA
ATOM     19  H   UNL     1       8.298   5.040  13.723  0.00  0.00    +0.000 HD
ATOM     20  H   UNL     1       7.778   5.530  15.186  0.00  0.00    +0.000 HD
ENDBRANCH  17  18
ENDBRANCH  16  17
ENDBRANCH  14  16
ENDBRANCH   1  14
TORSDOF 4
ENDMDL
MODEL 6
REMARK VINA RESULT:      -6.1      1.819      3.812
REMARK  Name = 
REMARK  4 active torsions:
REMARK  status: ('A' for Active; 'I' for Inactive)
REMARK    1  A    between atoms: N_1  and  C_2
REMARK    2  A    between atoms: C_2  and  C_3
REMARK    3  A    between atoms: C_3  and  N_4
REMARK    4  A    between atoms: N_4  and  C_5
REMARK                            x       y       z     vdW  Elec       q    Type
REMARK                         _______ _______ _______ _____ _____    ______ ____
ROOT
ATOM      1  C   UNL     1       2.855   4.564  19.999  0.00  0.00    +0.000 A 
ATOM      2  N   UNL     1       2.025   5.102  20.929  0.00  0.00    +0.000 NA
ATOM      3  C   UNL     1       1.645   6.379  20.816  0.00  0.00    +0.000 A 
ATOM      4  N   UNL     1       1.991   7.241  19.867  0.00  0.00    +0.000 NA
ATOM      5  C   UNL     1       2.848   6.708  18.981  0.00  0.00    +0.000 A 
ATOM      6  S   UNL     1       3.399   7.652  17.679  0.00  0.00    +0.000 S 
ATOM      7  C   UNL     1       4.337   6.376  17.076  0.00  0.00    +0.000 A 
ATOM      8  C   UNL     1       4.283   5.241  17.869  0.00  0.00    +0.000 A 
ATOM      9  C   UNL     1       3.353   5.410  18.975  0.00  0.00    +0.000 A 
ATOM     10  C   UNL     1       5.095   4.019  17.530  0.00  0.00    +0.000 C 
ATOM     11  C   UNL     1       6.071   4.243  16.355  0.00  0.00    +0.000 C 
ATOM     12  C   UNL     1       5.487   5.145  15.260  0.00  0.00    +0.000 C 
ATOM     13  C   UNL     1       5.138   6.527  15.822  0.00  0.00    +0.000 C 
ENDROOT
BRANCH   1  14
ATOM     14  N   UNL     1       3.126   3.188  20.062  0.00  0.00    +0.000 N 
ATOM     15  H   UNL     1       3.719   2.927  19.278  0.00  0.00    +0.000 HD
BRANCH  14  16
ATOM     16  C   UNL     1       1.916   2.347  20.066  0.00  0.00    +0.000 C 
BRANCH  16  17
ATOM     17  C   UNL     1       1.208   2.366  18.692  0.00  0.00    +0.000 C 
BRANCH  17  18
ATOM     18  N   UNL     1       2.108   1.952  17.605  0.00  0.00    +0.000 NA
ATOM     19  H   UNL     1       2.805   2.684  17.464  0.00  0.00    +0.000 HD
ATOM     20  H   UNL     1       1.577   1.900  16.737  0.00  0.00    +0.000 HD
ENDBRANCH  17  18
ENDBRANCH  16  17
ENDBRANCH  14  16
ENDBRANCH   1  14
TORSDOF 4
ENDMDL
MODEL 7
REMARK VINA RESULT:      -6.0      2.583      4.758
REMARK  Name = 
REMARK  4 active torsions:
REMARK  status: ('A' for Active; 'I' for Inactive)
REMARK    1  A    between atoms: N_1  and  C_2
REMARK    2  A    between atoms: C_2  and  C_3
REMARK    3  A    between atoms: C_3  and  N_4
REMARK    4  A    between atoms: N_4  and  C_5
REMARK                            x       y       z     vdW  Elec       q    Type
REMARK                         _______ _______ _______ _____ _____    ______ ____
ROOT
ATOM      1  C   UNL     1       4.066   3.723  17.628  0.00  0.00    +0.000 A 
ATOM      2  N   UNL     1       4.225   2.435  18.026  0.00  0.00    +0.000 NA
ATOM      3  C   UNL     1       3.712   2.036  19.194  0.00  0.00    +0.000 A 
ATOM      4  N   UNL     1       3.035   2.772  20.069  0.00  0.00    +0.000 NA
ATOM      5  C   UNL     1       2.927   4.053  19.683  0.00  0.00    +0.000 A 
ATOM      6  S   UNL     1       2.079   5.153  20.664  0.00  0.00    +0.000 S 
ATOM      7  C   UNL     1       2.358   6.425  19.578  0.00  0.00    +0.000 A 
ATOM      8  C   UNL     1       3.128   6.050  18.490  0.00  0.00    +0.000 A 
ATOM      9  C   UNL     1       3.422   4.625  18.514  0.00  0.00    +0.000 A 
ATOM     10  C   UNL     1       3.532   7.053  17.443  0.00  0.00    +0.000 C 
ATOM     11  C   UNL     1       3.148   8.503  17.810  0.00  0.00    +0.000 C 
ATOM     12  C   UNL     1       1.798   8.598  18.530  0.00  0.00    +0.000 C 
ATOM     13  C   UNL     1       1.820   7.796  19.836  0.00  0.00    +0.000 C 
ENDROOT
BRANCH   1  14
ATOM     14  N   UNL     1       4.490   4.081  16.338  0.00  0.00    +0.000 N 
ATOM     15  H   UNL     1       3.986   3.523  15.653  0.00  0.00    +0.000 HD
BRANCH  14  16
ATOM     16  C   UNL     1       5.941   3.926  16.130  0.00  0.00    +0.000 C 
BRANCH  16  17
ATOM     17  C   UNL     1       6.750   4.802  17.114  0.00  0.00    +0.000 C 
BRANCH  17  18
ATOM     18  N   UNL     1       8.001   4.149  17.530  0.00  0.00    +0.000 NA
ATOM     19  H   UNL     1       7.860   3.738  18.453  0.00  0.00    +0.000 HD
ATOM     20  H   UNL     1       8.722   4.860  17.647  0.00  0.00    +0.000 HD
ENDBRANCH  17  18
ENDBRANCH  16  17
ENDBRANCH  14  16
ENDBRANCH   1  14
TORSDOF 4
ENDMDL
MODEL 8
REMARK VINA RESULT:      -6.0      2.060      3.931
REMARK  Name = 
REMARK  4 active torsions:
REMARK  status: ('A' for Active; 'I' for Inactive)
REMARK    1  A    between atoms: N_1  and  C_2
REMARK    2  A    between atoms: C_2  and  C_3
REMARK    3  A    between atoms: C_3  and  N_4
REMARK    4  A    between atoms: N_4  and  C_5
REMARK                            x       y       z     vdW  Elec       q    Type
REMARK                         _______ _______ _______ _____ _____    ______ ____
ROOT
ATOM      1  C   UNL     1       3.719   3.483  19.688  0.00  0.00    +0.000 A 
ATOM      2  N   UNL     1       2.869   3.587  20.742  0.00  0.00    +0.000 NA
ATOM      3  C   UNL     1       2.163   4.709  20.914  0.00  0.00    +0.000 A 
ATOM      4  N   UNL     1       2.185   5.798  20.154  0.00  0.00    +0.000 NA
ATOM      5  C   UNL     1       3.063   5.698  19.144  0.00  0.00    +0.000 A 
ATOM      6  S   UNL     1       3.227   6.988  18.048  0.00  0.00    +0.000 S 
ATOM      7  C   UNL     1       4.403   6.155  17.155  0.00  0.00    +0.000 A 
ATOM      8  C   UNL     1       4.718   4.919  17.694  0.00  0.00    +0.000 A 
ATOM      9  C   UNL     1       3.884   4.613  18.846  0.00  0.00    +0.000 A 
ATOM     10  C   UNL     1       5.783   4.052  17.075  0.00  0.00    +0.000 C 
ATOM     11  C   UNL     1       6.553   4.754  15.936  0.00  0.00    +0.000 C 
ATOM     12  C   UNL     1       5.656   5.655  15.078  0.00  0.00    +0.000 C 
ATOM     13  C   UNL     1       5.016   6.756  15.930  0.00  0.00    +0.000 C 
ENDROOT
BRANCH   1  14
ATOM     14  N   UNL     1       4.341   2.247  19.450  0.00  0.00    +0.000 N 
ATOM     15  H   UNL     1       5.273   2.408  19.077  0.00  0.00    +0.000 HD
BRANCH  14  16
ATOM     16  C   UNL     1       3.586   1.373  18.535  0.00  0.00    +0.000 C 
BRANCH  16  17
ATOM     17  C   UNL     1       2.372   2.108  17.923  0.00  0.00    +0.000 C 
BRANCH  17  18
ATOM     18  N   UNL     1       1.122   1.787  18.628  0.00  0.00    +0.000 NA
ATOM     19  H   UNL     1       0.497   1.310  17.979  0.00  0.00    +0.000 HD
ATOM     20  H   UNL     1       0.653   2.655  18.882  0.00  0.00    +0.000 HD
ENDBRANCH  17  18
ENDBRANCH  16  17
ENDBRANCH  14  16
ENDBRANCH   1  14
TORSDOF 4
ENDMDL
MODEL 9
REMARK VINA RESULT:      -5.9      3.796      6.636
REMARK  Name = 
REMARK  4 active torsions:
REMARK  status: ('A' for Active; 'I' for Inactive)
REMARK    1  A    between atoms: N_1  and  C_2
REMARK    2  A    between atoms: C_2  and  C_3
REMARK    3  A    between atoms: C_3  and  N_4
REMARK    4  A    between atoms: N_4  and  C_5
REMARK                            x       y       z     vdW  Elec       q    Type
REMARK                         _______ _______ _______ _____ _____    ______ ____
ROOT
ATOM      1  C   UNL     1       6.177   4.575  15.910  0.00  0.00    +0.000 A 
ATOM      2  N   UNL     1       7.124   5.533  15.742  0.00  0.00    +0.000 NA
ATOM      3  C   UNL     1       7.336   6.429  16.711  0.00  0.00    +0.000 A 
ATOM      4  N   UNL     1       6.709   6.517  17.878  0.00  0.00    +0.000 NA
ATOM      5  C   UNL     1       5.744   5.593  18.010  0.00  0.00    +0.000 A 
ATOM      6  S   UNL     1       4.835   5.531  19.446  0.00  0.00    +0.000 S 
ATOM      7  C   UNL     1       3.928   4.214  18.883  0.00  0.00    +0.000 A 
ATOM      8  C   UNL     1       4.267   3.834  17.595  0.00  0.00    +0.000 A 
ATOM      9  C   UNL     1       5.387   4.611  17.088  0.00  0.00    +0.000 A 
ATOM     10  C   UNL     1       3.533   2.718  16.898  0.00  0.00    +0.000 C 
ATOM     11  C   UNL     1       2.313   2.203  17.691  0.00  0.00    +0.000 C 
ATOM     12  C   UNL     1       2.554   2.179  19.206  0.00  0.00    +0.000 C 
ATOM     13  C   UNL     1       2.869   3.584  19.730  0.00  0.00    +0.000 C 
ENDROOT
BRANCH   1  14
ATOM     14  N   UNL     1       6.070   3.564  14.941  0.00  0.00    +0.000 N 
ATOM     15  H   UNL     1       6.615   2.758  15.237  0.00  0.00    +0.000 HD
BRANCH  14  16
ATOM     16  C   UNL     1       6.502   3.987  13.598  0.00  0.00    +0.000 C 
BRANCH  16  17
ATOM     17  C   UNL     1       5.629   3.346  12.495  0.00  0.00    +0.000 C 
BRANCH  17  18
ATOM     18  N   UNL     1       6.292   2.192  11.870  0.00  0.00    +0.000 NA
ATOM     19  H   UNL     1       7.275   2.195  12.145  0.00  0.00    +0.000 HD
ATOM     20  H   UNL     1       6.284   2.313  10.858  0.00  0.00    +0.000 HD
ENDBRANCH  17  18
ENDBRANCH  16  17
ENDBRANCH  14  16
ENDBRANCH   1  14
TORSDOF 4
ENDMDL
