MODEL 1
REMARK VINA RESULT:      -8.0      0.000      0.000
REMARK  Name = 
REMARK  3 active torsions:
REMARK  status: ('A' for Active; 'I' for Inactive)
REMARK    1  A    between atoms: N_3  and  C_4
REMARK    2  A    between atoms: C_9  and  C_10
REMARK    3  A    between atoms: N_16  and  C_17
REMARK                            x       y       z     vdW  Elec       q    Type
REMARK                         _______ _______ _______ _____ _____    ______ ____
ROOT
ATOM      1  O   UNL     1       1.750   6.245  17.941  0.00  0.00    +0.000 OA
ATOM      2  C   UNL     1       2.051   6.854  18.960  0.00  0.00    +0.000 C 
ATOM      3  N   UNL     1       2.827   6.371  19.981  0.00  0.00    +0.000 N 
ATOM      4  N   UNL     1       1.618   8.148  19.115  0.00  0.00    +0.000 N 
ATOM      5  H   UNL     1       2.479   6.719  20.853  0.00  0.00    +0.000 HD
ATOM      6  H   UNL     1       1.005   8.419  18.353  0.00  0.00    +0.000 HD
ENDROOT
BRANCH   4   7
ATOM      7  C   UNL     1       1.918   9.147  20.157  0.00  0.00    +0.000 C 
ATOM      8  C   UNL     1       1.417   8.694  21.551  0.00  0.00    +0.000 C 
ATOM      9  C   UNL     1      -0.112   8.839  21.747  0.00  0.00    +0.000 C 
ATOM     10  N   UNL     1      -0.604  10.150  21.268  0.00  0.00    +0.000 N 
ATOM     11  C   UNL     1      -1.078  11.049  22.207  0.00  0.00    +0.000 C 
ATOM     12  O   UNL     1      -1.061  10.711  23.401  0.00  0.00    +0.000 OA
ATOM     13  N   UNL     1      -1.560  12.305  21.888  0.00  0.00    +0.000 N 
ATOM     14  C   UNL     1      -1.880  12.976  20.621  0.00  0.00    +0.000 C 
ATOM     15  C   UNL     1      -1.169  14.330  20.569  0.00  0.00    +0.000 C 
ATOM     16  O   UNL     1      -1.675  15.176  21.612  0.00  0.00    +0.000 OA
ATOM     17  C   UNL     1      -1.453  14.583  22.902  0.00  0.00    +0.000 C 
ATOM     18  C   UNL     1      -2.022  13.156  23.004  0.00  0.00    +0.000 C 
ATOM     19  C   UNL     1      -0.209  10.366  19.890  0.00  0.00    +0.000 C 
ATOM     20  C   UNL     1       1.300  10.512  19.847  0.00  0.00    +0.000 C 
ENDBRANCH   4   7
BRANCH   3  21
ATOM     21  C   UNL     1       3.236   5.018  20.015  0.00  0.00    +0.000 A 
ATOM     22  C   UNL     1       2.350   4.127  20.647  0.00  0.00    +0.000 A 
ATOM     23  C   UNL     1       2.604   2.758  20.657  0.00  0.00    +0.000 A 
ATOM     24  C   UNL     1       3.745   2.270  20.034  0.00  0.00    +0.000 A 
ATOM     25  C   UNL     1       4.626   3.153  19.399  0.00  0.00    +0.000 A 
ATOM     26  C   UNL     1       4.405   4.551  19.364  0.00  0.00    +0.000 A 
BRANCH  26  27
ATOM     27  C   UNL     1       5.446   5.436  18.765  0.00  0.00    +0.000 A 
ATOM     28  C   UNL     1       6.731   5.598  19.313  0.00  0.00    +0.000 A 
ATOM     29  C   UNL     1       7.729   6.321  18.653  0.00  0.00    +0.000 A 
ATOM     30  C   UNL     1       7.441   6.986  17.469  0.00  0.00    +0.000 A 
ATOM     31  C   UNL     1       6.156   6.926  16.947  0.00  0.00    +0.000 A 
ATOM     32  C   UNL     1       5.179   6.146  17.578  0.00  0.00    +0.000 A 
ENDBRANCH  26  27
ENDBRANCH   3  21
TORSDOF 3
ENDMDL
MODEL 2
REMARK VINA RESULT:      -7.8      1.005      1.419
REMARK  Name = 
REMARK  3 active torsions:
REMARK  status: ('A' for Active; 'I' for Inactive)
REMARK    1  A    between atoms: N_3  and  C_4
REMARK    2  A    between atoms: C_9  and  C_10
REMARK    3  A    between atoms: N_16  and  C_17
REMARK                            x       y       z     vdW  Elec       q    Type
REMARK                         _______ _______ _______ _____ _____    ______ ____
ROOT
ATOM      1  O   UNL     1       1.839   5.850  17.818  0.00  0.00    +0.000 OA
ATOM      2  C   UNL     1       2.131   6.577  18.759  0.00  0.00    +0.000 C 
ATOM      3  N   UNL     1       2.911   6.225  19.829  0.00  0.00    +0.000 N 
ATOM      4  N   UNL     1       1.683   7.875  18.763  0.00  0.00    +0.000 N 
ATOM      5  H   UNL     1       2.557   6.668  20.655  0.00  0.00    +0.000 HD
ATOM      6  H   UNL     1       1.067   8.048  17.974  0.00  0.00    +0.000 HD
ENDROOT
BRANCH   4   7
ATOM      7  C   UNL     1       1.969   8.991  19.681  0.00  0.00    +0.000 C 
ATOM      8  C   UNL     1       1.174   8.867  21.005  0.00  0.00    +0.000 C 
ATOM      9  C   UNL     1      -0.320   9.255  20.880  0.00  0.00    +0.000 C 
ATOM     10  N   UNL     1      -0.497  10.515  20.125  0.00  0.00    +0.000 N 
ATOM     11  C   UNL     1      -0.962  11.624  20.811  0.00  0.00    +0.000 C 
ATOM     12  O   UNL     1      -1.202  11.504  22.023  0.00  0.00    +0.000 OA
ATOM     13  N   UNL     1      -1.166  12.857  20.221  0.00  0.00    +0.000 N 
ATOM     14  C   UNL     1      -1.154  13.330  18.829  0.00  0.00    +0.000 C 
ATOM     15  C   UNL     1      -0.226  14.542  18.714  0.00  0.00    +0.000 C 
ATOM     16  O   UNL     1      -0.749  15.622  19.501  0.00  0.00    +0.000 OA
ATOM     17  C   UNL     1      -0.847  15.242  20.884  0.00  0.00    +0.000 C 
ATOM     18  C   UNL     1      -1.657  13.949  21.087  0.00  0.00    +0.000 C 
ATOM     19  C   UNL     1       0.152  10.427  18.832  0.00  0.00    +0.000 C 
ATOM     20  C   UNL     1       1.650  10.352  19.058  0.00  0.00    +0.000 C 
ENDBRANCH   4   7
BRANCH   3  21
ATOM     21  C   UNL     1       3.335   4.890  20.021  0.00  0.00    +0.000 A 
ATOM     22  C   UNL     1       2.475   4.078  20.782  0.00  0.00    +0.000 A 
ATOM     23  C   UNL     1       2.745   2.722  20.955  0.00  0.00    +0.000 A 
ATOM     24  C   UNL     1       3.875   2.170  20.369  0.00  0.00    +0.000 A 
ATOM     25  C   UNL     1       4.730   2.974  19.606  0.00  0.00    +0.000 A 
ATOM     26  C   UNL     1       4.493   4.355  19.404  0.00  0.00    +0.000 A 
BRANCH  26  27
ATOM     27  C   UNL     1       5.510   5.166  18.672  0.00  0.00    +0.000 A 
ATOM     28  C   UNL     1       5.308   5.672  17.376  0.00  0.00    +0.000 A 
ATOM     29  C   UNL     1       6.220   6.545  16.774  0.00  0.00    +0.000 A 
ATOM     30  C   UNL     1       7.409   6.861  17.415  0.00  0.00    +0.000 A 
ATOM     31  C   UNL     1       7.685   6.305  18.658  0.00  0.00    +0.000 A 
ATOM     32  C   UNL     1       6.738   5.485  19.284  0.00  0.00    +0.000 A 
ENDBRANCH  26  27
ENDBRANCH   3  21
TORSDOF 3
ENDMDL
MODEL 3
REMARK VINA RESULT:      -7.6      1.380      3.344
REMARK  Name = 
REMARK  3 active torsions:
REMARK  status: ('A' for Active; 'I' for Inactive)
REMARK    1  A    between atoms: N_3  and  C_4
REMARK    2  A    between atoms: C_9  and  C_10
REMARK    3  A    between atoms: N_16  and  C_17
REMARK                            x       y       z     vdW  Elec       q    Type
REMARK                         _______ _______ _______ _____ _____    ______ ____
ROOT
ATOM      1  O   UNL     1       1.236   6.774  17.174  0.00  0.00    +0.000 OA
ATOM      2  C   UNL     1       1.864   7.371  18.040  0.00  0.00    +0.000 C 
ATOM      3  N   UNL     1       3.200   7.221  18.306  0.00  0.00    +0.000 N 
ATOM      4  N   UNL     1       1.214   8.303  18.811  0.00  0.00    +0.000 N 
ATOM      5  H   UNL     1       3.350   7.299  19.293  0.00  0.00    +0.000 HD
ATOM      6  H   UNL     1       0.222   8.320  18.599  0.00  0.00    +0.000 HD
ENDROOT
BRANCH   4   7
ATOM      7  C   UNL     1       1.727   9.242  19.824  0.00  0.00    +0.000 C 
ATOM      8  C   UNL     1       1.406   8.768  21.264  0.00  0.00    +0.000 C 
ATOM      9  C   UNL     1      -0.066   8.997  21.688  0.00  0.00    +0.000 C 
ATOM     10  N   UNL     1      -0.536  10.352  21.324  0.00  0.00    +0.000 N 
ATOM     11  C   UNL     1      -0.809  11.243  22.348  0.00  0.00    +0.000 C 
ATOM     12  O   UNL     1      -0.641  10.859  23.516  0.00  0.00    +0.000 OA
ATOM     13  N   UNL     1      -1.250  12.536  22.139  0.00  0.00    +0.000 N 
ATOM     14  C   UNL     1      -1.708  13.272  20.952  0.00  0.00    +0.000 C 
ATOM     15  C   UNL     1      -0.926  14.581  20.835  0.00  0.00    +0.000 C 
ATOM     16  O   UNL     1      -1.219  15.417  21.964  0.00  0.00    +0.000 OA
ATOM     17  C   UNL     1      -0.850  14.764  23.190  0.00  0.00    +0.000 C 
ATOM     18  C   UNL     1      -1.489  13.371  23.335  0.00  0.00    +0.000 C 
ATOM     19  C   UNL     1      -0.333  10.596  19.909  0.00  0.00    +0.000 C 
ATOM     20  C   UNL     1       1.159  10.652  19.648  0.00  0.00    +0.000 C 
ENDBRANCH   4   7
BRANCH   3  21
ATOM     21  C   UNL     1       3.964   6.210  17.679  0.00  0.00    +0.000 A 
ATOM     22  C   UNL     1       4.888   6.651  16.715  0.00  0.00    +0.000 A 
ATOM     23  C   UNL     1       5.760   5.754  16.102  0.00  0.00    +0.000 A 
ATOM     24  C   UNL     1       5.712   4.410  16.449  0.00  0.00    +0.000 A 
ATOM     25  C   UNL     1       4.798   3.969  17.412  0.00  0.00    +0.000 A 
ATOM     26  C   UNL     1       3.896   4.847  18.060  0.00  0.00    +0.000 A 
BRANCH  26  27
ATOM     27  C   UNL     1       2.877   4.282  18.992  0.00  0.00    +0.000 A 
ATOM     28  C   UNL     1       1.780   3.514  18.564  0.00  0.00    +0.000 A 
ATOM     29  C   UNL     1       0.923   2.881  19.470  0.00  0.00    +0.000 A 
ATOM     30  C   UNL     1       1.082   3.079  20.834  0.00  0.00    +0.000 A 
ATOM     31  C   UNL     1       2.098   3.909  21.291  0.00  0.00    +0.000 A 
ATOM     32  C   UNL     1       2.993   4.485  20.381  0.00  0.00    +0.000 A 
ENDBRANCH  26  27
ENDBRANCH   3  21
TORSDOF 3
ENDMDL
MODEL 4
REMARK VINA RESULT:      -7.5      6.624      9.089
REMARK  Name = 
REMARK  3 active torsions:
REMARK  status: ('A' for Active; 'I' for Inactive)
REMARK    1  A    between atoms: N_3  and  C_4
REMARK    2  A    between atoms: C_9  and  C_10
REMARK    3  A    between atoms: N_16  and  C_17
REMARK                            x       y       z     vdW  Elec       q    Type
REMARK                         _______ _______ _______ _____ _____    ______ ____
ROOT
ATOM      1  O   UNL     1       8.107  16.060  20.279  0.00  0.00    +0.000 OA
ATOM      2  C   UNL     1       7.488  15.798  19.255  0.00  0.00    +0.000 C 
ATOM      3  N   UNL     1       8.043  15.450  18.052  0.00  0.00    +0.000 N 
ATOM      4  N   UNL     1       6.115  15.814  19.283  0.00  0.00    +0.000 N 
ATOM      5  H   UNL     1       7.497  15.842  17.310  0.00  0.00    +0.000 HD
ATOM      6  H   UNL     1       5.775  16.135  20.184  0.00  0.00    +0.000 HD
ENDROOT
BRANCH   4   7
ATOM      7  C   UNL     1       5.125  15.433  18.260  0.00  0.00    +0.000 C 
ATOM      8  C   UNL     1       4.041  16.524  18.073  0.00  0.00    +0.000 C 
ATOM      9  C   UNL     1       2.978  16.554  19.198  0.00  0.00    +0.000 C 
ATOM     10  N   UNL     1       2.491  15.196  19.527  0.00  0.00    +0.000 N 
ATOM     11  C   UNL     1       1.179  14.883  19.219  0.00  0.00    +0.000 C 
ATOM     12  O   UNL     1       0.481  15.757  18.679  0.00  0.00    +0.000 OA
ATOM     13  N   UNL     1       0.607  13.651  19.472  0.00  0.00    +0.000 N 
ATOM     14  C   UNL     1       1.045  12.464  20.219  0.00  0.00    +0.000 C 
ATOM     15  C   UNL     1       0.915  11.227  19.328  0.00  0.00    +0.000 C 
ATOM     16  O   UNL     1      -0.467  11.012  19.006  0.00  0.00    +0.000 OA
ATOM     17  C   UNL     1      -1.010  12.146  18.310  0.00  0.00    +0.000 C 
ATOM     18  C   UNL     1      -0.805  13.466  19.076  0.00  0.00    +0.000 C 
ATOM     19  C   UNL     1       3.603  14.324  19.852  0.00  0.00    +0.000 C 
ATOM     20  C   UNL     1       4.424  14.115  18.594  0.00  0.00    +0.000 C 
ENDBRANCH   4   7
BRANCH   3  21
ATOM     21  C   UNL     1       9.440  15.514  17.842  0.00  0.00    +0.000 A 
ATOM     22  C   UNL     1       9.925  16.729  17.324  0.00  0.00    +0.000 A 
ATOM     23  C   UNL     1      11.294  16.939  17.166  0.00  0.00    +0.000 A 
ATOM     24  C   UNL     1      12.185  15.937  17.525  0.00  0.00    +0.000 A 
ATOM     25  C   UNL     1      11.706  14.730  18.047  0.00  0.00    +0.000 A 
ATOM     26  C   UNL     1      10.325  14.475  18.225  0.00  0.00    +0.000 A 
BRANCH  26  27
ATOM     27  C   UNL     1       9.889  13.123  18.680  0.00  0.00    +0.000 A 
ATOM     28  C   UNL     1       9.389  12.138  17.810  0.00  0.00    +0.000 A 
ATOM     29  C   UNL     1       9.123  10.836  18.244  0.00  0.00    +0.000 A 
ATOM     30  C   UNL     1       9.256  10.507  19.586  0.00  0.00    +0.000 A 
ATOM     31  C   UNL     1       9.658  11.481  20.492  0.00  0.00    +0.000 A 
ATOM     32  C   UNL     1       9.987  12.764  20.040  0.00  0.00    +0.000 A 
ENDBRANCH  26  27
ENDBRANCH   3  21
TORSDOF 3
ENDMDL
MODEL 5
REMARK VINA RESULT:      -7.5      2.326      8.778
REMARK  Name = 
REMARK  3 active torsions:
REMARK  status: ('A' for Active; 'I' for Inactive)
REMARK    1  A    between atoms: N_3  and  C_4
REMARK    2  A    between atoms: C_9  and  C_10
REMARK    3  A    between atoms: N_16  and  C_17
REMARK                            x       y       z     vdW  Elec       q    Type
REMARK                         _______ _______ _______ _____ _____    ______ ____
ROOT
ATOM      1  O   UNL     1       1.887   9.405  22.992  0.00  0.00    +0.000 OA
ATOM      2  C   UNL     1       1.374   8.989  21.961  0.00  0.00    +0.000 C 
ATOM      3  N   UNL     1       0.403   9.629  21.236  0.00  0.00    +0.000 N 
ATOM      4  N   UNL     1       1.804   7.795  21.437  0.00  0.00    +0.000 N 
ATOM      5  H   UNL     1      -0.230   8.950  20.859  0.00  0.00    +0.000 HD
ATOM      6  H   UNL     1       2.478   7.351  22.052  0.00  0.00    +0.000 HD
ENDROOT
BRANCH   4   7
ATOM      7  C   UNL     1       1.464   7.118  20.172  0.00  0.00    +0.000 C 
ATOM      8  C   UNL     1       1.384   5.580  20.345  0.00  0.00    +0.000 C 
ATOM      9  C   UNL     1       2.765   4.885  20.432  0.00  0.00    +0.000 C 
ATOM     10  N   UNL     1       3.694   5.380  19.393  0.00  0.00    +0.000 N 
ATOM     11  C   UNL     1       4.070   4.507  18.387  0.00  0.00    +0.000 C 
ATOM     12  O   UNL     1       3.605   3.356  18.408  0.00  0.00    +0.000 OA
ATOM     13  N   UNL     1       4.927   4.849  17.359  0.00  0.00    +0.000 N 
ATOM     14  C   UNL     1       5.778   6.017  17.094  0.00  0.00    +0.000 C 
ATOM     15  C   UNL     1       5.483   6.552  15.691  0.00  0.00    +0.000 C 
ATOM     16  O   UNL     1       5.844   5.563  14.716  0.00  0.00    +0.000 OA
ATOM     17  C   UNL     1       5.096   4.352  14.918  0.00  0.00    +0.000 C 
ATOM     18  C   UNL     1       5.226   3.808  16.353  0.00  0.00    +0.000 C 
ATOM     19  C   UNL     1       3.806   6.824  19.460  0.00  0.00    +0.000 C 
ATOM     20  C   UNL     1       2.471   7.423  19.062  0.00  0.00    +0.000 C 
ENDBRANCH   4   7
BRANCH   3  21
ATOM     21  C   UNL     1      -0.222  10.800  21.721  0.00  0.00    +0.000 A 
ATOM     22  C   UNL     1      -1.241  10.602  22.670  0.00  0.00    +0.000 A 
ATOM     23  C   UNL     1      -1.861  11.687  23.286  0.00  0.00    +0.000 A 
ATOM     24  C   UNL     1      -1.466  12.977  22.957  0.00  0.00    +0.000 A 
ATOM     25  C   UNL     1      -0.448  13.178  22.018  0.00  0.00    +0.000 A 
ATOM     26  C   UNL     1       0.209  12.104  21.370  0.00  0.00    +0.000 A 
BRANCH  26  27
ATOM     27  C   UNL     1       1.204  12.403  20.299  0.00  0.00    +0.000 A 
ATOM     28  C   UNL     1       1.301  11.666  19.106  0.00  0.00    +0.000 A 
ATOM     29  C   UNL     1       2.147  12.056  18.063  0.00  0.00    +0.000 A 
ATOM     30  C   UNL     1       2.994  13.144  18.223  0.00  0.00    +0.000 A 
ATOM     31  C   UNL     1       2.994  13.839  19.426  0.00  0.00    +0.000 A 
ATOM     32  C   UNL     1       2.097  13.484  20.440  0.00  0.00    +0.000 A 
ENDBRANCH  26  27
ENDBRANCH   3  21
TORSDOF 3
ENDMDL
MODEL 6
REMARK VINA RESULT:      -7.5      1.627      1.836
REMARK  Name = 
REMARK  3 active torsions:
REMARK  status: ('A' for Active; 'I' for Inactive)
REMARK    1  A    between atoms: N_3  and  C_4
REMARK    2  A    between atoms: C_9  and  C_10
REMARK    3  A    between atoms: N_16  and  C_17
REMARK                            x       y       z     vdW  Elec       q    Type
REMARK                         _______ _______ _______ _____ _____    ______ ____
ROOT
ATOM      1  O   UNL     1       1.578   5.242  17.642  0.00  0.00    +0.000 OA
ATOM      2  C   UNL     1       2.090   6.082  18.372  0.00  0.00    +0.000 C 
ATOM      3  N   UNL     1       2.964   5.827  19.395  0.00  0.00    +0.000 N 
ATOM      4  N   UNL     1       1.812   7.410  18.157  0.00  0.00    +0.000 N 
ATOM      5  H   UNL     1       2.789   6.466  20.146  0.00  0.00    +0.000 HD
ATOM      6  H   UNL     1       1.117   7.520  17.425  0.00  0.00    +0.000 HD
ENDROOT
BRANCH   4   7
ATOM      7  C   UNL     1       2.363   8.624  18.784  0.00  0.00    +0.000 C 
ATOM      8  C   UNL     1       2.106   8.651  20.312  0.00  0.00    +0.000 C 
ATOM      9  C   UNL     1       0.653   9.021  20.698  0.00  0.00    +0.000 C 
ATOM     10  N   UNL     1       0.162  10.186  19.930  0.00  0.00    +0.000 N 
ATOM     11  C   UNL     1      -0.071  11.366  20.616  0.00  0.00    +0.000 C 
ATOM     12  O   UNL     1       0.149  11.385  21.838  0.00  0.00    +0.000 OA
ATOM     13  N   UNL     1      -0.527  12.523  20.014  0.00  0.00    +0.000 N 
ATOM     14  C   UNL     1      -1.038  12.834  18.671  0.00  0.00    +0.000 C 
ATOM     15  C   UNL     1      -0.267  14.025  18.098  0.00  0.00    +0.000 C 
ATOM     16  O   UNL     1      -0.515  15.188  18.902  0.00  0.00    +0.000 OA
ATOM     17  C   UNL     1      -0.091  14.969  20.258  0.00  0.00    +0.000 C 
ATOM     18  C   UNL     1      -0.717  13.706  20.878  0.00  0.00    +0.000 C 
ATOM     19  C   UNL     1       0.303   9.951  18.507  0.00  0.00    +0.000 C 
ATOM     20  C   UNL     1       1.782   9.904  18.179  0.00  0.00    +0.000 C 
ENDBRANCH   4   7
BRANCH   3  21
ATOM     21  C   UNL     1       3.242   4.504  19.810  0.00  0.00    +0.000 A 
ATOM     22  C   UNL     1       2.481   4.031  20.894  0.00  0.00    +0.000 A 
ATOM     23  C   UNL     1       2.603   2.712  21.327  0.00  0.00    +0.000 A 
ATOM     24  C   UNL     1       3.485   1.859  20.679  0.00  0.00    +0.000 A 
ATOM     25  C   UNL     1       4.239   2.325  19.595  0.00  0.00    +0.000 A 
ATOM     26  C   UNL     1       4.145   3.656  19.123  0.00  0.00    +0.000 A 
BRANCH  26  27
ATOM     27  C   UNL     1       5.064   4.106  18.036  0.00  0.00    +0.000 A 
ATOM     28  C   UNL     1       6.339   4.646  18.277  0.00  0.00    +0.000 A 
ATOM     29  C   UNL     1       7.230   4.927  17.237  0.00  0.00    +0.000 A 
ATOM     30  C   UNL     1       6.833   4.767  15.916  0.00  0.00    +0.000 A 
ATOM     31  C   UNL     1       5.546   4.325  15.639  0.00  0.00    +0.000 A 
ATOM     32  C   UNL     1       4.682   3.982  16.686  0.00  0.00    +0.000 A 
ENDBRANCH  26  27
ENDBRANCH   3  21
TORSDOF 3
ENDMDL
MODEL 7
REMARK VINA RESULT:      -7.3      1.406      1.594
REMARK  Name = 
REMARK  3 active torsions:
REMARK  status: ('A' for Active; 'I' for Inactive)
REMARK    1  A    between atoms: N_3  and  C_4
REMARK    2  A    between atoms: C_9  and  C_10
REMARK    3  A    between atoms: N_16  and  C_17
REMARK                            x       y       z     vdW  Elec       q    Type
REMARK                         _______ _______ _______ _____ _____    ______ ____
ROOT
ATOM      1  O   UNL     1       0.539   4.942  20.304  0.00  0.00    +0.000 OA
ATOM      2  C   UNL     1       1.335   5.842  20.540  0.00  0.00    +0.000 C 
ATOM      3  N   UNL     1       2.700   5.719  20.556  0.00  0.00    +0.000 N 
ATOM      4  N   UNL     1       0.859   7.107  20.784  0.00  0.00    +0.000 N 
ATOM      5  H   UNL     1       3.076   6.303  21.278  0.00  0.00    +0.000 HD
ATOM      6  H   UNL     1      -0.155   7.113  20.813  0.00  0.00    +0.000 HD
ENDROOT
BRANCH   4   7
ATOM      7  C   UNL     1       1.569   8.384  20.974  0.00  0.00    +0.000 C 
ATOM      8  C   UNL     1       1.325   8.974  22.386  0.00  0.00    +0.000 C 
ATOM      9  C   UNL     1      -0.065   9.635  22.559  0.00  0.00    +0.000 C 
ATOM     10  N   UNL     1      -0.401  10.511  21.416  0.00  0.00    +0.000 N 
ATOM     11  C   UNL     1      -0.473  11.875  21.641  0.00  0.00    +0.000 C 
ATOM     12  O   UNL     1      -0.247  12.291  22.788  0.00  0.00    +0.000 OA
ATOM     13  N   UNL     1      -0.774  12.797  20.656  0.00  0.00    +0.000 N 
ATOM     14  C   UNL     1      -1.245  12.683  19.269  0.00  0.00    +0.000 C 
ATOM     15  C   UNL     1      -0.326  13.492  18.352  0.00  0.00    +0.000 C 
ATOM     16  O   UNL     1      -0.415  14.884  18.693  0.00  0.00    +0.000 OA
ATOM     17  C   UNL     1      -0.017  15.100  20.058  0.00  0.00    +0.000 C 
ATOM     18  C   UNL     1      -0.802  14.222  21.049  0.00  0.00    +0.000 C 
ATOM     19  C   UNL     1      -0.298   9.779  20.169  0.00  0.00    +0.000 C 
ATOM     20  C   UNL     1       1.160   9.435  19.940  0.00  0.00    +0.000 C 
ENDBRANCH   4   7
BRANCH   3  21
ATOM     21  C   UNL     1       3.323   4.454  20.448  0.00  0.00    +0.000 A 
ATOM     22  C   UNL     1       2.820   3.449  21.294  0.00  0.00    +0.000 A 
ATOM     23  C   UNL     1       3.293   2.142  21.206  0.00  0.00    +0.000 A 
ATOM     24  C   UNL     1       4.273   1.831  20.273  0.00  0.00    +0.000 A 
ATOM     25  C   UNL     1       4.772   2.827  19.426  0.00  0.00    +0.000 A 
ATOM     26  C   UNL     1       4.318   4.167  19.481  0.00  0.00    +0.000 A 
BRANCH  26  27
ATOM     27  C   UNL     1       4.980   5.193  18.622  0.00  0.00    +0.000 A 
ATOM     28  C   UNL     1       6.295   5.642  18.829  0.00  0.00    +0.000 A 
ATOM     29  C   UNL     1       6.935   6.497  17.926  0.00  0.00    +0.000 A 
ATOM     30  C   UNL     1       6.240   7.006  16.837  0.00  0.00    +0.000 A 
ATOM     31  C   UNL     1       4.908   6.659  16.653  0.00  0.00    +0.000 A 
ATOM     32  C   UNL     1       4.295   5.750  17.524  0.00  0.00    +0.000 A 
ENDBRANCH  26  27
ENDBRANCH   3  21
TORSDOF 3
ENDMDL
MODEL 8
REMARK VINA RESULT:      -7.3      2.392      9.102
REMARK  Name = 
REMARK  3 active torsions:
REMARK  status: ('A' for Active; 'I' for Inactive)
REMARK    1  A    between atoms: N_3  and  C_4
REMARK    2  A    between atoms: C_9  and  C_10
REMARK    3  A    between atoms: N_16  and  C_17
REMARK                            x       y       z     vdW  Elec       q    Type
REMARK                         _______ _______ _______ _____ _____    ______ ____
ROOT
ATOM      1  O   UNL     1       1.629   9.362  22.672  0.00  0.00    +0.000 OA
ATOM      2  C   UNL     1       1.156   8.821  21.680  0.00  0.00    +0.000 C 
ATOM      3  N   UNL     1       0.107   9.293  20.935  0.00  0.00    +0.000 N 
ATOM      4  N   UNL     1       1.719   7.654  21.226  0.00  0.00    +0.000 N 
ATOM      5  H   UNL     1      -0.444   8.520  20.616  0.00  0.00    +0.000 HD
ATOM      6  H   UNL     1       2.449   7.335  21.855  0.00  0.00    +0.000 HD
ENDROOT
BRANCH   4   7
ATOM      7  C   UNL     1       1.446   6.860  20.015  0.00  0.00    +0.000 C 
ATOM      8  C   UNL     1       1.561   5.338  20.286  0.00  0.00    +0.000 C 
ATOM      9  C   UNL     1       3.018   4.826  20.385  0.00  0.00    +0.000 C 
ATOM     10  N   UNL     1       3.863   5.363  19.295  0.00  0.00    +0.000 N 
ATOM     11  C   UNL     1       4.330   4.478  18.338  0.00  0.00    +0.000 C 
ATOM     12  O   UNL     1       4.012   3.283  18.442  0.00  0.00    +0.000 OA
ATOM     13  N   UNL     1       5.123   4.855  17.271  0.00  0.00    +0.000 N 
ATOM     14  C   UNL     1       5.818   6.100  16.913  0.00  0.00    +0.000 C 
ATOM     15  C   UNL     1       5.437   6.501  15.487  0.00  0.00    +0.000 C 
ATOM     16  O   UNL     1       5.904   5.503  14.568  0.00  0.00    +0.000 OA
ATOM     17  C   UNL     1       5.315   4.225  14.863  0.00  0.00    +0.000 C 
ATOM     18  C   UNL     1       5.533   3.796  16.325  0.00  0.00    +0.000 C 
ATOM     19  C   UNL     1       3.796   6.811  19.268  0.00  0.00    +0.000 C 
ATOM     20  C   UNL     1       2.391   7.213  18.864  0.00  0.00    +0.000 C 
ENDBRANCH   4   7
BRANCH   3  21
ATOM     21  C   UNL     1      -0.647  10.412  21.356  0.00  0.00    +0.000 A 
ATOM     22  C   UNL     1      -0.542  10.743  22.719  0.00  0.00    +0.000 A 
ATOM     23  C   UNL     1      -1.166  11.882  23.225  0.00  0.00    +0.000 A 
ATOM     24  C   UNL     1      -1.899  12.695  22.372  0.00  0.00    +0.000 A 
ATOM     25  C   UNL     1      -2.001  12.372  21.014  0.00  0.00    +0.000 A 
ATOM     26  C   UNL     1      -1.382  11.226  20.459  0.00  0.00    +0.000 A 
BRANCH  26  27
ATOM     27  C   UNL     1      -1.631  10.889  19.027  0.00  0.00    +0.000 A 
ATOM     28  C   UNL     1      -0.790  10.054  18.271  0.00  0.00    +0.000 A 
ATOM     29  C   UNL     1      -1.125   9.644  16.977  0.00  0.00    +0.000 A 
ATOM     30  C   UNL     1      -2.268  10.138  16.363  0.00  0.00    +0.000 A 
ATOM     31  C   UNL     1      -3.074  11.040  17.045  0.00  0.00    +0.000 A 
ATOM     32  C   UNL     1      -2.769  11.394  18.365  0.00  0.00    +0.000 A 
ENDBRANCH  26  27
ENDBRANCH   3  21
TORSDOF 3
ENDMDL
MODEL 9
REMARK VINA RESULT:      -7.2      5.238      9.557
REMARK  Name = 
REMARK  3 active torsions:
REMARK  status: ('A' for Active; 'I' for Inactive)
REMARK    1  A    between atoms: N_3  and  C_4
REMARK    2  A    between atoms: C_9  and  C_10
REMARK    3  A    between atoms: N_16  and  C_17
REMARK                            x       y       z     vdW  Elec       q    Type
REMARK                         _______ _______ _______ _____ _____    ______ ____
ROOT
ATOM      1  O   UNL     1      -1.013  14.345  20.196  0.00  0.00    +0.000 OA
ATOM      2  C   UNL     1      -0.068  14.465  20.965  0.00  0.00    +0.000 C 
ATOM      3  N   UNL     1      -0.047  14.065  22.276  0.00  0.00    +0.000 N 
ATOM      4  N   UNL     1       1.102  15.016  20.503  0.00  0.00    +0.000 N 
ATOM      5  H   UNL     1       0.486  14.722  22.813  0.00  0.00    +0.000 HD
ATOM      6  H   UNL     1       0.996  15.341  19.547  0.00  0.00    +0.000 HD
ENDROOT
BRANCH   4   7
ATOM      7  C   UNL     1       2.416  15.174  21.151  0.00  0.00    +0.000 C 
ATOM      8  C   UNL     1       2.793  16.665  21.335  0.00  0.00    +0.000 C 
ATOM      9  C   UNL     1       3.268  17.359  20.034  0.00  0.00    +0.000 C 
ATOM     10  N   UNL     1       4.238  16.524  19.291  0.00  0.00    +0.000 N 
ATOM     11  C   UNL     1       5.546  16.968  19.206  0.00  0.00    +0.000 C 
ATOM     12  O   UNL     1       5.837  18.040  19.761  0.00  0.00    +0.000 OA
ATOM     13  N   UNL     1       6.546  16.279  18.545  0.00  0.00    +0.000 N 
ATOM     14  C   UNL     1       6.554  15.105  17.662  0.00  0.00    +0.000 C 
ATOM     15  C   UNL     1       7.570  14.086  18.182  0.00  0.00    +0.000 C 
ATOM     16  O   UNL     1       8.889  14.648  18.117  0.00  0.00    +0.000 OA
ATOM     17  C   UNL     1       8.975  15.840  18.916  0.00  0.00    +0.000 C 
ATOM     18  C   UNL     1       7.897  16.877  18.551  0.00  0.00    +0.000 C 
ATOM     19  C   UNL     1       3.684  15.209  19.036  0.00  0.00    +0.000 C 
ATOM     20  C   UNL     1       3.536  14.491  20.363  0.00  0.00    +0.000 C 
ENDBRANCH   4   7
BRANCH   3  21
ATOM     21  C   UNL     1      -1.216  13.599  22.919  0.00  0.00    +0.000 A 
ATOM     22  C   UNL     1      -1.977  14.575  23.588  0.00  0.00    +0.000 A 
ATOM     23  C   UNL     1      -3.196  14.247  24.176  0.00  0.00    +0.000 A 
ATOM     24  C   UNL     1      -3.663  12.942  24.100  0.00  0.00    +0.000 A 
ATOM     25  C   UNL     1      -2.912  11.970  23.430  0.00  0.00    +0.000 A 
ATOM     26  C   UNL     1      -1.669  12.260  22.818  0.00  0.00    +0.000 A 
BRANCH  26  27
ATOM     27  C   UNL     1      -0.875  11.146  22.221  0.00  0.00    +0.000 A 
ATOM     28  C   UNL     1      -0.657  11.006  20.840  0.00  0.00    +0.000 A 
ATOM     29  C   UNL     1       0.206  10.034  20.324  0.00  0.00    +0.000 A 
ATOM     30  C   UNL     1       0.801   9.109  21.170  0.00  0.00    +0.000 A 
ATOM     31  C   UNL     1       0.533   9.158  22.532  0.00  0.00    +0.000 A 
ATOM     32  C   UNL     1      -0.278  10.175  23.050  0.00  0.00    +0.000 A 
ENDBRANCH  26  27
ENDBRANCH   3  21
TORSDOF 3
ENDMDL
