MODEL 1
REMARK VINA RESULT:      -6.8      0.000      0.000
REMARK  Name = 
REMARK  6 active torsions:
REMARK  status: ('A' for Active; 'I' for Inactive)
REMARK    1  A    between atoms: C_1  and  C_2
REMARK    2  A    between atoms: C_2  and  C_3
REMARK    3  A    between atoms: N_5  and  C_6
REMARK    4  A    between atoms: C_10  and  C_11
REMARK    5  A    between atoms: C_11  and  O_13
REMARK    6  A    between atoms: C_14  and  O_15
REMARK                            x       y       z     vdW  Elec       q    Type
REMARK                         _______ _______ _______ _____ _____    ______ ____
ROOT
ATOM      1  C   UNL     1       3.747   5.053  18.595  0.00  0.00    +0.000 A 
ATOM      2  C   UNL     1       3.413   6.248  17.951  0.00  0.00    +0.000 A 
ATOM      3  C   UNL     1       4.378   6.943  17.219  0.00  0.00    +0.000 A 
ATOM      4  C   UNL     1       5.671   6.432  17.109  0.00  0.00    +0.000 A 
ATOM      5  C   UNL     1       6.013   5.232  17.745  0.00  0.00    +0.000 A 
ATOM      6  C   UNL     1       5.047   4.549  18.496  0.00  0.00    +0.000 A 
ENDROOT
BRANCH   1   9
ATOM      7  C   UNL     1       1.817   3.553  18.734  0.00  0.00    +0.000 C 
ATOM      8  O   UNL     1       1.710   3.385  17.520  0.00  0.00    +0.000 OA
ATOM      9  N   UNL     1       2.789   4.330  19.339  0.00  0.00    +0.000 N 
ATOM     10  H   UNL     1       3.088   4.043  20.267  0.00  0.00    +0.000 HD
BRANCH   7  12
ATOM     11  C   UNL     1       1.403   2.984  21.146  0.00  0.00    +0.000 C 
ATOM     12  C   UNL     1       0.869   2.909  19.727  0.00  0.00    +0.000 C 
ENDBRANCH   7  12
ENDBRANCH   1   9
BRANCH   5  13
ATOM     13  C   UNL     1       7.381   4.717  17.536  0.00  0.00    +0.000 C 
ATOM     14  O   UNL     1       7.834   4.447  16.438  0.00  0.00    +0.000 OA
BRANCH  13  15
ATOM     15  O   UNL     1       8.079   4.551  18.683  0.00  0.00    +0.000 OA
ATOM     16  H   UNL     1       9.023   4.321  18.547  0.00  0.00    +0.000 HD
ENDBRANCH  13  15
ENDBRANCH   5  13
BRANCH   6  17
ATOM     17  O   UNL     1       5.313   3.337  19.091  0.00  0.00    +0.000 OA
ATOM     18  H   UNL     1       4.949   2.639  18.507  0.00  0.00    +0.000 HD
ENDBRANCH   6  17
TORSDOF 5
ENDMDL
MODEL 2
REMARK VINA RESULT:      -6.6      1.524      1.668
REMARK  Name = 
REMARK  6 active torsions:
REMARK  status: ('A' for Active; 'I' for Inactive)
REMARK    1  A    between atoms: C_1  and  C_2
REMARK    2  A    between atoms: C_2  and  C_3
REMARK    3  A    between atoms: N_5  and  C_6
REMARK    4  A    between atoms: C_10  and  C_11
REMARK    5  A    between atoms: C_11  and  O_13
REMARK    6  A    between atoms: C_14  and  O_15
REMARK                            x       y       z     vdW  Elec       q    Type
REMARK                         _______ _______ _______ _____ _____    ______ ____
ROOT
ATOM      1  C   UNL     1       3.741   4.869  17.856  0.00  0.00    +0.000 A 
ATOM      2  C   UNL     1       3.518   6.249  17.873  0.00  0.00    +0.000 A 
ATOM      3  C   UNL     1       4.306   7.095  17.089  0.00  0.00    +0.000 A 
ATOM      4  C   UNL     1       5.301   6.562  16.271  0.00  0.00    +0.000 A 
ATOM      5  C   UNL     1       5.527   5.179  16.243  0.00  0.00    +0.000 A 
ATOM      6  C   UNL     1       4.748   4.337  17.046  0.00  0.00    +0.000 A 
ENDROOT
BRANCH   1   9
ATOM      7  C   UNL     1       1.661   3.653  18.290  0.00  0.00    +0.000 C 
ATOM      8  O   UNL     1       1.084   4.039  17.275  0.00  0.00    +0.000 OA
ATOM      9  N   UNL     1       2.958   3.991  18.637  0.00  0.00    +0.000 N 
ATOM     10  H   UNL     1       3.480   3.302  19.170  0.00  0.00    +0.000 HD
BRANCH   7  12
ATOM     11  C   UNL     1       1.137   3.264  20.716  0.00  0.00    +0.000 C 
ATOM     12  C   UNL     1       0.997   2.737  19.299  0.00  0.00    +0.000 C 
ENDBRANCH   7  12
ENDBRANCH   1   9
BRANCH   5  13
ATOM     13  C   UNL     1       6.554   4.678  15.307  0.00  0.00    +0.000 C 
ATOM     14  O   UNL     1       7.592   5.269  15.074  0.00  0.00    +0.000 OA
BRANCH  13  15
ATOM     15  O   UNL     1       6.221   3.508  14.715  0.00  0.00    +0.000 OA
ATOM     16  H   UNL     1       5.316   3.495  14.336  0.00  0.00    +0.000 HD
ENDBRANCH  13  15
ENDBRANCH   5  13
BRANCH   6  17
ATOM     17  O   UNL     1       4.888   2.968  17.011  0.00  0.00    +0.000 OA
ATOM     18  H   UNL     1       5.507   2.719  17.729  0.00  0.00    +0.000 HD
ENDBRANCH   6  17
TORSDOF 5
ENDMDL
MODEL 3
REMARK VINA RESULT:      -6.5      1.156      1.420
REMARK  Name = 
REMARK  6 active torsions:
REMARK  status: ('A' for Active; 'I' for Inactive)
REMARK    1  A    between atoms: C_1  and  C_2
REMARK    2  A    between atoms: C_2  and  C_3
REMARK    3  A    between atoms: N_5  and  C_6
REMARK    4  A    between atoms: C_10  and  C_11
REMARK    5  A    between atoms: C_11  and  O_13
REMARK    6  A    between atoms: C_14  and  O_15
REMARK                            x       y       z     vdW  Elec       q    Type
REMARK                         _______ _______ _______ _____ _____    ______ ____
ROOT
ATOM      1  C   UNL     1       3.733   4.912  18.397  0.00  0.00    +0.000 A 
ATOM      2  C   UNL     1       3.424   6.090  17.711  0.00  0.00    +0.000 A 
ATOM      3  C   UNL     1       4.439   6.841  17.114  0.00  0.00    +0.000 A 
ATOM      4  C   UNL     1       5.761   6.404  17.182  0.00  0.00    +0.000 A 
ATOM      5  C   UNL     1       6.080   5.221  17.862  0.00  0.00    +0.000 A 
ATOM      6  C   UNL     1       5.061   4.483  18.477  0.00  0.00    +0.000 A 
ENDROOT
BRANCH   1   9
ATOM      7  C   UNL     1       1.984   4.598  20.080  0.00  0.00    +0.000 C 
ATOM      8  O   UNL     1       2.094   5.718  20.576  0.00  0.00    +0.000 OA
ATOM      9  N   UNL     1       2.726   4.134  19.008  0.00  0.00    +0.000 N 
ATOM     10  H   UNL     1       2.274   3.457  18.401  0.00  0.00    +0.000 HD
BRANCH   7  12
ATOM     11  C   UNL     1       1.633   2.641  21.617  0.00  0.00    +0.000 C 
ATOM     12  C   UNL     1       0.995   3.575  20.604  0.00  0.00    +0.000 C 
ENDBRANCH   7  12
ENDBRANCH   1   9
BRANCH   5  13
ATOM     13  C   UNL     1       7.491   4.784  17.841  0.00  0.00    +0.000 C 
ATOM     14  O   UNL     1       8.184   4.714  18.840  0.00  0.00    +0.000 OA
BRANCH  13  15
ATOM     15  O   UNL     1       7.948   4.489  16.603  0.00  0.00    +0.000 OA
ATOM     16  H   UNL     1       7.459   3.764  16.158  0.00  0.00    +0.000 HD
ENDBRANCH  13  15
ENDBRANCH   5  13
BRANCH   6  17
ATOM     17  O   UNL     1       5.311   3.284  19.106  0.00  0.00    +0.000 OA
ATOM     18  H   UNL     1       5.193   3.428  20.068  0.00  0.00    +0.000 HD
ENDBRANCH   6  17
TORSDOF 5
ENDMDL
MODEL 4
REMARK VINA RESULT:      -6.5      3.025      4.800
REMARK  Name = 
REMARK  6 active torsions:
REMARK  status: ('A' for Active; 'I' for Inactive)
REMARK    1  A    between atoms: C_1  and  C_2
REMARK    2  A    between atoms: C_2  and  C_3
REMARK    3  A    between atoms: N_5  and  C_6
REMARK    4  A    between atoms: C_10  and  C_11
REMARK    5  A    between atoms: C_11  and  O_13
REMARK    6  A    between atoms: C_14  and  O_15
REMARK                            x       y       z     vdW  Elec       q    Type
REMARK                         _______ _______ _______ _____ _____    ______ ____
ROOT
ATOM      1  C   UNL     1       5.737   4.169  16.638  0.00  0.00    +0.000 A 
ATOM      2  C   UNL     1       4.429   4.324  17.107  0.00  0.00    +0.000 A 
ATOM      3  C   UNL     1       4.198   4.886  18.365  0.00  0.00    +0.000 A 
ATOM      4  C   UNL     1       5.271   5.315  19.144  0.00  0.00    +0.000 A 
ATOM      5  C   UNL     1       6.585   5.170  18.680  0.00  0.00    +0.000 A 
ATOM      6  C   UNL     1       6.813   4.586  17.427  0.00  0.00    +0.000 A 
ENDROOT
BRANCH   1   9
ATOM      7  C   UNL     1       6.135   4.382  14.232  0.00  0.00    +0.000 C 
ATOM      8  O   UNL     1       6.083   5.611  14.212  0.00  0.00    +0.000 OA
ATOM      9  N   UNL     1       5.999   3.606  15.370  0.00  0.00    +0.000 N 
ATOM     10  H   UNL     1       6.504   2.725  15.383  0.00  0.00    +0.000 HD
BRANCH   7  12
ATOM     11  C   UNL     1       5.115   3.493  12.115  0.00  0.00    +0.000 C 
ATOM     12  C   UNL     1       6.363   3.561  12.978  0.00  0.00    +0.000 C 
ENDBRANCH   7  12
ENDBRANCH   1   9
BRANCH   5  13
ATOM     13  C   UNL     1       7.669   5.703  19.529  0.00  0.00    +0.000 C 
ATOM     14  O   UNL     1       7.935   5.258  20.631  0.00  0.00    +0.000 OA
BRANCH  13  15
ATOM     15  O   UNL     1       8.327   6.748  18.976  0.00  0.00    +0.000 OA
ATOM     16  H   UNL     1       7.767   7.540  18.831  0.00  0.00    +0.000 HD
ENDBRANCH  13  15
ENDBRANCH   5  13
BRANCH   6  17
ATOM     17  O   UNL     1       8.079   4.475  16.897  0.00  0.00    +0.000 OA
ATOM     18  H   UNL     1       8.650   5.118  17.367  0.00  0.00    +0.000 HD
ENDBRANCH   6  17
TORSDOF 5
ENDMDL
MODEL 5
REMARK VINA RESULT:      -6.4      2.010      5.032
REMARK  Name = 
REMARK  6 active torsions:
REMARK  status: ('A' for Active; 'I' for Inactive)
REMARK    1  A    between atoms: C_1  and  C_2
REMARK    2  A    between atoms: C_2  and  C_3
REMARK    3  A    between atoms: N_5  and  C_6
REMARK    4  A    between atoms: C_10  and  C_11
REMARK    5  A    between atoms: C_11  and  O_13
REMARK    6  A    between atoms: C_14  and  O_15
REMARK                            x       y       z     vdW  Elec       q    Type
REMARK                         _______ _______ _______ _____ _____    ______ ____
ROOT
ATOM      1  C   UNL     1       4.458   5.368  18.358  0.00  0.00    +0.000 A 
ATOM      2  C   UNL     1       3.324   6.143  18.099  0.00  0.00    +0.000 A 
ATOM      3  C   UNL     1       2.081   5.530  17.923  0.00  0.00    +0.000 A 
ATOM      4  C   UNL     1       1.967   4.145  18.029  0.00  0.00    +0.000 A 
ATOM      5  C   UNL     1       3.097   3.360  18.295  0.00  0.00    +0.000 A 
ATOM      6  C   UNL     1       4.344   3.978  18.450  0.00  0.00    +0.000 A 
ENDROOT
BRANCH   1   9
ATOM      7  C   UNL     1       6.446   6.504  17.491  0.00  0.00    +0.000 C 
ATOM      8  O   UNL     1       6.053   6.557  16.326  0.00  0.00    +0.000 OA
ATOM      9  N   UNL     1       5.726   5.963  18.542  0.00  0.00    +0.000 N 
ATOM     10  H   UNL     1       5.885   6.368  19.459  0.00  0.00    +0.000 HD
BRANCH   7  12
ATOM     11  C   UNL     1       7.889   8.547  17.730  0.00  0.00    +0.000 C 
ATOM     12  C   UNL     1       7.798   7.042  17.914  0.00  0.00    +0.000 C 
ENDBRANCH   7  12
ENDBRANCH   1   9
BRANCH   5  13
ATOM     13  C   UNL     1       2.892   1.907  18.456  0.00  0.00    +0.000 C 
ATOM     14  O   UNL     1       3.799   1.095  18.414  0.00  0.00    +0.000 OA
BRANCH  13  15
ATOM     15  O   UNL     1       1.597   1.558  18.633  0.00  0.00    +0.000 OA
ATOM     16  H   UNL     1       0.961   2.286  18.467  0.00  0.00    +0.000 HD
ENDBRANCH  13  15
ENDBRANCH   5  13
BRANCH   6  17
ATOM     17  O   UNL     1       5.475   3.261  18.771  0.00  0.00    +0.000 OA
ATOM     18  H   UNL     1       5.856   2.925  17.933  0.00  0.00    +0.000 HD
ENDBRANCH   6  17
TORSDOF 5
ENDMDL
MODEL 6
REMARK VINA RESULT:      -6.4      1.849      2.251
REMARK  Name = 
REMARK  6 active torsions:
REMARK  status: ('A' for Active; 'I' for Inactive)
REMARK    1  A    between atoms: C_1  and  C_2
REMARK    2  A    between atoms: C_2  and  C_3
REMARK    3  A    between atoms: N_5  and  C_6
REMARK    4  A    between atoms: C_10  and  C_11
REMARK    5  A    between atoms: C_11  and  O_13
REMARK    6  A    between atoms: C_14  and  O_15
REMARK                            x       y       z     vdW  Elec       q    Type
REMARK                         _______ _______ _______ _____ _____    ______ ____
ROOT
ATOM      1  C   UNL     1       4.556   4.308  17.623  0.00  0.00    +0.000 A 
ATOM      2  C   UNL     1       5.092   3.956  16.380  0.00  0.00    +0.000 A 
ATOM      3  C   UNL     1       6.429   4.231  16.090  0.00  0.00    +0.000 A 
ATOM      4  C   UNL     1       7.240   4.837  17.049  0.00  0.00    +0.000 A 
ATOM      5  C   UNL     1       6.715   5.188  18.299  0.00  0.00    +0.000 A 
ATOM      6  C   UNL     1       5.367   4.928  18.578  0.00  0.00    +0.000 A 
ENDROOT
BRANCH   1   9
ATOM      7  C   UNL     1       2.772   2.776  18.301  0.00  0.00    +0.000 C 
ATOM      8  O   UNL     1       3.499   1.790  18.412  0.00  0.00    +0.000 OA
ATOM      9  N   UNL     1       3.208   4.040  17.943  0.00  0.00    +0.000 N 
ATOM     10  H   UNL     1       2.688   4.825  18.324  0.00  0.00    +0.000 HD
BRANCH   7  12
ATOM     11  C   UNL     1       0.903   3.343  19.881  0.00  0.00    +0.000 C 
ATOM     12  C   UNL     1       1.278   2.712  18.552  0.00  0.00    +0.000 C 
ENDBRANCH   7  12
ENDBRANCH   1   9
BRANCH   5  13
ATOM     13  C   UNL     1       7.645   5.768  19.289  0.00  0.00    +0.000 C 
ATOM     14  O   UNL     1       7.799   5.314  20.408  0.00  0.00    +0.000 OA
BRANCH  13  15
ATOM     15  O   UNL     1       8.295   6.867  18.841  0.00  0.00    +0.000 OA
ATOM     16  H   UNL     1       8.590   7.474  19.553  0.00  0.00    +0.000 HD
ENDBRANCH  13  15
ENDBRANCH   5  13
BRANCH   6  17
ATOM     17  O   UNL     1       4.816   5.197  19.810  0.00  0.00    +0.000 OA
ATOM     18  H   UNL     1       5.553   5.404  20.422  0.00  0.00    +0.000 HD
ENDBRANCH   6  17
TORSDOF 5
ENDMDL
MODEL 7
REMARK VINA RESULT:      -6.4      2.284      5.277
REMARK  Name = 
REMARK  6 active torsions:
REMARK  status: ('A' for Active; 'I' for Inactive)
REMARK    1  A    between atoms: C_1  and  C_2
REMARK    2  A    between atoms: C_2  and  C_3
REMARK    3  A    between atoms: N_5  and  C_6
REMARK    4  A    between atoms: C_10  and  C_11
REMARK    5  A    between atoms: C_11  and  O_13
REMARK    6  A    between atoms: C_14  and  O_15
REMARK                            x       y       z     vdW  Elec       q    Type
REMARK                         _______ _______ _______ _____ _____    ______ ____
ROOT
ATOM      1  C   UNL     1       3.797   3.498  17.954  0.00  0.00    +0.000 A 
ATOM      2  C   UNL     1       2.608   3.965  17.385  0.00  0.00    +0.000 A 
ATOM      3  C   UNL     1       1.419   3.927  18.116  0.00  0.00    +0.000 A 
ATOM      4  C   UNL     1       1.421   3.445  19.424  0.00  0.00    +0.000 A 
ATOM      5  C   UNL     1       2.608   2.981  20.005  0.00  0.00    +0.000 A 
ATOM      6  C   UNL     1       3.794   3.001  19.260  0.00  0.00    +0.000 A 
ENDROOT
BRANCH   1   9
ATOM      7  C   UNL     1       5.812   4.656  17.184  0.00  0.00    +0.000 C 
ATOM      8  O   UNL     1       5.573   5.711  17.771  0.00  0.00    +0.000 OA
ATOM      9  N   UNL     1       5.014   3.527  17.237  0.00  0.00    +0.000 N 
ATOM     10  H   UNL     1       5.485   2.632  17.148  0.00  0.00    +0.000 HD
BRANCH   7  12
ATOM     11  C   UNL     1       6.690   4.429  14.842  0.00  0.00    +0.000 C 
ATOM     12  C   UNL     1       7.042   4.473  16.318  0.00  0.00    +0.000 C 
ENDBRANCH   7  12
ENDBRANCH   1   9
BRANCH   5  13
ATOM     13  C   UNL     1       2.550   2.543  21.414  0.00  0.00    +0.000 C 
ATOM     14  O   UNL     1       3.483   2.014  21.990  0.00  0.00    +0.000 OA
BRANCH  13  15
ATOM     15  O   UNL     1       1.351   2.765  22.001  0.00  0.00    +0.000 OA
ATOM     16  H   UNL     1       1.151   2.156  22.744  0.00  0.00    +0.000 HD
ENDBRANCH  13  15
ENDBRANCH   5  13
BRANCH   6  17
ATOM     17  O   UNL     1       4.999   2.614  19.803  0.00  0.00    +0.000 OA
ATOM     18  H   UNL     1       4.853   1.760  20.260  0.00  0.00    +0.000 HD
ENDBRANCH   6  17
TORSDOF 5
ENDMDL
MODEL 8
REMARK VINA RESULT:      -6.4      2.996      4.862
REMARK  Name = 
REMARK  6 active torsions:
REMARK  status: ('A' for Active; 'I' for Inactive)
REMARK    1  A    between atoms: C_1  and  C_2
REMARK    2  A    between atoms: C_2  and  C_3
REMARK    3  A    between atoms: N_5  and  C_6
REMARK    4  A    between atoms: C_10  and  C_11
REMARK    5  A    between atoms: C_11  and  O_13
REMARK    6  A    between atoms: C_14  and  O_15
REMARK                            x       y       z     vdW  Elec       q    Type
REMARK                         _______ _______ _______ _____ _____    ______ ____
ROOT
ATOM      1  C   UNL     1       5.640   4.100  16.688  0.00  0.00    +0.000 A 
ATOM      2  C   UNL     1       4.379   4.149  17.289  0.00  0.00    +0.000 A 
ATOM      3  C   UNL     1       4.229   4.715  18.557  0.00  0.00    +0.000 A 
ATOM      4  C   UNL     1       5.334   5.253  19.215  0.00  0.00    +0.000 A 
ATOM      5  C   UNL     1       6.600   5.215  18.618  0.00  0.00    +0.000 A 
ATOM      6  C   UNL     1       6.749   4.627  17.355  0.00  0.00    +0.000 A 
ENDROOT
BRANCH   1   9
ATOM      7  C   UNL     1       6.011   4.312  14.277  0.00  0.00    +0.000 C 
ATOM      8  O   UNL     1       6.083   5.540  14.277  0.00  0.00    +0.000 OA
ATOM      9  N   UNL     1       5.819   3.535  15.406  0.00  0.00    +0.000 N 
ATOM     10  H   UNL     1       6.232   2.607  15.395  0.00  0.00    +0.000 HD
BRANCH   7  12
ATOM     11  C   UNL     1       7.133   4.098  12.040  0.00  0.00    +0.000 C 
ATOM     12  C   UNL     1       6.131   3.494  13.007  0.00  0.00    +0.000 C 
ENDBRANCH   7  12
ENDBRANCH   1   9
BRANCH   5  13
ATOM     13  C   UNL     1       7.714   5.859  19.342  0.00  0.00    +0.000 C 
ATOM     14  O   UNL     1       8.336   6.810  18.905  0.00  0.00    +0.000 OA
BRANCH  13  15
ATOM     15  O   UNL     1       7.994   5.278  20.532  0.00  0.00    +0.000 OA
ATOM     16  H   UNL     1       7.630   4.372  20.629  0.00  0.00    +0.000 HD
ENDBRANCH  13  15
ENDBRANCH   5  13
BRANCH   6  17
ATOM     17  O   UNL     1       7.959   4.616  16.697  0.00  0.00    +0.000 OA
ATOM     18  H   UNL     1       7.989   3.801  16.153  0.00  0.00    +0.000 HD
ENDBRANCH   6  17
TORSDOF 5
ENDMDL
MODEL 9
REMARK VINA RESULT:      -6.3      1.233      1.396
REMARK  Name = 
REMARK  6 active torsions:
REMARK  status: ('A' for Active; 'I' for Inactive)
REMARK    1  A    between atoms: C_1  and  C_2
REMARK    2  A    between atoms: C_2  and  C_3
REMARK    3  A    between atoms: N_5  and  C_6
REMARK    4  A    between atoms: C_10  and  C_11
REMARK    5  A    between atoms: C_11  and  O_13
REMARK    6  A    between atoms: C_14  and  O_15
REMARK                            x       y       z     vdW  Elec       q    Type
REMARK                         _______ _______ _______ _____ _____    ______ ____
ROOT
ATOM      1  C   UNL     1       3.810   4.907  18.366  0.00  0.00    +0.000 A 
ATOM      2  C   UNL     1       3.471   6.063  17.656  0.00  0.00    +0.000 A 
ATOM      3  C   UNL     1       4.467   6.952  17.247  0.00  0.00    +0.000 A 
ATOM      4  C   UNL     1       5.805   6.675  17.525  0.00  0.00    +0.000 A 
ATOM      5  C   UNL     1       6.155   5.516  18.230  0.00  0.00    +0.000 A 
ATOM      6  C   UNL     1       5.150   4.639  18.657  0.00  0.00    +0.000 A 
ENDROOT
BRANCH   1   9
ATOM      7  C   UNL     1       2.112   4.165  19.965  0.00  0.00    +0.000 C 
ATOM      8  O   UNL     1       2.234   5.127  20.722  0.00  0.00    +0.000 OA
ATOM      9  N   UNL     1       2.823   3.991  18.791  0.00  0.00    +0.000 N 
ATOM     10  H   UNL     1       2.355   3.484  18.046  0.00  0.00    +0.000 HD
BRANCH   7  12
ATOM     11  C   UNL     1       0.715   2.331  18.967  0.00  0.00    +0.000 C 
ATOM     12  C   UNL     1       1.141   3.034  20.243  0.00  0.00    +0.000 C 
ENDBRANCH   7  12
ENDBRANCH   1   9
BRANCH   5  13
ATOM     13  C   UNL     1       7.594   5.254  18.435  0.00  0.00    +0.000 C 
ATOM     14  O   UNL     1       8.184   4.322  17.920  0.00  0.00    +0.000 OA
BRANCH  13  15
ATOM     15  O   UNL     1       8.192   6.137  19.267  0.00  0.00    +0.000 OA
ATOM     16  H   UNL     1       8.151   7.068  18.960  0.00  0.00    +0.000 HD
ENDBRANCH  13  15
ENDBRANCH   5  13
BRANCH   6  17
ATOM     17  O   UNL     1       5.444   3.457  19.300  0.00  0.00    +0.000 OA
ATOM     18  H   UNL     1       6.344   3.545  19.676  0.00  0.00    +0.000 HD
ENDBRANCH   6  17
TORSDOF 5
ENDMDL
