MODEL 1
REMARK VINA RESULT:      -7.0      0.000      0.000
REMARK  Name = 
REMARK  6 active torsions:
REMARK  status: ('A' for Active; 'I' for Inactive)
REMARK    1  A    between atoms: C_1  and  C_2
REMARK    2  A    between atoms: C_2  and  O_3
REMARK    3  A    between atoms: O_3  and  C_4
REMARK    4  A    between atoms: C_9  and  C_10
REMARK    5  A    between atoms: C_10  and  N_12
REMARK    6  A    between atoms: N_17  and  C_18
REMARK                            x       y       z     vdW  Elec       q    Type
REMARK                         _______ _______ _______ _____ _____    ______ ____
ROOT
ATOM      1  C   UNL     1       7.137   5.714  16.846  0.00  0.00    +0.000 A 
ATOM      2  N   UNL     1       7.434   5.602  15.520  0.00  0.00    +0.000 NA
ATOM      3  C   UNL     1       6.715   4.731  14.782  0.00  0.00    +0.000 A 
ATOM      4  C   UNL     1       5.717   3.934  15.303  0.00  0.00    +0.000 A 
ATOM      5  C   UNL     1       5.437   4.048  16.661  0.00  0.00    +0.000 A 
ATOM      6  C   UNL     1       6.150   4.956  17.464  0.00  0.00    +0.000 A 
ENDROOT
BRANCH   6   7
ATOM      7  C   UNL     1       5.735   5.091  18.881  0.00  0.00    +0.000 C 
ATOM      8  O   UNL     1       6.586   4.847  19.736  0.00  0.00    +0.000 OA
BRANCH   7   9
ATOM      9  N   UNL     1       4.509   5.634  19.159  0.00  0.00    +0.000 NA
ATOM     10  C   UNL     1       3.576   4.881  19.650  0.00  0.00    +0.000 A 
ATOM     11  S   UNL     1       3.609   3.094  19.825  0.00  0.00    +0.000 S 
ATOM     12  C   UNL     1       2.080   3.101  20.664  0.00  0.00    +0.000 A 
ATOM     13  C   UNL     1       1.582   4.341  20.734  0.00  0.00    +0.000 A 
ATOM     14  N   UNL     1       2.352   5.327  20.150  0.00  0.00    +0.000 N 
ATOM     15  C   UNL     1       2.030   6.739  20.183  0.00  0.00    +0.000 C 
ENDBRANCH   7   9
ENDBRANCH   6   7
BRANCH   1  16
ATOM     16  O   UNL     1       7.862   6.631  17.574  0.00  0.00    +0.000 OA
BRANCH  16  18
ATOM     17  C   UNL     1       8.321   8.917  18.113  0.00  0.00    +0.000 C 
ATOM     18  C   UNL     1       7.380   7.965  17.399  0.00  0.00    +0.000 C 
ENDBRANCH  16  18
ENDBRANCH   1  16
TORSDOF 4
ENDMDL
MODEL 2
REMARK VINA RESULT:      -6.8      1.695      2.029
REMARK  Name = 
REMARK  6 active torsions:
REMARK  status: ('A' for Active; 'I' for Inactive)
REMARK    1  A    between atoms: C_1  and  C_2
REMARK    2  A    between atoms: C_2  and  O_3
REMARK    3  A    between atoms: O_3  and  C_4
REMARK    4  A    between atoms: C_9  and  C_10
REMARK    5  A    between atoms: C_10  and  N_12
REMARK    6  A    between atoms: N_17  and  C_18
REMARK                            x       y       z     vdW  Elec       q    Type
REMARK                         _______ _______ _______ _____ _____    ______ ____
ROOT
ATOM      1  C   UNL     1       6.835   5.753  16.613  0.00  0.00    +0.000 A 
ATOM      2  N   UNL     1       7.574   5.530  15.490  0.00  0.00    +0.000 NA
ATOM      3  C   UNL     1       7.011   4.818  14.492  0.00  0.00    +0.000 A 
ATOM      4  C   UNL     1       5.740   4.286  14.560  0.00  0.00    +0.000 A 
ATOM      5  C   UNL     1       5.004   4.508  15.720  0.00  0.00    +0.000 A 
ATOM      6  C   UNL     1       5.548   5.259  16.778  0.00  0.00    +0.000 A 
ENDROOT
BRANCH   6   7
ATOM      7  C   UNL     1       4.672   5.534  17.943  0.00  0.00    +0.000 C 
ATOM      8  O   UNL     1       4.020   6.578  17.915  0.00  0.00    +0.000 OA
BRANCH   7   9
ATOM      9  N   UNL     1       4.506   4.557  18.888  0.00  0.00    +0.000 NA
ATOM     10  C   UNL     1       3.402   3.880  18.915  0.00  0.00    +0.000 A 
ATOM     11  S   UNL     1       1.908   4.209  17.973  0.00  0.00    +0.000 S 
ATOM     12  C   UNL     1       1.155   2.753  18.570  0.00  0.00    +0.000 A 
ATOM     13  C   UNL     1       1.953   2.130  19.446  0.00  0.00    +0.000 A 
ATOM     14  N   UNL     1       3.165   2.744  19.691  0.00  0.00    +0.000 N 
ATOM     15  C   UNL     1       4.199   2.196  20.544  0.00  0.00    +0.000 C 
ENDBRANCH   7   9
ENDBRANCH   6   7
BRANCH   1  16
ATOM     16  O   UNL     1       7.419   6.507  17.606  0.00  0.00    +0.000 OA
BRANCH  16  18
ATOM     17  C   UNL     1       8.372   8.618  18.209  0.00  0.00    +0.000 C 
ATOM     18  C   UNL     1       7.363   7.908  17.326  0.00  0.00    +0.000 C 
ENDBRANCH  16  18
ENDBRANCH   1  16
TORSDOF 4
ENDMDL
MODEL 3
REMARK VINA RESULT:      -6.6      1.152      1.259
REMARK  Name = 
REMARK  6 active torsions:
REMARK  status: ('A' for Active; 'I' for Inactive)
REMARK    1  A    between atoms: C_1  and  C_2
REMARK    2  A    between atoms: C_2  and  O_3
REMARK    3  A    between atoms: O_3  and  C_4
REMARK    4  A    between atoms: C_9  and  C_10
REMARK    5  A    between atoms: C_10  and  N_12
REMARK    6  A    between atoms: N_17  and  C_18
REMARK                            x       y       z     vdW  Elec       q    Type
REMARK                         _______ _______ _______ _____ _____    ______ ____
ROOT
ATOM      1  C   UNL     1       7.084   4.617  17.195  0.00  0.00    +0.000 A 
ATOM      2  N   UNL     1       7.639   4.843  15.970  0.00  0.00    +0.000 NA
ATOM      3  C   UNL     1       6.842   4.745  14.886  0.00  0.00    +0.000 A 
ATOM      4  C   UNL     1       5.507   4.405  14.951  0.00  0.00    +0.000 A 
ATOM      5  C   UNL     1       4.959   4.160  16.206  0.00  0.00    +0.000 A 
ATOM      6  C   UNL     1       5.750   4.268  17.364  0.00  0.00    +0.000 A 
ENDROOT
BRANCH   6   7
ATOM      7  C   UNL     1       5.077   4.085  18.673  0.00  0.00    +0.000 C 
ATOM      8  O   UNL     1       5.564   3.251  19.438  0.00  0.00    +0.000 OA
BRANCH   7   9
ATOM      9  N   UNL     1       4.078   4.952  19.027  0.00  0.00    +0.000 NA
ATOM     10  C   UNL     1       2.936   4.482  19.415  0.00  0.00    +0.000 A 
ATOM     11  S   UNL     1       2.390   2.772  19.346  0.00  0.00    +0.000 S 
ATOM     12  C   UNL     1       0.910   3.161  20.184  0.00  0.00    +0.000 A 
ATOM     13  C   UNL     1       0.831   4.475  20.424  0.00  0.00    +0.000 A 
ATOM     14  N   UNL     1       1.899   5.229  19.976  0.00  0.00    +0.000 N 
ATOM     15  C   UNL     1       2.043   6.652  20.201  0.00  0.00    +0.000 C 
ENDBRANCH   7   9
ENDBRANCH   6   7
BRANCH   1  16
ATOM     16  O   UNL     1       7.908   4.752  18.290  0.00  0.00    +0.000 OA
BRANCH  16  18
ATOM     17  C   UNL     1       7.788   7.121  17.977  0.00  0.00    +0.000 C 
ATOM     18  C   UNL     1       7.695   5.986  18.979  0.00  0.00    +0.000 C 
ENDBRANCH  16  18
ENDBRANCH   1  16
TORSDOF 4
ENDMDL
MODEL 4
REMARK VINA RESULT:      -6.2      1.875      2.164
REMARK  Name = 
REMARK  6 active torsions:
REMARK  status: ('A' for Active; 'I' for Inactive)
REMARK    1  A    between atoms: C_1  and  C_2
REMARK    2  A    between atoms: C_2  and  O_3
REMARK    3  A    between atoms: O_3  and  C_4
REMARK    4  A    between atoms: C_9  and  C_10
REMARK    5  A    between atoms: C_10  and  N_12
REMARK    6  A    between atoms: N_17  and  C_18
REMARK                            x       y       z     vdW  Elec       q    Type
REMARK                         _______ _______ _______ _____ _____    ______ ____
ROOT
ATOM      1  C   UNL     1       6.336   6.131  16.499  0.00  0.00    +0.000 A 
ATOM      2  N   UNL     1       7.337   5.824  15.626  0.00  0.00    +0.000 NA
ATOM      3  C   UNL     1       7.112   4.850  14.721  0.00  0.00    +0.000 A 
ATOM      4  C   UNL     1       5.935   4.134  14.650  0.00  0.00    +0.000 A 
ATOM      5  C   UNL     1       4.929   4.447  15.558  0.00  0.00    +0.000 A 
ATOM      6  C   UNL     1       5.115   5.468  16.508  0.00  0.00    +0.000 A 
ENDROOT
BRANCH   6   7
ATOM      7  C   UNL     1       3.966   5.810  17.381  0.00  0.00    +0.000 C 
ATOM      8  O   UNL     1       3.861   6.987  17.726  0.00  0.00    +0.000 OA
BRANCH   7   9
ATOM      9  N   UNL     1       3.008   4.859  17.612  0.00  0.00    +0.000 NA
ATOM     10  C   UNL     1       3.207   3.964  18.526  0.00  0.00    +0.000 A 
ATOM     11  S   UNL     1       4.731   3.660  19.429  0.00  0.00    +0.000 S 
ATOM     12  C   UNL     1       3.951   2.469  20.437  0.00  0.00    +0.000 A 
ATOM     13  C   UNL     1       2.679   2.290  20.064  0.00  0.00    +0.000 A 
ATOM     14  N   UNL     1       2.256   3.057  18.995  0.00  0.00    +0.000 N 
ATOM     15  C   UNL     1       0.901   3.069  18.486  0.00  0.00    +0.000 C 
ENDBRANCH   7   9
ENDBRANCH   6   7
BRANCH   1  16
ATOM     16  O   UNL     1       6.576   7.149  17.394  0.00  0.00    +0.000 OA
BRANCH  16  18
ATOM     17  C   UNL     1       7.752   5.935  19.087  0.00  0.00    +0.000 C 
ATOM     18  C   UNL     1       7.849   7.021  18.032  0.00  0.00    +0.000 C 
ENDBRANCH  16  18
ENDBRANCH   1  16
TORSDOF 4
ENDMDL
MODEL 5
REMARK VINA RESULT:      -6.2      3.007      4.774
REMARK  Name = 
REMARK  6 active torsions:
REMARK  status: ('A' for Active; 'I' for Inactive)
REMARK    1  A    between atoms: C_1  and  C_2
REMARK    2  A    between atoms: C_2  and  O_3
REMARK    3  A    between atoms: O_3  and  C_4
REMARK    4  A    between atoms: C_9  and  C_10
REMARK    5  A    between atoms: C_10  and  N_12
REMARK    6  A    between atoms: N_17  and  C_18
REMARK                            x       y       z     vdW  Elec       q    Type
REMARK                         _______ _______ _______ _____ _____    ______ ____
ROOT
ATOM      1  C   UNL     1       4.822   4.504  19.095  0.00  0.00    +0.000 A 
ATOM      2  N   UNL     1       6.163   4.275  19.003  0.00  0.00    +0.000 NA
ATOM      3  C   UNL     1       6.901   5.122  18.257  0.00  0.00    +0.000 A 
ATOM      4  C   UNL     1       6.366   6.189  17.565  0.00  0.00    +0.000 A 
ATOM      5  C   UNL     1       4.994   6.400  17.654  0.00  0.00    +0.000 A 
ATOM      6  C   UNL     1       4.190   5.550  18.435  0.00  0.00    +0.000 A 
ENDROOT
BRANCH   6   7
ATOM      7  C   UNL     1       2.752   5.890  18.560  0.00  0.00    +0.000 C 
ATOM      8  O   UNL     1       1.973   5.300  17.810  0.00  0.00    +0.000 OA
BRANCH   7   9
ATOM      9  N   UNL     1       2.352   6.695  19.594  0.00  0.00    +0.000 NA
ATOM     10  C   UNL     1       1.960   7.904  19.344  0.00  0.00    +0.000 A 
ATOM     11  S   UNL     1       2.076   8.777  17.778  0.00  0.00    +0.000 S 
ATOM     12  C   UNL     1       1.200  10.141  18.420  0.00  0.00    +0.000 A 
ATOM     13  C   UNL     1       0.916   9.957  19.715  0.00  0.00    +0.000 A 
ATOM     14  N   UNL     1       1.358   8.767  20.260  0.00  0.00    +0.000 N 
ATOM     15  C   UNL     1       1.089   8.343  21.617  0.00  0.00    +0.000 C 
ENDBRANCH   7   9
ENDBRANCH   6   7
BRANCH   1  16
ATOM     16  O   UNL     1       4.093   3.644  19.887  0.00  0.00    +0.000 OA
BRANCH  16  18
ATOM     17  C   UNL     1       3.258   1.905  18.471  0.00  0.00    +0.000 C 
ATOM     18  C   UNL     1       4.287   2.276  19.522  0.00  0.00    +0.000 C 
ENDBRANCH  16  18
ENDBRANCH   1  16
TORSDOF 4
ENDMDL
MODEL 6
REMARK VINA RESULT:      -6.2      1.808      2.239
REMARK  Name = 
REMARK  6 active torsions:
REMARK  status: ('A' for Active; 'I' for Inactive)
REMARK    1  A    between atoms: C_1  and  C_2
REMARK    2  A    between atoms: C_2  and  O_3
REMARK    3  A    between atoms: O_3  and  C_4
REMARK    4  A    between atoms: C_9  and  C_10
REMARK    5  A    between atoms: C_10  and  N_12
REMARK    6  A    between atoms: N_17  and  C_18
REMARK                            x       y       z     vdW  Elec       q    Type
REMARK                         _______ _______ _______ _____ _____    ______ ____
ROOT
ATOM      1  C   UNL     1       6.352   5.930  16.462  0.00  0.00    +0.000 A 
ATOM      2  N   UNL     1       7.405   5.761  15.613  0.00  0.00    +0.000 NA
ATOM      3  C   UNL     1       7.284   4.847  14.628  0.00  0.00    +0.000 A 
ATOM      4  C   UNL     1       6.164   4.060  14.454  0.00  0.00    +0.000 A 
ATOM      5  C   UNL     1       5.105   4.232  15.339  0.00  0.00    +0.000 A 
ATOM      6  C   UNL     1       5.183   5.186  16.370  0.00  0.00    +0.000 A 
ENDROOT
BRANCH   6   7
ATOM      7  C   UNL     1       3.981   5.380  17.216  0.00  0.00    +0.000 C 
ATOM      8  O   UNL     1       3.606   6.539  17.393  0.00  0.00    +0.000 OA
BRANCH   7   9
ATOM      9  N   UNL     1       3.265   4.279  17.606  0.00  0.00    +0.000 NA
ATOM     10  C   UNL     1       2.803   4.216  18.815  0.00  0.00    +0.000 A 
ATOM     11  S   UNL     1       3.171   5.333  20.173  0.00  0.00    +0.000 S 
ATOM     12  C   UNL     1       2.019   4.530  21.208  0.00  0.00    +0.000 A 
ATOM     13  C   UNL     1       1.471   3.481  20.583  0.00  0.00    +0.000 A 
ATOM     14  N   UNL     1       1.911   3.256  19.294  0.00  0.00    +0.000 N 
ATOM     15  C   UNL     1       1.390   2.224  18.423  0.00  0.00    +0.000 C 
ENDBRANCH   7   9
ENDBRANCH   6   7
BRANCH   1  16
ATOM     16  O   UNL     1       6.486   6.890  17.441  0.00  0.00    +0.000 OA
BRANCH  16  18
ATOM     17  C   UNL     1       7.630   5.739  19.199  0.00  0.00    +0.000 C 
ATOM     18  C   UNL     1       7.740   6.800  18.120  0.00  0.00    +0.000 C 
ENDBRANCH  16  18
ENDBRANCH   1  16
TORSDOF 4
ENDMDL
MODEL 7
REMARK VINA RESULT:      -6.2      1.624      2.919
REMARK  Name = 
REMARK  6 active torsions:
REMARK  status: ('A' for Active; 'I' for Inactive)
REMARK    1  A    between atoms: C_1  and  C_2
REMARK    2  A    between atoms: C_2  and  O_3
REMARK    3  A    between atoms: O_3  and  C_4
REMARK    4  A    between atoms: C_9  and  C_10
REMARK    5  A    between atoms: C_10  and  N_12
REMARK    6  A    between atoms: N_17  and  C_18
REMARK                            x       y       z     vdW  Elec       q    Type
REMARK                         _______ _______ _______ _____ _____    ______ ____
ROOT
ATOM      1  C   UNL     1       5.910   6.134  17.156  0.00  0.00    +0.000 A 
ATOM      2  N   UNL     1       6.765   7.072  16.657  0.00  0.00    +0.000 NA
ATOM      3  C   UNL     1       7.826   7.427  17.411  0.00  0.00    +0.000 A 
ATOM      4  C   UNL     1       8.075   6.910  18.666  0.00  0.00    +0.000 A 
ATOM      5  C   UNL     1       7.184   5.966  19.169  0.00  0.00    +0.000 A 
ATOM      6  C   UNL     1       6.074   5.556  18.408  0.00  0.00    +0.000 A 
ENDROOT
BRANCH   6   7
ATOM      7  C   UNL     1       5.221   4.479  18.968  0.00  0.00    +0.000 C 
ATOM      8  O   UNL     1       5.734   3.366  19.081  0.00  0.00    +0.000 OA
BRANCH   7   9
ATOM      9  N   UNL     1       3.994   4.809  19.477  0.00  0.00    +0.000 NA
ATOM     10  C   UNL     1       2.973   4.056  19.216  0.00  0.00    +0.000 A 
ATOM     11  S   UNL     1       2.906   2.692  18.048  0.00  0.00    +0.000 S 
ATOM     12  C   UNL     1       1.281   2.290  18.540  0.00  0.00    +0.000 A 
ATOM     13  C   UNL     1       0.832   3.159  19.453  0.00  0.00    +0.000 A 
ATOM     14  N   UNL     1       1.714   4.161  19.809  0.00  0.00    +0.000 N 
ATOM     15  C   UNL     1       1.452   5.152  20.831  0.00  0.00    +0.000 C 
ENDBRANCH   7   9
ENDBRANCH   6   7
BRANCH   1  16
ATOM     16  O   UNL     1       4.851   5.765  16.357  0.00  0.00    +0.000 OA
BRANCH  16  18
ATOM     17  C   UNL     1       5.876   3.895  15.271  0.00  0.00    +0.000 C 
ATOM     18  C   UNL     1       5.279   5.276  15.083  0.00  0.00    +0.000 C 
ENDBRANCH  16  18
ENDBRANCH   1  16
TORSDOF 4
ENDMDL
MODEL 8
REMARK VINA RESULT:      -6.2      1.186      1.682
REMARK  Name = 
REMARK  6 active torsions:
REMARK  status: ('A' for Active; 'I' for Inactive)
REMARK    1  A    between atoms: C_1  and  C_2
REMARK    2  A    between atoms: C_2  and  O_3
REMARK    3  A    between atoms: O_3  and  C_4
REMARK    4  A    between atoms: C_9  and  C_10
REMARK    5  A    between atoms: C_10  and  N_12
REMARK    6  A    between atoms: N_17  and  C_18
REMARK                            x       y       z     vdW  Elec       q    Type
REMARK                         _______ _______ _______ _____ _____    ______ ____
ROOT
ATOM      1  C   UNL     1       7.166   5.723  16.955  0.00  0.00    +0.000 A 
ATOM      2  N   UNL     1       7.409   5.908  15.626  0.00  0.00    +0.000 NA
ATOM      3  C   UNL     1       6.865   5.033  14.755  0.00  0.00    +0.000 A 
ATOM      4  C   UNL     1       6.100   3.951  15.140  0.00  0.00    +0.000 A 
ATOM      5  C   UNL     1       5.875   3.766  16.501  0.00  0.00    +0.000 A 
ATOM      6  C   UNL     1       6.410   4.665  17.442  0.00  0.00    +0.000 A 
ENDROOT
BRANCH   6   7
ATOM      7  C   UNL     1       6.051   4.459  18.867  0.00  0.00    +0.000 C 
ATOM      8  O   UNL     1       6.612   5.181  19.691  0.00  0.00    +0.000 OA
BRANCH   7   9
ATOM      9  N   UNL     1       5.014   3.618  19.170  0.00  0.00    +0.000 NA
ATOM     10  C   UNL     1       3.835   4.111  19.380  0.00  0.00    +0.000 A 
ATOM     11  S   UNL     1       3.402   5.847  19.542  0.00  0.00    +0.000 S 
ATOM     12  C   UNL     1       1.703   5.464  19.631  0.00  0.00    +0.000 A 
ATOM     13  C   UNL     1       1.513   4.139  19.604  0.00  0.00    +0.000 A 
ATOM     14  N   UNL     1       2.658   3.373  19.514  0.00  0.00    +0.000 N 
ATOM     15  C   UNL     1       2.667   1.930  19.396  0.00  0.00    +0.000 C 
ENDBRANCH   7   9
ENDBRANCH   6   7
BRANCH   1  16
ATOM     16  O   UNL     1       7.706   6.645  17.824  0.00  0.00    +0.000 OA
BRANCH  16  18
ATOM     17  C   UNL     1       8.376   8.911  18.199  0.00  0.00    +0.000 C 
ATOM     18  C   UNL     1       7.478   7.990  17.397  0.00  0.00    +0.000 C 
ENDBRANCH  16  18
ENDBRANCH   1  16
TORSDOF 4
ENDMDL
MODEL 9
REMARK VINA RESULT:      -6.1      1.789      2.017
REMARK  Name = 
REMARK  6 active torsions:
REMARK  status: ('A' for Active; 'I' for Inactive)
REMARK    1  A    between atoms: C_1  and  C_2
REMARK    2  A    between atoms: C_2  and  O_3
REMARK    3  A    between atoms: O_3  and  C_4
REMARK    4  A    between atoms: C_9  and  C_10
REMARK    5  A    between atoms: C_10  and  N_12
REMARK    6  A    between atoms: N_17  and  C_18
REMARK                            x       y       z     vdW  Elec       q    Type
REMARK                         _______ _______ _______ _____ _____    ______ ____
ROOT
ATOM      1  C   UNL     1       6.485   5.341  17.732  0.00  0.00    +0.000 A 
ATOM      2  N   UNL     1       7.448   4.764  16.958  0.00  0.00    +0.000 NA
ATOM      3  C   UNL     1       7.060   4.120  15.838  0.00  0.00    +0.000 A 
ATOM      4  C   UNL     1       5.742   3.995  15.451  0.00  0.00    +0.000 A 
ATOM      5  C   UNL     1       4.769   4.575  16.260  0.00  0.00    +0.000 A 
ATOM      6  C   UNL     1       5.132   5.270  17.427  0.00  0.00    +0.000 A 
ENDROOT
BRANCH   6   7
ATOM      7  C   UNL     1       4.051   5.941  18.189  0.00  0.00    +0.000 C 
ATOM      8  O   UNL     1       3.542   6.936  17.673  0.00  0.00    +0.000 OA
BRANCH   7   9
ATOM      9  N   UNL     1       3.567   5.336  19.318  0.00  0.00    +0.000 NA
ATOM     10  C   UNL     1       2.598   4.483  19.218  0.00  0.00    +0.000 A 
ATOM     11  S   UNL     1       1.617   4.128  17.755  0.00  0.00    +0.000 S 
ATOM     12  C   UNL     1       0.777   2.837  18.574  0.00  0.00    +0.000 A 
ATOM     13  C   UNL     1       1.173   2.746  19.849  0.00  0.00    +0.000 A 
ATOM     14  N   UNL     1       2.131   3.660  20.244  0.00  0.00    +0.000 N 
ATOM     15  C   UNL     1       2.746   3.682  21.554  0.00  0.00    +0.000 C 
ENDBRANCH   7   9
ENDBRANCH   6   7
BRANCH   1  16
ATOM     16  O   UNL     1       6.907   6.019  18.854  0.00  0.00    +0.000 OA
BRANCH  16  18
ATOM     17  C   UNL     1       7.685   7.967  17.703  0.00  0.00    +0.000 C 
ATOM     18  C   UNL     1       8.071   6.810  18.603  0.00  0.00    +0.000 C 
ENDBRANCH  16  18
ENDBRANCH   1  16
TORSDOF 4
ENDMDL
