MODEL 1
REMARK VINA RESULT:      -7.2      0.000      0.000
REMARK  Name = 
REMARK  10 active torsions:
REMARK  status: ('A' for Active; 'I' for Inactive)
REMARK    1  A    between atoms: C_1  and  O_2
REMARK    2  A    between atoms: O_2  and  C_3
REMARK    3  A    between atoms: C_5  and  O_6
REMARK    4  A    between atoms: O_6  and  C_7
REMARK    5  A    between atoms: C_15  and  C_16
REMARK    6  A    between atoms: C_16  and  N_17
REMARK    7  A    between atoms: N_17  and  C_18
REMARK    8  A    between atoms: C_18  and  C_19
REMARK    9  A    between atoms: C_22  and  O_23
REMARK   10  A    between atoms: O_23  and  C_24
REMARK                            x       y       z     vdW  Elec       q    Type
REMARK                         _______ _______ _______ _____ _____    ______ ____
ROOT
ATOM      1  C   UNL     1      -0.405  11.592  19.418  0.00  0.00    +0.000 A 
ATOM      2  C   UNL     1      -0.800  10.982  20.614  0.00  0.00    +0.000 A 
ATOM      3  C   UNL     1      -0.239   9.767  21.030  0.00  0.00    +0.000 A 
ATOM      4  C   UNL     1       0.755   9.170  20.234  0.00  0.00    +0.000 A 
ATOM      5  C   UNL     1       1.106   9.749  19.016  0.00  0.00    +0.000 A 
ATOM      6  C   UNL     1       0.531  10.959  18.606  0.00  0.00    +0.000 A 
ATOM      7  C   UNL     1       2.104   9.097  18.151  0.00  0.00    +0.000 C 
ATOM      8  O   UNL     1       2.490   9.661  17.134  0.00  0.00    +0.000 OA
ATOM      9  C   UNL     1       2.581   7.737  18.494  0.00  0.00    +0.000 A 
ATOM     10  C   UNL     1       3.420   7.089  17.575  0.00  0.00    +0.000 A 
ATOM     11  C   UNL     1       3.895   5.804  17.837  0.00  0.00    +0.000 A 
ATOM     12  C   UNL     1       3.457   5.169  19.004  0.00  0.00    +0.000 A 
ATOM     13  C   UNL     1       2.617   5.800  19.946  0.00  0.00    +0.000 A 
ATOM     14  C   UNL     1       2.211   7.124  19.703  0.00  0.00    +0.000 A 
ATOM     15  C   UNL     1       1.550   8.009  20.693  0.00  0.00    +0.000 C 
ATOM     16  O   UNL     1       1.798   7.891  21.885  0.00  0.00    +0.000 OA
ENDROOT
BRANCH   1  18
ATOM     17  C   UNL     1      -0.174  13.951  19.213  0.00  0.00    +0.000 C 
ATOM     18  O   UNL     1      -1.004  12.795  19.159  0.00  0.00    +0.000 OA
ENDBRANCH   1  18
BRANCH   3  19
ATOM     19  O   UNL     1      -0.617   9.098  22.161  0.00  0.00    +0.000 OA
ATOM     20  C   UNL     1      -0.588   9.795  23.400  0.00  0.00    +0.000 C 
ENDBRANCH   3  19
BRANCH  13  21
ATOM     21  O   UNL     1       2.351   4.937  20.970  0.00  0.00    +0.000 OA
ATOM     22  C   UNL     1       1.395   3.898  20.856  0.00  0.00    +0.000 C 
ENDBRANCH  13  21
BRANCH  11  23
ATOM     23  C   UNL     1       4.858   5.121  16.896  0.00  0.00    +0.000 C 
BRANCH  23  24
ATOM     24  N   UNL     1       5.755   4.227  17.631  0.00  0.00    +0.000 NA
ATOM     25  H   UNL     1       5.651   3.282  17.260  0.00  0.00    +0.000 HD
BRANCH  24  26
ATOM     26  C   UNL     1       7.154   4.660  17.502  0.00  0.00    +0.000 C 
BRANCH  26  27
ATOM     27  C   UNL     1       7.490   5.753  18.518  0.00  0.00    +0.000 C 
ATOM     28 CL   UNL     1       7.596   7.340  17.714  0.00  0.00    +0.000 Cl
ENDBRANCH  26  27
ENDBRANCH  24  26
ENDBRANCH  23  24
ENDBRANCH  11  23
TORSDOF 7
ENDMDL
MODEL 2
REMARK VINA RESULT:      -6.9      1.182      1.278
REMARK  Name = 
REMARK  10 active torsions:
REMARK  status: ('A' for Active; 'I' for Inactive)
REMARK    1  A    between atoms: C_1  and  O_2
REMARK    2  A    between atoms: O_2  and  C_3
REMARK    3  A    between atoms: C_5  and  O_6
REMARK    4  A    between atoms: O_6  and  C_7
REMARK    5  A    between atoms: C_15  and  C_16
REMARK    6  A    between atoms: C_16  and  N_17
REMARK    7  A    between atoms: N_17  and  C_18
REMARK    8  A    between atoms: C_18  and  C_19
REMARK    9  A    between atoms: C_22  and  O_23
REMARK   10  A    between atoms: O_23  and  C_24
REMARK                            x       y       z     vdW  Elec       q    Type
REMARK                         _______ _______ _______ _____ _____    ______ ____
ROOT
ATOM      1  C   UNL     1      -0.484  11.716  19.227  0.00  0.00    +0.000 A 
ATOM      2  C   UNL     1      -0.902  11.205  20.461  0.00  0.00    +0.000 A 
ATOM      3  C   UNL     1      -0.372  10.011  20.970  0.00  0.00    +0.000 A 
ATOM      4  C   UNL     1       0.613   9.334  20.229  0.00  0.00    +0.000 A 
ATOM      5  C   UNL     1       0.985   9.813  18.975  0.00  0.00    +0.000 A 
ATOM      6  C   UNL     1       0.442  11.003  18.471  0.00  0.00    +0.000 A 
ATOM      7  C   UNL     1       1.972   9.076  18.168  0.00  0.00    +0.000 C 
ATOM      8  O   UNL     1       2.379   9.554  17.115  0.00  0.00    +0.000 OA
ATOM      9  C   UNL     1       2.415   7.734  18.614  0.00  0.00    +0.000 A 
ATOM     10  C   UNL     1       3.244   7.000  17.752  0.00  0.00    +0.000 A 
ATOM     11  C   UNL     1       3.686   5.728  18.113  0.00  0.00    +0.000 A 
ATOM     12  C   UNL     1       3.226   5.191  19.320  0.00  0.00    +0.000 A 
ATOM     13  C   UNL     1       2.395   5.910  20.205  0.00  0.00    +0.000 A 
ATOM     14  C   UNL     1       2.022   7.221  19.863  0.00  0.00    +0.000 A 
ATOM     15  C   UNL     1       1.377   8.192  20.779  0.00  0.00    +0.000 C 
ATOM     16  O   UNL     1       1.614   8.157  21.978  0.00  0.00    +0.000 OA
ENDROOT
BRANCH   1  18
ATOM     17  C   UNL     1      -0.198  14.049  18.863  0.00  0.00    +0.000 C 
ATOM     18  O   UNL     1      -1.052  12.910  18.875  0.00  0.00    +0.000 OA
ENDBRANCH   1  18
BRANCH   3  19
ATOM     19  O   UNL     1      -0.773   9.437  22.145  0.00  0.00    +0.000 OA
ATOM     20  C   UNL     1      -0.802  10.242  23.316  0.00  0.00    +0.000 C 
ENDBRANCH   3  19
BRANCH  13  21
ATOM     21  O   UNL     1       2.102   5.132  21.289  0.00  0.00    +0.000 OA
ATOM     22  C   UNL     1       2.006   3.721  21.204  0.00  0.00    +0.000 C 
ENDBRANCH  13  21
BRANCH  11  23
ATOM     23  C   UNL     1       4.639   4.955  17.232  0.00  0.00    +0.000 C 
BRANCH  23  24
ATOM     24  N   UNL     1       6.021   5.379  17.466  0.00  0.00    +0.000 NA
ATOM     25  H   UNL     1       6.239   5.255  18.455  0.00  0.00    +0.000 HD
BRANCH  24  26
ATOM     26  C   UNL     1       6.959   4.596  16.649  0.00  0.00    +0.000 C 
BRANCH  26  27
ATOM     27  C   UNL     1       6.914   5.034  15.184  0.00  0.00    +0.000 C 
ATOM     28 CL   UNL     1       6.138   3.782  14.182  0.00  0.00    +0.000 Cl
ENDBRANCH  26  27
ENDBRANCH  24  26
ENDBRANCH  23  24
ENDBRANCH  11  23
TORSDOF 7
ENDMDL
MODEL 3
REMARK VINA RESULT:      -6.6      1.861      2.207
REMARK  Name = 
REMARK  10 active torsions:
REMARK  status: ('A' for Active; 'I' for Inactive)
REMARK    1  A    between atoms: C_1  and  O_2
REMARK    2  A    between atoms: O_2  and  C_3
REMARK    3  A    between atoms: C_5  and  O_6
REMARK    4  A    between atoms: O_6  and  C_7
REMARK    5  A    between atoms: C_15  and  C_16
REMARK    6  A    between atoms: C_16  and  N_17
REMARK    7  A    between atoms: N_17  and  C_18
REMARK    8  A    between atoms: C_18  and  C_19
REMARK    9  A    between atoms: C_22  and  O_23
REMARK   10  A    between atoms: O_23  and  C_24
REMARK                            x       y       z     vdW  Elec       q    Type
REMARK                         _______ _______ _______ _____ _____    ______ ____
ROOT
ATOM      1  C   UNL     1      -0.578  11.558  19.152  0.00  0.00    +0.000 A 
ATOM      2  C   UNL     1      -0.964  11.089  20.413  0.00  0.00    +0.000 A 
ATOM      3  C   UNL     1      -0.387   9.938  20.968  0.00  0.00    +0.000 A 
ATOM      4  C   UNL     1       0.613   9.263  20.245  0.00  0.00    +0.000 A 
ATOM      5  C   UNL     1       0.955   9.698  18.967  0.00  0.00    +0.000 A 
ATOM      6  C   UNL     1       0.365  10.844  18.418  0.00  0.00    +0.000 A 
ATOM      7  C   UNL     1       1.959   8.960  18.182  0.00  0.00    +0.000 C 
ATOM      8  O   UNL     1       2.338   9.404  17.104  0.00  0.00    +0.000 OA
ATOM      9  C   UNL     1       2.453   7.656  18.681  0.00  0.00    +0.000 A 
ATOM     10  C   UNL     1       3.298   6.913  17.843  0.00  0.00    +0.000 A 
ATOM     11  C   UNL     1       3.789   5.675  18.254  0.00  0.00    +0.000 A 
ATOM     12  C   UNL     1       3.361   5.176  19.489  0.00  0.00    +0.000 A 
ATOM     13  C   UNL     1       2.515   5.905  20.352  0.00  0.00    +0.000 A 
ATOM     14  C   UNL     1       2.093   7.186  19.956  0.00  0.00    +0.000 A 
ATOM     15  C   UNL     1       1.423   8.174  20.836  0.00  0.00    +0.000 C 
ATOM     16  O   UNL     1       1.674   8.200  22.033  0.00  0.00    +0.000 OA
ENDROOT
BRANCH   1  18
ATOM     17  C   UNL     1      -0.369  13.871  18.639  0.00  0.00    +0.000 C 
ATOM     18  O   UNL     1      -1.191  12.714  18.755  0.00  0.00    +0.000 OA
ENDBRANCH   1  18
BRANCH   3  19
ATOM     19  O   UNL     1      -0.755   9.403  22.172  0.00  0.00    +0.000 OA
ATOM     20  C   UNL     1      -0.966  10.284  23.266  0.00  0.00    +0.000 C 
ENDBRANCH   3  19
BRANCH  13  21
ATOM     21  O   UNL     1       2.261   5.166  21.472  0.00  0.00    +0.000 OA
ATOM     22  C   UNL     1       2.034   3.769  21.422  0.00  0.00    +0.000 C 
ENDBRANCH  13  21
BRANCH  11  23
ATOM     23  C   UNL     1       4.759   4.897  17.397  0.00  0.00    +0.000 C 
BRANCH  23  24
ATOM     24  N   UNL     1       4.539   3.456  17.542  0.00  0.00    +0.000 NA
ATOM     25  H   UNL     1       4.655   3.205  18.524  0.00  0.00    +0.000 HD
BRANCH  24  26
ATOM     26  C   UNL     1       3.194   3.079  17.088  0.00  0.00    +0.000 C 
BRANCH  26  27
ATOM     27  C   UNL     1       2.569   2.036  18.017  0.00  0.00    +0.000 C 
ATOM     28 CL   UNL     1       0.900   2.498  18.439  0.00  0.00    +0.000 Cl
ENDBRANCH  26  27
ENDBRANCH  24  26
ENDBRANCH  23  24
ENDBRANCH  11  23
TORSDOF 7
ENDMDL
MODEL 4
REMARK VINA RESULT:      -6.6      3.267      7.081
REMARK  Name = 
REMARK  10 active torsions:
REMARK  status: ('A' for Active; 'I' for Inactive)
REMARK    1  A    between atoms: C_1  and  O_2
REMARK    2  A    between atoms: O_2  and  C_3
REMARK    3  A    between atoms: C_5  and  O_6
REMARK    4  A    between atoms: O_6  and  C_7
REMARK    5  A    between atoms: C_15  and  C_16
REMARK    6  A    between atoms: C_16  and  N_17
REMARK    7  A    between atoms: N_17  and  C_18
REMARK    8  A    between atoms: C_18  and  C_19
REMARK    9  A    between atoms: C_22  and  O_23
REMARK   10  A    between atoms: O_23  and  C_24
REMARK                            x       y       z     vdW  Elec       q    Type
REMARK                         _______ _______ _______ _____ _____    ______ ____
ROOT
ATOM      1  C   UNL     1       4.746   4.720  17.660  0.00  0.00    +0.000 A 
ATOM      2  C   UNL     1       4.429   4.145  18.895  0.00  0.00    +0.000 A 
ATOM      3  C   UNL     1       3.544   4.773  19.783  0.00  0.00    +0.000 A 
ATOM      4  C   UNL     1       2.953   5.992  19.405  0.00  0.00    +0.000 A 
ATOM      5  C   UNL     1       3.314   6.590  18.199  0.00  0.00    +0.000 A 
ATOM      6  C   UNL     1       4.208   5.958  17.324  0.00  0.00    +0.000 A 
ATOM      7  C   UNL     1       2.743   7.896  17.825  0.00  0.00    +0.000 C 
ATOM      8  O   UNL     1       2.977   8.369  16.719  0.00  0.00    +0.000 OA
ATOM      9  C   UNL     1       1.942   8.647  18.819  0.00  0.00    +0.000 A 
ATOM     10  C   UNL     1       1.535   9.947  18.481  0.00  0.00    +0.000 A 
ATOM     11  C   UNL     1       0.785  10.707  19.378  0.00  0.00    +0.000 A 
ATOM     12  C   UNL     1       0.514  10.158  20.636  0.00  0.00    +0.000 A 
ATOM     13  C   UNL     1       0.909   8.853  20.999  0.00  0.00    +0.000 A 
ATOM     14  C   UNL     1       1.595   8.071  20.054  0.00  0.00    +0.000 A 
ATOM     15  C   UNL     1       1.855   6.616  20.175  0.00  0.00    +0.000 C 
ATOM     16  O   UNL     1       1.063   5.899  20.771  0.00  0.00    +0.000 OA
ENDROOT
BRANCH   1  18
ATOM     17  C   UNL     1       6.885   4.513  16.638  0.00  0.00    +0.000 C 
ATOM     18  O   UNL     1       5.588   3.977  16.878  0.00  0.00    +0.000 OA
ENDBRANCH   1  18
BRANCH   3  19
ATOM     19  O   UNL     1       3.232   4.288  21.023  0.00  0.00    +0.000 OA
ATOM     20  C   UNL     1       2.761   2.950  21.125  0.00  0.00    +0.000 C 
ENDBRANCH   3  19
BRANCH  13  21
ATOM     21  O   UNL     1       0.517   8.598  22.282  0.00  0.00    +0.000 OA
ATOM     22  C   UNL     1      -0.140   9.567  23.079  0.00  0.00    +0.000 C 
ENDBRANCH  13  21
BRANCH  11  23
ATOM     23  C   UNL     1       0.275  12.078  19.003  0.00  0.00    +0.000 C 
BRANCH  23  24
ATOM     24  N   UNL     1      -0.696  11.988  17.910  0.00  0.00    +0.000 NA
ATOM     25  H   UNL     1      -0.269  11.482  17.133  0.00  0.00    +0.000 HD
BRANCH  24  26
ATOM     26  C   UNL     1      -1.916  11.293  18.343  0.00  0.00    +0.000 C 
BRANCH  26  27
ATOM     27  C   UNL     1      -2.322  10.211  17.340  0.00  0.00    +0.000 C 
ATOM     28 CL   UNL     1      -2.676  10.936  15.751  0.00  0.00    +0.000 Cl
ENDBRANCH  26  27
ENDBRANCH  24  26
ENDBRANCH  23  24
ENDBRANCH  11  23
TORSDOF 7
ENDMDL
MODEL 5
REMARK VINA RESULT:      -6.5      2.411      4.243
REMARK  Name = 
REMARK  10 active torsions:
REMARK  status: ('A' for Active; 'I' for Inactive)
REMARK    1  A    between atoms: C_1  and  O_2
REMARK    2  A    between atoms: O_2  and  C_3
REMARK    3  A    between atoms: C_5  and  O_6
REMARK    4  A    between atoms: O_6  and  C_7
REMARK    5  A    between atoms: C_15  and  C_16
REMARK    6  A    between atoms: C_16  and  N_17
REMARK    7  A    between atoms: N_17  and  C_18
REMARK    8  A    between atoms: C_18  and  C_19
REMARK    9  A    between atoms: C_22  and  O_23
REMARK   10  A    between atoms: O_23  and  C_24
REMARK                            x       y       z     vdW  Elec       q    Type
REMARK                         _______ _______ _______ _____ _____    ______ ____
ROOT
ATOM      1  C   UNL     1      -0.076  12.404  21.145  0.00  0.00    +0.000 A 
ATOM      2  C   UNL     1       0.659  12.770  20.012  0.00  0.00    +0.000 A 
ATOM      3  C   UNL     1       1.327  11.811  19.239  0.00  0.00    +0.000 A 
ATOM      4  C   UNL     1       1.232  10.456  19.604  0.00  0.00    +0.000 A 
ATOM      5  C   UNL     1       0.547  10.100  20.764  0.00  0.00    +0.000 A 
ATOM      6  C   UNL     1      -0.109  11.068  21.536  0.00  0.00    +0.000 A 
ATOM      7  C   UNL     1       0.495   8.689  21.184  0.00  0.00    +0.000 C 
ATOM      8  O   UNL     1      -0.197   8.364  22.142  0.00  0.00    +0.000 OA
ATOM      9  C   UNL     1       1.329   7.691  20.476  0.00  0.00    +0.000 A 
ATOM     10  C   UNL     1       1.365   6.386  20.991  0.00  0.00    +0.000 A 
ATOM     11  C   UNL     1       2.138   5.405  20.373  0.00  0.00    +0.000 A 
ATOM     12  C   UNL     1       2.919   5.780  19.274  0.00  0.00    +0.000 A 
ATOM     13  C   UNL     1       2.898   7.084  18.735  0.00  0.00    +0.000 A 
ATOM     14  C   UNL     1       2.052   8.041  19.322  0.00  0.00    +0.000 A 
ATOM     15  C   UNL     1       1.721   9.362  18.736  0.00  0.00    +0.000 C 
ATOM     16  O   UNL     1       1.683   9.503  17.522  0.00  0.00    +0.000 OA
ENDROOT
BRANCH   1  18
ATOM     17  C   UNL     1      -0.024  14.683  21.827  0.00  0.00    +0.000 C 
ATOM     18  O   UNL     1      -0.712  13.436  21.779  0.00  0.00    +0.000 OA
ENDBRANCH   1  18
BRANCH   3  19
ATOM     19  O   UNL     1       2.100  12.110  18.150  0.00  0.00    +0.000 OA
ATOM     20  C   UNL     1       2.749  13.374  18.110  0.00  0.00    +0.000 C 
ENDBRANCH   3  19
BRANCH  13  21
ATOM     21  O   UNL     1       3.763   7.155  17.680  0.00  0.00    +0.000 OA
ATOM     22  C   UNL     1       4.322   6.000  17.081  0.00  0.00    +0.000 C 
ENDBRANCH  13  21
BRANCH  11  23
ATOM     23  C   UNL     1       2.130   3.978  20.868  0.00  0.00    +0.000 C 
BRANCH  23  24
ATOM     24  N   UNL     1       0.826   3.355  20.631  0.00  0.00    +0.000 NA
ATOM     25  H   UNL     1       0.096   4.045  20.808  0.00  0.00    +0.000 HD
BRANCH  24  26
ATOM     26  C   UNL     1       0.719   2.862  19.251  0.00  0.00    +0.000 C 
BRANCH  26  27
ATOM     27  C   UNL     1       1.877   1.923  18.908  0.00  0.00    +0.000 C 
ATOM     28 CL   UNL     1       2.826   2.574  17.548  0.00  0.00    +0.000 Cl
ENDBRANCH  26  27
ENDBRANCH  24  26
ENDBRANCH  23  24
ENDBRANCH  11  23
TORSDOF 7
ENDMDL
MODEL 6
REMARK VINA RESULT:      -6.5      2.214      4.171
REMARK  Name = 
REMARK  10 active torsions:
REMARK  status: ('A' for Active; 'I' for Inactive)
REMARK    1  A    between atoms: C_1  and  O_2
REMARK    2  A    between atoms: O_2  and  C_3
REMARK    3  A    between atoms: C_5  and  O_6
REMARK    4  A    between atoms: O_6  and  C_7
REMARK    5  A    between atoms: C_15  and  C_16
REMARK    6  A    between atoms: C_16  and  N_17
REMARK    7  A    between atoms: N_17  and  C_18
REMARK    8  A    between atoms: C_18  and  C_19
REMARK    9  A    between atoms: C_22  and  O_23
REMARK   10  A    between atoms: O_23  and  C_24
REMARK                            x       y       z     vdW  Elec       q    Type
REMARK                         _______ _______ _______ _____ _____    ______ ____
ROOT
ATOM      1  C   UNL     1      -0.026  10.666  21.038  0.00  0.00    +0.000 A 
ATOM      2  C   UNL     1       0.477  11.356  19.930  0.00  0.00    +0.000 A 
ATOM      3  C   UNL     1       1.316  10.726  19.000  0.00  0.00    +0.000 A 
ATOM      4  C   UNL     1       1.632   9.367  19.182  0.00  0.00    +0.000 A 
ATOM      5  C   UNL     1       1.176   8.698  20.315  0.00  0.00    +0.000 A 
ATOM      6  C   UNL     1       0.347   9.341  21.244  0.00  0.00    +0.000 A 
ATOM      7  C   UNL     1       1.553   7.291  20.541  0.00  0.00    +0.000 C 
ATOM      8  O   UNL     1       1.064   6.672  21.479  0.00  0.00    +0.000 OA
ATOM      9  C   UNL     1       2.566   6.663  19.662  0.00  0.00    +0.000 A 
ATOM     10  C   UNL     1       3.007   5.373  19.992  0.00  0.00    +0.000 A 
ATOM     11  C   UNL     1       3.966   4.733  19.208  0.00  0.00    +0.000 A 
ATOM     12  C   UNL     1       4.513   5.441  18.132  0.00  0.00    +0.000 A 
ATOM     13  C   UNL     1       4.085   6.738  17.778  0.00  0.00    +0.000 A 
ATOM     14  C   UNL     1       3.062   7.337  18.532  0.00  0.00    +0.000 A 
ATOM     15  C   UNL     1       2.327   8.568  18.149  0.00  0.00    +0.000 C 
ATOM     16  O   UNL     1       2.147   8.833  16.969  0.00  0.00    +0.000 OA
ENDROOT
BRANCH   1  18
ATOM     17  C   UNL     1      -1.175  10.842  23.114  0.00  0.00    +0.000 C 
ATOM     18  O   UNL     1      -0.866  11.392  21.837  0.00  0.00    +0.000 OA
ENDBRANCH   1  18
BRANCH   3  19
ATOM     19  O   UNL     1       1.878  11.358  17.926  0.00  0.00    +0.000 OA
ATOM     20  C   UNL     1       2.509  12.614  18.136  0.00  0.00    +0.000 C 
ENDBRANCH   3  19
BRANCH  13  21
ATOM     21  O   UNL     1       4.801   7.176  16.701  0.00  0.00    +0.000 OA
ATOM     22  C   UNL     1       5.303   6.292  15.715  0.00  0.00    +0.000 C 
ENDBRANCH  13  21
BRANCH  11  23
ATOM     23  C   UNL     1       4.396   3.316  19.503  0.00  0.00    +0.000 C 
BRANCH  23  24
ATOM     24  N   UNL     1       3.243   2.489  19.868  0.00  0.00    +0.000 NA
ATOM     25  H   UNL     1       2.591   3.057  20.409  0.00  0.00    +0.000 HD
BRANCH  24  26
ATOM     26  C   UNL     1       2.570   1.965  18.672  0.00  0.00    +0.000 C 
BRANCH  26  27
ATOM     27  C   UNL     1       1.153   2.528  18.544  0.00  0.00    +0.000 C 
ATOM     28 CL   UNL     1       1.145   3.963  17.488  0.00  0.00    +0.000 Cl
ENDBRANCH  26  27
ENDBRANCH  24  26
ENDBRANCH  23  24
ENDBRANCH  11  23
TORSDOF 7
ENDMDL
MODEL 7
REMARK VINA RESULT:      -6.4      3.212      7.023
REMARK  Name = 
REMARK  10 active torsions:
REMARK  status: ('A' for Active; 'I' for Inactive)
REMARK    1  A    between atoms: C_1  and  O_2
REMARK    2  A    between atoms: O_2  and  C_3
REMARK    3  A    between atoms: C_5  and  O_6
REMARK    4  A    between atoms: O_6  and  C_7
REMARK    5  A    between atoms: C_15  and  C_16
REMARK    6  A    between atoms: C_16  and  N_17
REMARK    7  A    between atoms: N_17  and  C_18
REMARK    8  A    between atoms: C_18  and  C_19
REMARK    9  A    between atoms: C_22  and  O_23
REMARK   10  A    between atoms: O_23  and  C_24
REMARK                            x       y       z     vdW  Elec       q    Type
REMARK                         _______ _______ _______ _____ _____    ______ ____
ROOT
ATOM      1  C   UNL     1       3.863   4.789  18.050  0.00  0.00    +0.000 A 
ATOM      2  C   UNL     1       3.501   4.326  19.320  0.00  0.00    +0.000 A 
ATOM      3  C   UNL     1       2.741   5.118  20.193  0.00  0.00    +0.000 A 
ATOM      4  C   UNL     1       2.321   6.390  19.765  0.00  0.00    +0.000 A 
ATOM      5  C   UNL     1       2.729   6.870  18.523  0.00  0.00    +0.000 A 
ATOM      6  C   UNL     1       3.497   6.075  17.663  0.00  0.00    +0.000 A 
ATOM      7  C   UNL     1       2.341   8.225  18.094  0.00  0.00    +0.000 C 
ATOM      8  O   UNL     1       2.608   8.606  16.960  0.00  0.00    +0.000 OA
ATOM      9  C   UNL     1       1.684   9.131  19.064  0.00  0.00    +0.000 A 
ATOM     10  C   UNL     1       1.458  10.458  18.668  0.00  0.00    +0.000 A 
ATOM     11  C   UNL     1       0.851  11.361  19.540  0.00  0.00    +0.000 A 
ATOM     12  C   UNL     1       0.539  10.919  20.830  0.00  0.00    +0.000 A 
ATOM     13  C   UNL     1       0.754   9.589  21.252  0.00  0.00    +0.000 A 
ATOM     14  C   UNL     1       1.294   8.672  20.334  0.00  0.00    +0.000 A 
ATOM     15  C   UNL     1       1.345   7.202  20.525  0.00  0.00    +0.000 C 
ATOM     16  O   UNL     1       0.476   6.636  21.174  0.00  0.00    +0.000 OA
ENDROOT
BRANCH   1  18
ATOM     17  C   UNL     1       4.104   2.548  17.288  0.00  0.00    +0.000 C 
ATOM     18  O   UNL     1       4.566   3.895  17.290  0.00  0.00    +0.000 OA
ENDBRANCH   1  18
BRANCH   3  19
ATOM     19  O   UNL     1       2.398   4.743  21.463  0.00  0.00    +0.000 OA
ATOM     20  C   UNL     1       2.065   3.381  21.698  0.00  0.00    +0.000 C 
ENDBRANCH   3  19
BRANCH  13  21
ATOM     21  O   UNL     1       0.366   9.456  22.554  0.00  0.00    +0.000 OA
ATOM     22  C   UNL     1      -0.724  10.180  23.097  0.00  0.00    +0.000 C 
ENDBRANCH  13  21
BRANCH  11  23
ATOM     23  C   UNL     1       0.531  12.772  19.105  0.00  0.00    +0.000 C 
BRANCH  23  24
ATOM     24  N   UNL     1      -0.405  12.767  17.978  0.00  0.00    +0.000 NA
ATOM     25  H   UNL     1      -0.030  12.167  17.244  0.00  0.00    +0.000 HD
BRANCH  24  26
ATOM     26  C   UNL     1      -1.727  12.278  18.393  0.00  0.00    +0.000 C 
BRANCH  26  27
ATOM     27  C   UNL     1      -2.403  11.492  17.268  0.00  0.00    +0.000 C 
ATOM     28 CL   UNL     1      -1.694   9.864  17.131  0.00  0.00    +0.000 Cl
ENDBRANCH  26  27
ENDBRANCH  24  26
ENDBRANCH  23  24
ENDBRANCH  11  23
TORSDOF 7
ENDMDL
MODEL 8
REMARK VINA RESULT:      -6.3      3.780      5.616
REMARK  Name = 
REMARK  10 active torsions:
REMARK  status: ('A' for Active; 'I' for Inactive)
REMARK    1  A    between atoms: C_1  and  O_2
REMARK    2  A    between atoms: O_2  and  C_3
REMARK    3  A    between atoms: C_5  and  O_6
REMARK    4  A    between atoms: O_6  and  C_7
REMARK    5  A    between atoms: C_15  and  C_16
REMARK    6  A    between atoms: C_16  and  N_17
REMARK    7  A    between atoms: N_17  and  C_18
REMARK    8  A    between atoms: C_18  and  C_19
REMARK    9  A    between atoms: C_22  and  O_23
REMARK   10  A    between atoms: O_23  and  C_24
REMARK                            x       y       z     vdW  Elec       q    Type
REMARK                         _______ _______ _______ _____ _____    ______ ____
ROOT
ATOM      1  C   UNL     1      -5.764  12.372  17.769  0.00  0.00    +0.000 A 
ATOM      2  C   UNL     1      -5.745  12.847  19.084  0.00  0.00    +0.000 A 
ATOM      3  C   UNL     1      -4.608  12.708  19.891  0.00  0.00    +0.000 A 
ATOM      4  C   UNL     1      -3.462  12.097  19.351  0.00  0.00    +0.000 A 
ATOM      5  C   UNL     1      -3.501  11.574  18.060  0.00  0.00    +0.000 A 
ATOM      6  C   UNL     1      -4.647  11.711  17.266  0.00  0.00    +0.000 A 
ATOM      7  C   UNL     1      -2.323  10.881  17.511  0.00  0.00    +0.000 C 
ATOM      8  O   UNL     1      -2.321  10.518  16.340  0.00  0.00    +0.000 OA
ATOM      9  C   UNL     1      -1.179  10.580  18.402  0.00  0.00    +0.000 A 
ATOM     10  C   UNL     1      -0.138   9.795  17.884  0.00  0.00    +0.000 A 
ATOM     11  C   UNL     1       0.962   9.470  18.677  0.00  0.00    +0.000 A 
ATOM     12  C   UNL     1       0.959   9.895  20.010  0.00  0.00    +0.000 A 
ATOM     13  C   UNL     1      -0.075  10.689  20.553  0.00  0.00    +0.000 A 
ATOM     14  C   UNL     1      -1.137  11.072  19.718  0.00  0.00    +0.000 A 
ATOM     15  C   UNL     1      -2.157  12.098  20.049  0.00  0.00    +0.000 C 
ATOM     16  O   UNL     1      -1.865  13.044  20.766  0.00  0.00    +0.000 OA
ENDROOT
BRANCH   1  18
ATOM     17  C   UNL     1      -7.183  13.967  16.718  0.00  0.00    +0.000 C 
ATOM     18  O   UNL     1      -6.923  12.615  17.084  0.00  0.00    +0.000 OA
ENDBRANCH   1  18
BRANCH   3  19
ATOM     19  O   UNL     1      -4.544  13.107  21.198  0.00  0.00    +0.000 OA
ATOM     20  C   UNL     1      -5.529  14.013  21.677  0.00  0.00    +0.000 C 
ENDBRANCH   3  19
BRANCH  13  21
ATOM     21  O   UNL     1       0.187  10.938  21.870  0.00  0.00    +0.000 OA
ATOM     22  C   UNL     1      -0.532  10.311  22.917  0.00  0.00    +0.000 C 
ENDBRANCH  13  21
BRANCH  11  23
ATOM     23  C   UNL     1       2.127   8.690  18.114  0.00  0.00    +0.000 C 
BRANCH  23  24
ATOM     24  N   UNL     1       2.521   7.615  19.028  0.00  0.00    +0.000 NA
ATOM     25  H   UNL     1       1.845   7.571  19.791  0.00  0.00    +0.000 HD
BRANCH  24  26
ATOM     26  C   UNL     1       2.570   6.322  18.332  0.00  0.00    +0.000 C 
BRANCH  26  27
ATOM     27  C   UNL     1       2.806   5.174  19.315  0.00  0.00    +0.000 C 
ATOM     28 CL   UNL     1       1.517   5.131  20.544  0.00  0.00    +0.000 Cl
ENDBRANCH  26  27
ENDBRANCH  24  26
ENDBRANCH  23  24
ENDBRANCH  11  23
TORSDOF 7
ENDMDL
MODEL 9
REMARK VINA RESULT:      -6.3      3.369      7.227
REMARK  Name = 
REMARK  10 active torsions:
REMARK  status: ('A' for Active; 'I' for Inactive)
REMARK    1  A    between atoms: C_1  and  O_2
REMARK    2  A    between atoms: O_2  and  C_3
REMARK    3  A    between atoms: C_5  and  O_6
REMARK    4  A    between atoms: O_6  and  C_7
REMARK    5  A    between atoms: C_15  and  C_16
REMARK    6  A    between atoms: C_16  and  N_17
REMARK    7  A    between atoms: N_17  and  C_18
REMARK    8  A    between atoms: C_18  and  C_19
REMARK    9  A    between atoms: C_22  and  O_23
REMARK   10  A    between atoms: O_23  and  C_24
REMARK                            x       y       z     vdW  Elec       q    Type
REMARK                         _______ _______ _______ _____ _____    ______ ____
ROOT
ATOM      1  C   UNL     1       4.840   4.493  17.443  0.00  0.00    +0.000 A 
ATOM      2  C   UNL     1       4.528   3.927  18.683  0.00  0.00    +0.000 A 
ATOM      3  C   UNL     1       3.669   4.574  19.582  0.00  0.00    +0.000 A 
ATOM      4  C   UNL     1       3.098   5.805  19.210  0.00  0.00    +0.000 A 
ATOM      5  C   UNL     1       3.455   6.393  17.999  0.00  0.00    +0.000 A 
ATOM      6  C   UNL     1       4.323   5.742  17.112  0.00  0.00    +0.000 A 
ATOM      7  C   UNL     1       2.906   7.710  17.630  0.00  0.00    +0.000 C 
ATOM      8  O   UNL     1       3.134   8.176  16.520  0.00  0.00    +0.000 OA
ATOM      9  C   UNL     1       2.134   8.479  18.633  0.00  0.00    +0.000 A 
ATOM     10  C   UNL     1       1.749   9.786  18.299  0.00  0.00    +0.000 A 
ATOM     11  C   UNL     1       1.028  10.563  19.205  0.00  0.00    +0.000 A 
ATOM     12  C   UNL     1       0.762  10.022  20.467  0.00  0.00    +0.000 A 
ATOM     13  C   UNL     1       1.136   8.709  20.827  0.00  0.00    +0.000 A 
ATOM     14  C   UNL     1       1.792   7.912  19.874  0.00  0.00    +0.000 A 
ATOM     15  C   UNL     1       2.023   6.452  19.994  0.00  0.00    +0.000 C 
ATOM     16  O   UNL     1       1.225   5.752  20.602  0.00  0.00    +0.000 OA
ENDROOT
BRANCH   1  18
ATOM     17  C   UNL     1       5.916   4.220  15.339  0.00  0.00    +0.000 C 
ATOM     18  O   UNL     1       5.655   3.731  16.650  0.00  0.00    +0.000 OA
ENDBRANCH   1  18
BRANCH   3  19
ATOM     19  O   UNL     1       3.363   4.097  20.827  0.00  0.00    +0.000 OA
ATOM     20  C   UNL     1       2.915   2.753  20.944  0.00  0.00    +0.000 C 
ENDBRANCH   3  19
BRANCH  13  21
ATOM     21  O   UNL     1       0.756   8.464  22.116  0.00  0.00    +0.000 OA
ATOM     22  C   UNL     1       0.043   9.413  22.888  0.00  0.00    +0.000 C 
ENDBRANCH  13  21
BRANCH  11  23
ATOM     23  C   UNL     1       0.541  11.943  18.834  0.00  0.00    +0.000 C 
BRANCH  23  24
ATOM     24  N   UNL     1      -0.622  11.862  17.947  0.00  0.00    +0.000 NA
ATOM     25  H   UNL     1      -0.628  10.946  17.499  0.00  0.00    +0.000 HD
BRANCH  24  26
ATOM     26  C   UNL     1      -1.871  12.058  18.695  0.00  0.00    +0.000 C 
BRANCH  26  27
ATOM     27  C   UNL     1      -1.670  13.023  19.865  0.00  0.00    +0.000 C 
ATOM     28 CL   UNL     1      -2.071  12.225  21.407  0.00  0.00    +0.000 Cl
ENDBRANCH  26  27
ENDBRANCH  24  26
ENDBRANCH  23  24
ENDBRANCH  11  23
TORSDOF 7
ENDMDL
