MODEL 1
REMARK VINA RESULT:      -7.6      0.000      0.000
REMARK  Name = 
REMARK  7 active torsions:
REMARK  status: ('A' for Active; 'I' for Inactive)
REMARK    1  A    between atoms: C_1  and  O_2
REMARK    2  A    between atoms: O_2  and  C_3
REMARK    3  A    between atoms: C_6  and  C_7
REMARK    4  A    between atoms: N_9  and  C_10
REMARK    5  A    between atoms: C_13  and  C_14
REMARK    6  A    between atoms: C_14  and  N_15
REMARK    7  A    between atoms: C_22  and  O_23
REMARK                            x       y       z     vdW  Elec       q    Type
REMARK                         _______ _______ _______ _____ _____    ______ ____
ROOT
ATOM      1  C   UNL     1       4.697   6.401  17.249  0.00  0.00    +0.000 C 
ATOM      2  C   UNL     1       6.113   6.389  17.807  0.00  0.00    +0.000 C 
ATOM      3  O   UNL     1       6.285   5.124  18.465  0.00  0.00    +0.000 OA
ATOM      4  C   UNL     1       5.372   4.164  17.866  0.00  0.00    +0.000 C 
ATOM      5  C   UNL     1       4.529   4.936  16.838  0.00  0.00    +0.000 C 
ENDROOT
BRANCH   1   8
ATOM      6  C   UNL     1       2.903   7.926  18.045  0.00  0.00    +0.000 C 
ATOM      7  O   UNL     1       2.923   8.592  17.018  0.00  0.00    +0.000 OA
ATOM      8  N   UNL     1       3.738   6.848  18.263  0.00  0.00    +0.000 N 
ATOM      9  H   UNL     1       3.584   6.252  19.066  0.00  0.00    +0.000 HD
BRANCH   6  13
ATOM     10  C   UNL     1       0.175   8.795  21.258  0.00  0.00    +0.000 A 
ATOM     11  C   UNL     1       0.964   7.644  21.273  0.00  0.00    +0.000 A 
ATOM     12  C   UNL     1       1.835   7.367  20.215  0.00  0.00    +0.000 A 
ATOM     13  C   UNL     1       1.922   8.241  19.124  0.00  0.00    +0.000 A 
ATOM     14  C   UNL     1       1.078   9.359  19.079  0.00  0.00    +0.000 A 
ATOM     15  C   UNL     1       0.210   9.636  20.146  0.00  0.00    +0.000 A 
BRANCH  10  17
ATOM     16  C   UNL     1      -0.352  10.119  23.142  0.00  0.00    +0.000 C 
ATOM     17  O   UNL     1      -0.630   8.968  22.349  0.00  0.00    +0.000 OA
ENDBRANCH  10  17
ENDBRANCH   6  13
ENDBRANCH   1   8
BRANCH   5  18
ATOM     18  O   UNL     1       5.088   4.738  15.526  0.00  0.00    +0.000 OA
ATOM     19  H   UNL     1       6.014   4.445  15.616  0.00  0.00    +0.000 HD
ENDBRANCH   5  18
BRANCH   4  20
ATOM     20  C   UNL     1       4.594   3.483  19.014  0.00  0.00    +0.000 C 
BRANCH  20  21
ATOM     21  N   UNL     1       3.161   3.778  19.125  0.00  0.00    +0.000 NA
ATOM     22  C   UNL     1       2.269   2.864  18.393  0.00  0.00    +0.000 C 
ATOM     23  C   UNL     1       1.254   2.296  19.376  0.00  0.00    +0.000 C 
ATOM     24  C   UNL     1       1.280   3.263  20.528  0.00  0.00    +0.000 C 
ATOM     25  F   UNL     1       0.951   2.651  21.685  0.00  0.00    +0.000 F 
ATOM     26  F   UNL     1       0.399   4.269  20.331  0.00  0.00    +0.000 F 
ATOM     27  C   UNL     1       2.712   3.773  20.539  0.00  0.00    +0.000 C 
ENDBRANCH  20  21
ENDBRANCH   4  20
TORSDOF 6
ENDMDL
MODEL 2
REMARK VINA RESULT:      -7.5      0.358      1.025
REMARK  Name = 
REMARK  7 active torsions:
REMARK  status: ('A' for Active; 'I' for Inactive)
REMARK    1  A    between atoms: C_1  and  O_2
REMARK    2  A    between atoms: O_2  and  C_3
REMARK    3  A    between atoms: C_6  and  C_7
REMARK    4  A    between atoms: N_9  and  C_10
REMARK    5  A    between atoms: C_13  and  C_14
REMARK    6  A    between atoms: C_14  and  N_15
REMARK    7  A    between atoms: C_22  and  O_23
REMARK                            x       y       z     vdW  Elec       q    Type
REMARK                         _______ _______ _______ _____ _____    ______ ____
ROOT
ATOM      1  C   UNL     1       4.821   6.050  17.220  0.00  0.00    +0.000 C 
ATOM      2  C   UNL     1       6.238   5.927  17.761  0.00  0.00    +0.000 C 
ATOM      3  O   UNL     1       6.306   4.671  18.455  0.00  0.00    +0.000 OA
ATOM      4  C   UNL     1       5.302   3.780  17.897  0.00  0.00    +0.000 C 
ATOM      5  C   UNL     1       4.516   4.595  16.856  0.00  0.00    +0.000 C 
ENDROOT
BRANCH   1   8
ATOM      6  C   UNL     1       3.069   7.658  17.944  0.00  0.00    +0.000 C 
ATOM      7  O   UNL     1       3.024   8.203  16.848  0.00  0.00    +0.000 OA
ATOM      8  N   UNL     1       3.921   6.612  18.233  0.00  0.00    +0.000 N 
ATOM      9  H   UNL     1       3.819   6.112  19.106  0.00  0.00    +0.000 HD
BRANCH   6  13
ATOM     10  C   UNL     1       0.322   8.955  20.993  0.00  0.00    +0.000 A 
ATOM     11  C   UNL     1       0.501   9.692  19.821  0.00  0.00    +0.000 A 
ATOM     12  C   UNL     1       1.408   9.266  18.846  0.00  0.00    +0.000 A 
ATOM     13  C   UNL     1       2.152   8.096  19.037  0.00  0.00    +0.000 A 
ATOM     14  C   UNL     1       2.022   7.395  20.243  0.00  0.00    +0.000 A 
ATOM     15  C   UNL     1       1.106   7.822  21.216  0.00  0.00    +0.000 A 
BRANCH  10  17
ATOM     16  C   UNL     1      -0.145   9.619  23.211  0.00  0.00    +0.000 C 
ATOM     17  O   UNL     1      -0.597   9.459  21.869  0.00  0.00    +0.000 OA
ENDBRANCH  10  17
ENDBRANCH   6  13
ENDBRANCH   1   8
BRANCH   5  18
ATOM     18  O   UNL     1       5.034   4.310  15.544  0.00  0.00    +0.000 OA
ATOM     19  H   UNL     1       4.550   4.844  14.888  0.00  0.00    +0.000 HD
ENDBRANCH   5  18
BRANCH   4  20
ATOM     20  C   UNL     1       4.484   3.206  19.075  0.00  0.00    +0.000 C 
BRANCH  20  21
ATOM     21  N   UNL     1       3.094   3.659  19.215  0.00  0.00    +0.000 NA
ATOM     22  C   UNL     1       2.095   2.864  18.482  0.00  0.00    +0.000 C 
ATOM     23  C   UNL     1       1.037   2.395  19.472  0.00  0.00    +0.000 C 
ATOM     24  C   UNL     1       1.188   3.332  20.639  0.00  0.00    +0.000 C 
ATOM     25  F   UNL     1       0.809   2.738  21.791  0.00  0.00    +0.000 F 
ATOM     26  F   UNL     1       0.423   4.433  20.474  0.00  0.00    +0.000 F 
ATOM     27  C   UNL     1       2.668   3.677  20.636  0.00  0.00    +0.000 C 
ENDBRANCH  20  21
ENDBRANCH   4  20
TORSDOF 6
ENDMDL
MODEL 3
REMARK VINA RESULT:      -7.3      1.217      1.369
REMARK  Name = 
REMARK  7 active torsions:
REMARK  status: ('A' for Active; 'I' for Inactive)
REMARK    1  A    between atoms: C_1  and  O_2
REMARK    2  A    between atoms: O_2  and  C_3
REMARK    3  A    between atoms: C_6  and  C_7
REMARK    4  A    between atoms: N_9  and  C_10
REMARK    5  A    between atoms: C_13  and  C_14
REMARK    6  A    between atoms: C_14  and  N_15
REMARK    7  A    between atoms: C_22  and  O_23
REMARK                            x       y       z     vdW  Elec       q    Type
REMARK                         _______ _______ _______ _____ _____    ______ ____
ROOT
ATOM      1  C   UNL     1       5.375   5.540  17.300  0.00  0.00    +0.000 C 
ATOM      2  C   UNL     1       6.277   4.747  18.235  0.00  0.00    +0.000 C 
ATOM      3  O   UNL     1       5.606   3.504  18.495  0.00  0.00    +0.000 OA
ATOM      4  C   UNL     1       4.716   3.216  17.383  0.00  0.00    +0.000 C 
ATOM      5  C   UNL     1       4.792   4.422  16.432  0.00  0.00    +0.000 C 
ENDROOT
BRANCH   1   8
ATOM      6  C   UNL     1       3.657   7.327  17.483  0.00  0.00    +0.000 C 
ATOM      7  O   UNL     1       3.832   7.703  16.331  0.00  0.00    +0.000 OA
ATOM      8  N   UNL     1       4.369   6.292  18.055  0.00  0.00    +0.000 N 
ATOM      9  H   UNL     1       4.089   5.934  18.959  0.00  0.00    +0.000 HD
BRANCH   6  13
ATOM     10  C   UNL     1       0.733   9.169  20.047  0.00  0.00    +0.000 A 
ATOM     11  C   UNL     1       1.455   8.050  20.463  0.00  0.00    +0.000 A 
ATOM     12  C   UNL     1       2.391   7.453  19.614  0.00  0.00    +0.000 A 
ATOM     13  C   UNL     1       2.611   7.970  18.331  0.00  0.00    +0.000 A 
ATOM     14  C   UNL     1       1.836   9.051  17.890  0.00  0.00    +0.000 A 
ATOM     15  C   UNL     1       0.902   9.650  18.749  0.00  0.00    +0.000 A 
BRANCH  10  17
ATOM     16  C   UNL     1      -0.350   8.876  22.126  0.00  0.00    +0.000 C 
ATOM     17  O   UNL     1      -0.146   9.675  20.964  0.00  0.00    +0.000 OA
ENDBRANCH  10  17
ENDBRANCH   6  13
ENDBRANCH   1   8
BRANCH   5  18
ATOM     18  O   UNL     1       5.706   4.121  15.361  0.00  0.00    +0.000 OA
ATOM     19  H   UNL     1       5.318   4.421  14.517  0.00  0.00    +0.000 HD
ENDBRANCH   5  18
BRANCH   4  20
ATOM     20  C   UNL     1       3.324   2.898  17.972  0.00  0.00    +0.000 C 
BRANCH  20  21
ATOM     21  N   UNL     1       2.913   3.639  19.170  0.00  0.00    +0.000 NA
ATOM     22  C   UNL     1       1.556   4.207  19.128  0.00  0.00    +0.000 C 
ATOM     23  C   UNL     1       0.787   3.703  20.342  0.00  0.00    +0.000 C 
ATOM     24  C   UNL     1       1.862   3.261  21.297  0.00  0.00    +0.000 C 
ATOM     25  F   UNL     1       1.420   2.275  22.105  0.00  0.00    +0.000 F 
ATOM     26  F   UNL     1       2.259   4.288  22.081  0.00  0.00    +0.000 F 
ATOM     27  C   UNL     1       2.985   2.792  20.386  0.00  0.00    +0.000 C 
ENDBRANCH  20  21
ENDBRANCH   4  20
TORSDOF 6
ENDMDL
MODEL 4
REMARK VINA RESULT:      -7.0      3.109      4.609
REMARK  Name = 
REMARK  7 active torsions:
REMARK  status: ('A' for Active; 'I' for Inactive)
REMARK    1  A    between atoms: C_1  and  O_2
REMARK    2  A    between atoms: O_2  and  C_3
REMARK    3  A    between atoms: C_6  and  C_7
REMARK    4  A    between atoms: N_9  and  C_10
REMARK    5  A    between atoms: C_13  and  C_14
REMARK    6  A    between atoms: C_14  and  N_15
REMARK    7  A    between atoms: C_22  and  O_23
REMARK                            x       y       z     vdW  Elec       q    Type
REMARK                         _______ _______ _______ _____ _____    ______ ____
ROOT
ATOM      1  C   UNL     1       3.006   3.409  20.015  0.00  0.00    +0.000 C 
ATOM      2  C   UNL     1       2.079   2.341  19.454  0.00  0.00    +0.000 C 
ATOM      3  O   UNL     1       2.283   2.324  18.033  0.00  0.00    +0.000 OA
ATOM      4  C   UNL     1       3.619   2.824  17.752  0.00  0.00    +0.000 C 
ATOM      5  C   UNL     1       4.223   3.256  19.099  0.00  0.00    +0.000 C 
ENDROOT
BRANCH   1   8
ATOM      6  C   UNL     1       3.120   5.877  19.743  0.00  0.00    +0.000 C 
ATOM      7  O   UNL     1       4.338   5.873  19.620  0.00  0.00    +0.000 OA
ATOM      8  N   UNL     1       2.378   4.732  19.955  0.00  0.00    +0.000 N 
ATOM      9  H   UNL     1       1.369   4.776  19.911  0.00  0.00    +0.000 HD
BRANCH   6  13
ATOM     10  C   UNL     1       0.873   9.520  19.289  0.00  0.00    +0.000 A 
ATOM     11  C   UNL     1       1.593   8.978  18.223  0.00  0.00    +0.000 A 
ATOM     12  C   UNL     1       2.331   7.802  18.390  0.00  0.00    +0.000 A 
ATOM     13  C   UNL     1       2.359   7.156  19.631  0.00  0.00    +0.000 A 
ATOM     14  C   UNL     1       1.691   7.738  20.717  0.00  0.00    +0.000 A 
ATOM     15  C   UNL     1       0.948   8.915  20.544  0.00  0.00    +0.000 A 
BRANCH  10  17
ATOM     16  C   UNL     1      -0.978  10.499  18.195  0.00  0.00    +0.000 C 
ATOM     17  O   UNL     1       0.181  10.664  19.008  0.00  0.00    +0.000 OA
ENDBRANCH  10  17
ENDBRANCH   6  13
ENDBRANCH   1   8
BRANCH   5  18
ATOM     18  O   UNL     1       5.069   2.203  19.596  0.00  0.00    +0.000 OA
ATOM     19  H   UNL     1       5.708   1.954  18.902  0.00  0.00    +0.000 HD
ENDBRANCH   5  18
BRANCH   4  20
ATOM     20  C   UNL     1       3.487   3.926  16.677  0.00  0.00    +0.000 C 
BRANCH  20  21
ATOM     21  N   UNL     1       4.720   4.382  16.024  0.00  0.00    +0.000 NA
ATOM     22  C   UNL     1       5.054   5.802  16.226  0.00  0.00    +0.000 C 
ATOM     23  C   UNL     1       6.461   5.885  16.803  0.00  0.00    +0.000 C 
ATOM     24  C   UNL     1       7.076   4.555  16.459  0.00  0.00    +0.000 C 
ATOM     25  F   UNL     1       8.020   4.209  17.359  0.00  0.00    +0.000 F 
ATOM     26  F   UNL     1       7.663   4.598  15.243  0.00  0.00    +0.000 F 
ATOM     27  C   UNL     1       5.896   3.597  16.473  0.00  0.00    +0.000 C 
ENDBRANCH  20  21
ENDBRANCH   4  20
TORSDOF 6
ENDMDL
MODEL 5
REMARK VINA RESULT:      -7.0      3.104      4.642
REMARK  Name = 
REMARK  7 active torsions:
REMARK  status: ('A' for Active; 'I' for Inactive)
REMARK    1  A    between atoms: C_1  and  O_2
REMARK    2  A    between atoms: O_2  and  C_3
REMARK    3  A    between atoms: C_6  and  C_7
REMARK    4  A    between atoms: N_9  and  C_10
REMARK    5  A    between atoms: C_13  and  C_14
REMARK    6  A    between atoms: C_14  and  N_15
REMARK    7  A    between atoms: C_22  and  O_23
REMARK                            x       y       z     vdW  Elec       q    Type
REMARK                         _______ _______ _______ _____ _____    ______ ____
ROOT
ATOM      1  C   UNL     1       2.798   3.340  20.469  0.00  0.00    +0.000 C 
ATOM      2  C   UNL     1       1.860   2.235  20.002  0.00  0.00    +0.000 C 
ATOM      3  O   UNL     1       2.180   1.981  18.625  0.00  0.00    +0.000 OA
ATOM      4  C   UNL     1       3.560   2.372  18.390  0.00  0.00    +0.000 C 
ATOM      5  C   UNL     1       4.074   2.989  19.702  0.00  0.00    +0.000 C 
ENDROOT
BRANCH   1   8
ATOM      6  C   UNL     1       3.073   5.742  19.894  0.00  0.00    +0.000 C 
ATOM      7  O   UNL     1       4.295   5.683  19.949  0.00  0.00    +0.000 OA
ATOM      8  N   UNL     1       2.252   4.661  20.145  0.00  0.00    +0.000 N 
ATOM      9  H   UNL     1       1.262   4.731  19.950  0.00  0.00    +0.000 HD
BRANCH   6  13
ATOM     10  C   UNL     1       1.185   9.481  18.903  0.00  0.00    +0.000 A 
ATOM     11  C   UNL     1       1.113   8.956  20.194  0.00  0.00    +0.000 A 
ATOM     12  C   UNL     1       1.719   7.733  20.497  0.00  0.00    +0.000 A 
ATOM     13  C   UNL     1       2.402   7.017  19.506  0.00  0.00    +0.000 A 
ATOM     14  C   UNL     1       2.414   7.512  18.195  0.00  0.00    +0.000 A 
ATOM     15  C   UNL     1       1.810   8.743  17.897  0.00  0.00    +0.000 A 
BRANCH  10  17
ATOM     16  C   UNL     1       1.395  11.833  18.893  0.00  0.00    +0.000 C 
ATOM     17  O   UNL     1       0.567  10.686  18.725  0.00  0.00    +0.000 OA
ENDBRANCH  10  17
ENDBRANCH   6  13
ENDBRANCH   1   8
BRANCH   5  18
ATOM     18  O   UNL     1       4.816   1.995  20.432  0.00  0.00    +0.000 OA
ATOM     19  H   UNL     1       4.208   1.520  21.029  0.00  0.00    +0.000 HD
ENDBRANCH   5  18
BRANCH   4  20
ATOM     20  C   UNL     1       3.580   3.291  17.149  0.00  0.00    +0.000 C 
BRANCH  20  21
ATOM     21  N   UNL     1       4.812   4.044  16.886  0.00  0.00    +0.000 NA
ATOM     22  C   UNL     1       5.602   3.581  15.734  0.00  0.00    +0.000 C 
ATOM     23  C   UNL     1       5.814   4.760  14.794  0.00  0.00    +0.000 C 
ATOM     24  C   UNL     1       5.567   5.966  15.659  0.00  0.00    +0.000 C 
ATOM     25  F   UNL     1       5.115   7.005  14.926  0.00  0.00    +0.000 F 
ATOM     26  F   UNL     1       6.705   6.359  16.272  0.00  0.00    +0.000 F 
ATOM     27  C   UNL     1       4.533   5.484  16.663  0.00  0.00    +0.000 C 
ENDBRANCH  20  21
ENDBRANCH   4  20
TORSDOF 6
ENDMDL
MODEL 6
REMARK VINA RESULT:      -7.0      3.086      4.474
REMARK  Name = 
REMARK  7 active torsions:
REMARK  status: ('A' for Active; 'I' for Inactive)
REMARK    1  A    between atoms: C_1  and  O_2
REMARK    2  A    between atoms: O_2  and  C_3
REMARK    3  A    between atoms: C_6  and  C_7
REMARK    4  A    between atoms: N_9  and  C_10
REMARK    5  A    between atoms: C_13  and  C_14
REMARK    6  A    between atoms: C_14  and  N_15
REMARK    7  A    between atoms: C_22  and  O_23
REMARK                            x       y       z     vdW  Elec       q    Type
REMARK                         _______ _______ _______ _____ _____    ______ ____
ROOT
ATOM      1  C   UNL     1       3.001   3.519  20.007  0.00  0.00    +0.000 C 
ATOM      2  C   UNL     1       2.084   2.421  19.485  0.00  0.00    +0.000 C 
ATOM      3  O   UNL     1       2.293   2.352  18.066  0.00  0.00    +0.000 OA
ATOM      4  C   UNL     1       3.625   2.853  17.769  0.00  0.00    +0.000 C 
ATOM      5  C   UNL     1       4.221   3.342  19.100  0.00  0.00    +0.000 C 
ENDROOT
BRANCH   1   8
ATOM      6  C   UNL     1       3.096   5.979  19.666  0.00  0.00    +0.000 C 
ATOM      7  O   UNL     1       4.316   5.985  19.572  0.00  0.00    +0.000 OA
ATOM      8  N   UNL     1       2.361   4.833  19.894  0.00  0.00    +0.000 N 
ATOM      9  H   UNL     1       1.353   4.865  19.824  0.00  0.00    +0.000 HD
BRANCH   6  13
ATOM     10  C   UNL     1       0.923   9.678  19.320  0.00  0.00    +0.000 A 
ATOM     11  C   UNL     1       0.943   8.962  20.518  0.00  0.00    +0.000 A 
ATOM     12  C   UNL     1       1.641   7.754  20.611  0.00  0.00    +0.000 A 
ATOM     13  C   UNL     1       2.325   7.246  19.500  0.00  0.00    +0.000 A 
ATOM     14  C   UNL     1       2.246   7.931  18.280  0.00  0.00    +0.000 A 
ATOM     15  C   UNL     1       1.550   9.146  18.193  0.00  0.00    +0.000 A 
BRANCH  10  17
ATOM     16  C   UNL     1       0.312  11.593  20.560  0.00  0.00    +0.000 C 
ATOM     17  O   UNL     1       0.219  10.849  19.348  0.00  0.00    +0.000 OA
ENDBRANCH  10  17
ENDBRANCH   6  13
ENDBRANCH   1   8
BRANCH   5  18
ATOM     18  O   UNL     1       5.075   2.316  19.639  0.00  0.00    +0.000 OA
ATOM     19  H   UNL     1       4.796   2.117  20.552  0.00  0.00    +0.000 HD
ENDBRANCH   5  18
BRANCH   4  20
ATOM     20  C   UNL     1       3.486   3.911  16.652  0.00  0.00    +0.000 C 
BRANCH  20  21
ATOM     21  N   UNL     1       4.720   4.374  16.005  0.00  0.00    +0.000 NA
ATOM     22  C   UNL     1       5.050   5.793  16.216  0.00  0.00    +0.000 C 
ATOM     23  C   UNL     1       6.455   5.877  16.797  0.00  0.00    +0.000 C 
ATOM     24  C   UNL     1       7.074   4.551  16.447  0.00  0.00    +0.000 C 
ATOM     25  F   UNL     1       8.017   4.202  17.348  0.00  0.00    +0.000 F 
ATOM     26  F   UNL     1       7.665   4.602  15.233  0.00  0.00    +0.000 F 
ATOM     27  C   UNL     1       5.897   3.590  16.452  0.00  0.00    +0.000 C 
ENDBRANCH  20  21
ENDBRANCH   4  20
TORSDOF 6
ENDMDL
MODEL 7
REMARK VINA RESULT:      -6.9      0.806      1.002
REMARK  Name = 
REMARK  7 active torsions:
REMARK  status: ('A' for Active; 'I' for Inactive)
REMARK    1  A    between atoms: C_1  and  O_2
REMARK    2  A    between atoms: O_2  and  C_3
REMARK    3  A    between atoms: C_6  and  C_7
REMARK    4  A    between atoms: N_9  and  C_10
REMARK    5  A    between atoms: C_13  and  C_14
REMARK    6  A    between atoms: C_14  and  N_15
REMARK    7  A    between atoms: C_22  and  O_23
REMARK                            x       y       z     vdW  Elec       q    Type
REMARK                         _______ _______ _______ _____ _____    ______ ____
ROOT
ATOM      1  C   UNL     1       4.385   6.687  17.136  0.00  0.00    +0.000 C 
ATOM      2  C   UNL     1       5.845   6.960  17.469  0.00  0.00    +0.000 C 
ATOM      3  O   UNL     1       6.296   5.857  18.271  0.00  0.00    +0.000 OA
ATOM      4  C   UNL     1       5.476   4.696  17.965  0.00  0.00    +0.000 C 
ATOM      5  C   UNL     1       4.397   5.165  16.975  0.00  0.00    +0.000 C 
ENDROOT
BRANCH   1   8
ATOM      6  C   UNL     1       2.629   8.213  18.013  0.00  0.00    +0.000 C 
ATOM      7  O   UNL     1       2.545   8.828  16.958  0.00  0.00    +0.000 OA
ATOM      8  N   UNL     1       3.505   7.164  18.208  0.00  0.00    +0.000 N 
ATOM      9  H   UNL     1       3.435   6.606  19.048  0.00  0.00    +0.000 HD
BRANCH   6  13
ATOM     10  C   UNL     1       0.167   9.185  21.406  0.00  0.00    +0.000 A 
ATOM     11  C   UNL     1       0.989   8.058  21.410  0.00  0.00    +0.000 A 
ATOM     12  C   UNL     1       1.772   7.746  20.295  0.00  0.00    +0.000 A 
ATOM     13  C   UNL     1       1.737   8.561  19.157  0.00  0.00    +0.000 A 
ATOM     14  C   UNL     1       0.859   9.653  19.129  0.00  0.00    +0.000 A 
ATOM     15  C   UNL     1       0.080   9.966  20.253  0.00  0.00    +0.000 A 
BRANCH  10  17
ATOM     16  C   UNL     1      -0.859  10.757  22.840  0.00  0.00    +0.000 C 
ATOM     17  O   UNL     1      -0.544   9.397  22.554  0.00  0.00    +0.000 OA
ENDBRANCH  10  17
ENDBRANCH   6  13
ENDBRANCH   1   8
BRANCH   5  18
ATOM     18  O   UNL     1       4.807   4.828  15.637  0.00  0.00    +0.000 OA
ATOM     19  H   UNL     1       5.780   4.869  15.582  0.00  0.00    +0.000 HD
ENDBRANCH   5  18
BRANCH   4  20
ATOM     20  C   UNL     1       4.969   4.119  19.306  0.00  0.00    +0.000 C 
BRANCH  20  21
ATOM     21  N   UNL     1       3.719   3.349  19.278  0.00  0.00    +0.000 NA
ATOM     22  C   UNL     1       3.543   2.391  20.381  0.00  0.00    +0.000 C 
ATOM     23  C   UNL     1       2.222   2.697  21.075  0.00  0.00    +0.000 C 
ATOM     24  C   UNL     1       1.452   3.495  20.058  0.00  0.00    +0.000 C 
ATOM     25  F   UNL     1       0.585   4.338  20.657  0.00  0.00    +0.000 F 
ATOM     26  F   UNL     1       0.740   2.681  19.248  0.00  0.00    +0.000 F 
ATOM     27  C   UNL     1       2.531   4.239  19.290  0.00  0.00    +0.000 C 
ENDBRANCH  20  21
ENDBRANCH   4  20
TORSDOF 6
ENDMDL
MODEL 8
REMARK VINA RESULT:      -6.9      3.067      4.674
REMARK  Name = 
REMARK  7 active torsions:
REMARK  status: ('A' for Active; 'I' for Inactive)
REMARK    1  A    between atoms: C_1  and  O_2
REMARK    2  A    between atoms: O_2  and  C_3
REMARK    3  A    between atoms: C_6  and  C_7
REMARK    4  A    between atoms: N_9  and  C_10
REMARK    5  A    between atoms: C_13  and  C_14
REMARK    6  A    between atoms: C_14  and  N_15
REMARK    7  A    between atoms: C_22  and  O_23
REMARK                            x       y       z     vdW  Elec       q    Type
REMARK                         _______ _______ _______ _____ _____    ______ ____
ROOT
ATOM      1  C   UNL     1       3.255   3.265  20.071  0.00  0.00    +0.000 C 
ATOM      2  C   UNL     1       2.161   2.293  19.653  0.00  0.00    +0.000 C 
ATOM      3  O   UNL     1       2.417   1.954  18.281  0.00  0.00    +0.000 OA
ATOM      4  C   UNL     1       3.835   2.135  18.015  0.00  0.00    +0.000 C 
ATOM      5  C   UNL     1       4.455   2.713  19.299  0.00  0.00    +0.000 C 
ENDROOT
BRANCH   1   8
ATOM      6  C   UNL     1       2.171   5.448  20.564  0.00  0.00    +0.000 C 
ATOM      7  O   UNL     1       1.755   5.069  21.651  0.00  0.00    +0.000 OA
ATOM      8  N   UNL     1       2.899   4.641  19.712  0.00  0.00    +0.000 N 
ATOM      9  H   UNL     1       3.334   5.045  18.893  0.00  0.00    +0.000 HD
BRANCH   6  13
ATOM     10  C   UNL     1       1.452   9.443  19.134  0.00  0.00    +0.000 A 
ATOM     11  C   UNL     1       2.204   8.534  18.389  0.00  0.00    +0.000 A 
ATOM     12  C   UNL     1       2.442   7.244  18.874  0.00  0.00    +0.000 A 
ATOM     13  C   UNL     1       1.931   6.851  20.116  0.00  0.00    +0.000 A 
ATOM     14  C   UNL     1       1.235   7.786  20.893  0.00  0.00    +0.000 A 
ATOM     15  C   UNL     1       0.993   9.077  20.401  0.00  0.00    +0.000 A 
BRANCH  10  17
ATOM     16  C   UNL     1       0.010  11.283  18.795  0.00  0.00    +0.000 C 
ATOM     17  O   UNL     1       1.274  10.669  18.558  0.00  0.00    +0.000 OA
ENDBRANCH  10  17
ENDBRANCH   6  13
ENDBRANCH   1   8
BRANCH   5  18
ATOM     18  O   UNL     1       5.060   1.645  20.052  0.00  0.00    +0.000 OA
ATOM     19  H   UNL     1       4.357   1.105  20.459  0.00  0.00    +0.000 HD
ENDBRANCH   5  18
BRANCH   4  20
ATOM     20  C   UNL     1       3.963   3.004  16.744  0.00  0.00    +0.000 C 
BRANCH  20  21
ATOM     21  N   UNL     1       5.054   3.984  16.705  0.00  0.00    +0.000 NA
ATOM     22  C   UNL     1       5.944   3.892  15.536  0.00  0.00    +0.000 C 
ATOM     23  C   UNL     1       5.977   5.252  14.850  0.00  0.00    +0.000 C 
ATOM     24  C   UNL     1       5.502   6.207  15.911  0.00  0.00    +0.000 C 
ATOM     25  F   UNL     1       4.899   7.283  15.362  0.00  0.00    +0.000 F 
ATOM     26  F   UNL     1       6.538   6.652  16.656  0.00  0.00    +0.000 F 
ATOM     27  C   UNL     1       4.538   5.375  16.741  0.00  0.00    +0.000 C 
ENDBRANCH  20  21
ENDBRANCH   4  20
TORSDOF 6
ENDMDL
MODEL 9
REMARK VINA RESULT:      -6.9      3.092      4.772
REMARK  Name = 
REMARK  7 active torsions:
REMARK  status: ('A' for Active; 'I' for Inactive)
REMARK    1  A    between atoms: C_1  and  O_2
REMARK    2  A    between atoms: O_2  and  C_3
REMARK    3  A    between atoms: C_6  and  C_7
REMARK    4  A    between atoms: N_9  and  C_10
REMARK    5  A    between atoms: C_13  and  C_14
REMARK    6  A    between atoms: C_14  and  N_15
REMARK    7  A    between atoms: C_22  and  O_23
REMARK                            x       y       z     vdW  Elec       q    Type
REMARK                         _______ _______ _______ _____ _____    ______ ____
ROOT
ATOM      1  C   UNL     1       2.198   3.393  19.447  0.00  0.00    +0.000 C 
ATOM      2  C   UNL     1       1.537   2.533  18.379  0.00  0.00    +0.000 C 
ATOM      3  O   UNL     1       2.438   2.501  17.262  0.00  0.00    +0.000 OA
ATOM      4  C   UNL     1       3.788   2.739  17.748  0.00  0.00    +0.000 C 
ATOM      5  C   UNL     1       3.671   3.025  19.255  0.00  0.00    +0.000 C 
ENDROOT
BRANCH   1   8
ATOM      6  C   UNL     1       2.075   5.750  20.229  0.00  0.00    +0.000 C 
ATOM      7  O   UNL     1       2.447   5.462  21.359  0.00  0.00    +0.000 OA
ATOM      8  N   UNL     1       1.907   4.814  19.228  0.00  0.00    +0.000 N 
ATOM      9  H   UNL     1       1.733   5.122  18.281  0.00  0.00    +0.000 HD
BRANCH   6  13
ATOM     10  C   UNL     1       1.274   9.809  19.044  0.00  0.00    +0.000 A 
ATOM     11  C   UNL     1       1.909   8.916  18.179  0.00  0.00    +0.000 A 
ATOM     12  C   UNL     1       2.177   7.605  18.584  0.00  0.00    +0.000 A 
ATOM     13  C   UNL     1       1.813   7.173  19.865  0.00  0.00    +0.000 A 
ATOM     14  C   UNL     1       1.238   8.090  20.755  0.00  0.00    +0.000 A 
ATOM     15  C   UNL     1       0.967   9.403  20.343  0.00  0.00    +0.000 A 
BRANCH  10  17
ATOM     16  C   UNL     1       2.217  11.865  18.362  0.00  0.00    +0.000 C 
ATOM     17  O   UNL     1       1.055  11.059  18.539  0.00  0.00    +0.000 OA
ENDBRANCH  10  17
ENDBRANCH   6  13
ENDBRANCH   1   8
BRANCH   5  18
ATOM     18  O   UNL     1       3.964   1.820  19.987  0.00  0.00    +0.000 OA
ATOM     19  H   UNL     1       3.261   1.671  20.647  0.00  0.00    +0.000 HD
ENDBRANCH   5  18
BRANCH   4  20
ATOM     20  C   UNL     1       4.402   3.863  16.885  0.00  0.00    +0.000 C 
BRANCH  20  21
ATOM     21  N   UNL     1       5.714   4.383  17.289  0.00  0.00    +0.000 NA
ATOM     22  C   UNL     1       6.732   4.423  16.226  0.00  0.00    +0.000 C 
ATOM     23  C   UNL     1       7.263   5.846  16.125  0.00  0.00    +0.000 C 
ATOM     24  C   UNL     1       6.897   6.467  17.446  0.00  0.00    +0.000 C 
ATOM     25  F   UNL     1       6.725   7.800  17.325  0.00  0.00    +0.000 F 
ATOM     26  F   UNL     1       7.870   6.260  18.360  0.00  0.00    +0.000 F 
ATOM     27  C   UNL     1       5.610   5.759  17.834  0.00  0.00    +0.000 C 
ENDBRANCH  20  21
ENDBRANCH   4  20
TORSDOF 6
ENDMDL
