MODEL 1
REMARK VINA RESULT:      -6.9      0.000      0.000
REMARK  Name = 
REMARK  7 active torsions:
REMARK  status: ('A' for Active; 'I' for Inactive)
REMARK    1  A    between atoms: C_1  and  O_2
REMARK    2  A    between atoms: O_2  and  C_3
REMARK    3  A    between atoms: C_8  and  O_9
REMARK    4  A    between atoms: O_9  and  C_10
REMARK    5  A    between atoms: C_13  and  C_15
REMARK    6  A    between atoms: C_18  and  S_19
REMARK    7  A    between atoms: S_19  and  N_20
REMARK                            x       y       z     vdW  Elec       q    Type
REMARK                         _______ _______ _______ _____ _____    ______ ____
ROOT
ATOM      1  C   UNL     1      -5.456  11.874  18.996  0.00  0.00    +0.000 A 
ATOM      2  C   UNL     1      -4.672  11.220  18.039  0.00  0.00    +0.000 A 
ATOM      3  C   UNL     1      -3.283  11.323  18.072  0.00  0.00    +0.000 A 
ATOM      4  C   UNL     1      -2.656  12.072  19.077  0.00  0.00    +0.000 A 
ATOM      5  C   UNL     1      -3.440  12.742  20.023  0.00  0.00    +0.000 A 
ATOM      6  C   UNL     1      -4.839  12.640  20.004  0.00  0.00    +0.000 A 
ATOM      7  C   UNL     1      -1.146  12.143  19.100  0.00  0.00    +0.000 C 
ATOM      8  N   UNL     1      -0.509  10.866  18.746  0.00  0.00    +0.000 N 
ATOM      9  C   UNL     1       0.761  10.612  19.285  0.00  0.00    +0.000 C 
ATOM     10  O   UNL     1       1.335  11.447  19.988  0.00  0.00    +0.000 OA
ATOM     11  C   UNL     1      -1.240   9.985  17.827  0.00  0.00    +0.000 C 
ATOM     12  C   UNL     1      -2.406  10.625  17.076  0.00  0.00    +0.000 C 
ENDROOT
BRANCH   9  13
ATOM     13  C   UNL     1       1.504   9.340  19.003  0.00  0.00    +0.000 A 
ATOM     14  C   UNL     1       1.494   8.344  19.998  0.00  0.00    +0.000 A 
ATOM     15  C   UNL     1       2.183   7.138  19.818  0.00  0.00    +0.000 A 
ATOM     16  C   UNL     1       2.895   6.927  18.637  0.00  0.00    +0.000 A 
ATOM     17  C   UNL     1       2.907   7.892  17.635  0.00  0.00    +0.000 A 
ATOM     18  C   UNL     1       2.169   9.064  17.802  0.00  0.00    +0.000 A 
BRANCH  16  19
ATOM     19  S   UNL     1       3.764   5.413  18.369  0.00  0.00    +0.000 S 
ATOM     20  O   UNL     1       4.579   5.542  17.183  0.00  0.00    +0.000 OA
ATOM     21  O   UNL     1       4.287   4.931  19.624  0.00  0.00    +0.000 OA
BRANCH  19  22
ATOM     22  N   UNL     1       2.499   4.394  17.959  0.00  0.00    +0.000 NA
ATOM     23  H   UNL     1       2.852   3.552  17.502  0.00  0.00    +0.000 HD
ATOM     24  H   UNL     1       1.908   4.219  18.771  0.00  0.00    +0.000 HD
ENDBRANCH  19  22
ENDBRANCH  16  19
ENDBRANCH   9  13
BRANCH   1  26
ATOM     25  C   UNL     1      -7.307  10.514  19.596  0.00  0.00    +0.000 C 
ATOM     26  O   UNL     1      -6.797  11.618  18.858  0.00  0.00    +0.000 OA
ENDBRANCH   1  26
BRANCH   6  27
ATOM     27  O   UNL     1      -5.648  13.223  20.944  0.00  0.00    +0.000 OA
ATOM     28  C   UNL     1      -5.447  12.882  22.307  0.00  0.00    +0.000 C 
ENDBRANCH   6  27
TORSDOF 5
ENDMDL
MODEL 2
REMARK VINA RESULT:      -6.9      0.981      1.130
REMARK  Name = 
REMARK  7 active torsions:
REMARK  status: ('A' for Active; 'I' for Inactive)
REMARK    1  A    between atoms: C_1  and  O_2
REMARK    2  A    between atoms: O_2  and  C_3
REMARK    3  A    between atoms: C_8  and  O_9
REMARK    4  A    between atoms: O_9  and  C_10
REMARK    5  A    between atoms: C_13  and  C_15
REMARK    6  A    between atoms: C_18  and  S_19
REMARK    7  A    between atoms: S_19  and  N_20
REMARK                            x       y       z     vdW  Elec       q    Type
REMARK                         _______ _______ _______ _____ _____    ______ ____
ROOT
ATOM      1  C   UNL     1      -5.507  12.248  19.273  0.00  0.00    +0.000 A 
ATOM      2  C   UNL     1      -4.667  11.726  18.283  0.00  0.00    +0.000 A 
ATOM      3  C   UNL     1      -3.284  11.747  18.446  0.00  0.00    +0.000 A 
ATOM      4  C   UNL     1      -2.720  12.278  19.613  0.00  0.00    +0.000 A 
ATOM      5  C   UNL     1      -3.558  12.817  20.597  0.00  0.00    +0.000 A 
ATOM      6  C   UNL     1      -4.952  12.795  20.447  0.00  0.00    +0.000 A 
ATOM      7  C   UNL     1      -1.216  12.263  19.771  0.00  0.00    +0.000 C 
ATOM      8  N   UNL     1      -0.600  11.033  19.251  0.00  0.00    +0.000 N 
ATOM      9  C   UNL     1       0.605  10.623  19.837  0.00  0.00    +0.000 C 
ATOM     10  O   UNL     1       1.148  11.293  20.720  0.00  0.00    +0.000 OA
ATOM     11  C   UNL     1      -1.281  10.363  18.136  0.00  0.00    +0.000 C 
ATOM     12  C   UNL     1      -2.349  11.184  17.417  0.00  0.00    +0.000 C 
ENDROOT
BRANCH   9  13
ATOM     13  C   UNL     1       1.321   9.379  19.398  0.00  0.00    +0.000 A 
ATOM     14  C   UNL     1       1.424   8.324  20.323  0.00  0.00    +0.000 A 
ATOM     15  C   UNL     1       2.096   7.140  19.994  0.00  0.00    +0.000 A 
ATOM     16  C   UNL     1       2.678   7.011  18.733  0.00  0.00    +0.000 A 
ATOM     17  C   UNL     1       2.576   8.037  17.798  0.00  0.00    +0.000 A 
ATOM     18  C   UNL     1       1.854   9.187  18.117  0.00  0.00    +0.000 A 
BRANCH  16  19
ATOM     19  S   UNL     1       3.520   5.528  18.277  0.00  0.00    +0.000 S 
ATOM     20  O   UNL     1       4.370   5.115  19.370  0.00  0.00    +0.000 OA
ATOM     21  O   UNL     1       2.595   4.630  17.629  0.00  0.00    +0.000 OA
BRANCH  19  22
ATOM     22  N   UNL     1       4.543   6.102  17.080  0.00  0.00    +0.000 NA
ATOM     23  H   UNL     1       5.330   6.603  17.493  0.00  0.00    +0.000 HD
ATOM     24  H   UNL     1       4.805   5.348  16.447  0.00  0.00    +0.000 HD
ENDBRANCH  19  22
ENDBRANCH  16  19
ENDBRANCH   9  13
BRANCH   1  26
ATOM     25  C   UNL     1      -7.264  12.536  17.702  0.00  0.00    +0.000 C 
ATOM     26  O   UNL     1      -6.839  12.091  18.984  0.00  0.00    +0.000 OA
ENDBRANCH   1  26
BRANCH   6  27
ATOM     27  O   UNL     1      -5.819  13.251  21.406  0.00  0.00    +0.000 OA
ATOM     28  C   UNL     1      -5.450  13.104  22.769  0.00  0.00    +0.000 C 
ENDBRANCH   6  27
TORSDOF 5
ENDMDL
MODEL 3
REMARK VINA RESULT:      -6.9      1.056      1.531
REMARK  Name = 
REMARK  7 active torsions:
REMARK  status: ('A' for Active; 'I' for Inactive)
REMARK    1  A    between atoms: C_1  and  O_2
REMARK    2  A    between atoms: O_2  and  C_3
REMARK    3  A    between atoms: C_8  and  O_9
REMARK    4  A    between atoms: O_9  and  C_10
REMARK    5  A    between atoms: C_13  and  C_15
REMARK    6  A    between atoms: C_18  and  S_19
REMARK    7  A    between atoms: S_19  and  N_20
REMARK                            x       y       z     vdW  Elec       q    Type
REMARK                         _______ _______ _______ _____ _____    ______ ____
ROOT
ATOM      1  C   UNL     1      -5.618  12.168  19.429  0.00  0.00    +0.000 A 
ATOM      2  C   UNL     1      -4.805  11.610  18.437  0.00  0.00    +0.000 A 
ATOM      3  C   UNL     1      -3.417  11.671  18.542  0.00  0.00    +0.000 A 
ATOM      4  C   UNL     1      -2.821  12.279  19.655  0.00  0.00    +0.000 A 
ATOM      5  C   UNL     1      -3.633  12.854  20.639  0.00  0.00    +0.000 A 
ATOM      6  C   UNL     1      -5.032  12.793  20.547  0.00  0.00    +0.000 A 
ATOM      7  C   UNL     1      -1.313  12.307  19.753  0.00  0.00    +0.000 C 
ATOM      8  N   UNL     1      -0.688  11.065  19.277  0.00  0.00    +0.000 N 
ATOM      9  C   UNL     1       0.550  10.715  19.836  0.00  0.00    +0.000 C 
ATOM     10  O   UNL     1       1.109  11.446  20.658  0.00  0.00    +0.000 OA
ATOM     11  C   UNL     1      -1.394  10.317  18.229  0.00  0.00    +0.000 C 
ATOM     12  C   UNL     1      -2.510  11.072  17.509  0.00  0.00    +0.000 C 
ENDROOT
BRANCH   9  13
ATOM     13  C   UNL     1       1.278   9.465  19.438  0.00  0.00    +0.000 A 
ATOM     14  C   UNL     1       1.833   9.416  18.146  0.00  0.00    +0.000 A 
ATOM     15  C   UNL     1       2.508   8.275  17.693  0.00  0.00    +0.000 A 
ATOM     16  C   UNL     1       2.625   7.170  18.537  0.00  0.00    +0.000 A 
ATOM     17  C   UNL     1       2.096   7.202  19.823  0.00  0.00    +0.000 A 
ATOM     18  C   UNL     1       1.477   8.365  20.282  0.00  0.00    +0.000 A 
BRANCH  16  19
ATOM     19  S   UNL     1       3.482   5.720  18.007  0.00  0.00    +0.000 S 
ATOM     20  O   UNL     1       2.525   4.658  17.797  0.00  0.00    +0.000 OA
ATOM     21  O   UNL     1       4.472   6.081  17.022  0.00  0.00    +0.000 OA
BRANCH  19  22
ATOM     22  N   UNL     1       4.321   5.324  19.402  0.00  0.00    +0.000 NA
ATOM     23  H   UNL     1       5.294   5.624  19.330  0.00  0.00    +0.000 HD
ATOM     24  H   UNL     1       3.829   5.675  20.222  0.00  0.00    +0.000 HD
ENDBRANCH  19  22
ENDBRANCH  16  19
ENDBRANCH   9  13
BRANCH   1  26
ATOM     25  C   UNL     1      -7.559  12.780  18.205  0.00  0.00    +0.000 C 
ATOM     26  O   UNL     1      -6.956  11.965  19.203  0.00  0.00    +0.000 OA
ENDBRANCH   1  26
BRANCH   6  27
ATOM     27  O   UNL     1      -5.871  13.282  21.514  0.00  0.00    +0.000 OA
ATOM     28  C   UNL     1      -6.223  14.657  21.465  0.00  0.00    +0.000 C 
ENDBRANCH   6  27
TORSDOF 5
ENDMDL
MODEL 4
REMARK VINA RESULT:      -6.8      3.849      8.826
REMARK  Name = 
REMARK  7 active torsions:
REMARK  status: ('A' for Active; 'I' for Inactive)
REMARK    1  A    between atoms: C_1  and  O_2
REMARK    2  A    between atoms: O_2  and  C_3
REMARK    3  A    between atoms: C_8  and  O_9
REMARK    4  A    between atoms: O_9  and  C_10
REMARK    5  A    between atoms: C_13  and  C_15
REMARK    6  A    between atoms: C_18  and  S_19
REMARK    7  A    between atoms: S_19  and  N_20
REMARK                            x       y       z     vdW  Elec       q    Type
REMARK                         _______ _______ _______ _____ _____    ______ ____
ROOT
ATOM      1  C   UNL     1       1.453   3.926  19.823  0.00  0.00    +0.000 A 
ATOM      2  C   UNL     1       1.462   5.007  20.710  0.00  0.00    +0.000 A 
ATOM      3  C   UNL     1       1.813   6.281  20.271  0.00  0.00    +0.000 A 
ATOM      4  C   UNL     1       2.147   6.495  18.927  0.00  0.00    +0.000 A 
ATOM      5  C   UNL     1       2.157   5.411  18.041  0.00  0.00    +0.000 A 
ATOM      6  C   UNL     1       1.798   4.125  18.471  0.00  0.00    +0.000 A 
ATOM      7  C   UNL     1       2.499   7.894  18.475  0.00  0.00    +0.000 C 
ATOM      8  N   UNL     1       1.667   8.926  19.112  0.00  0.00    +0.000 N 
ATOM      9  C   UNL     1       1.459  10.113  18.396  0.00  0.00    +0.000 C 
ATOM     10  O   UNL     1       1.991  10.300  17.299  0.00  0.00    +0.000 OA
ATOM     11  C   UNL     1       1.159   8.639  20.459  0.00  0.00    +0.000 C 
ATOM     12  C   UNL     1       1.820   7.469  21.186  0.00  0.00    +0.000 C 
ENDROOT
BRANCH   9  13
ATOM     13  C   UNL     1       0.620  11.233  18.938  0.00  0.00    +0.000 A 
ATOM     14  C   UNL     1       1.281  12.284  19.599  0.00  0.00    +0.000 A 
ATOM     15  C   UNL     1       0.565  13.354  20.151  0.00  0.00    +0.000 A 
ATOM     16  C   UNL     1      -0.826  13.369  20.050  0.00  0.00    +0.000 A 
ATOM     17  C   UNL     1      -1.500  12.346  19.389  0.00  0.00    +0.000 A 
ATOM     18  C   UNL     1      -0.770  11.318  18.792  0.00  0.00    +0.000 A 
BRANCH  16  19
ATOM     19  S   UNL     1      -1.762  14.708  20.721  0.00  0.00    +0.000 S 
ATOM     20  O   UNL     1      -1.752  14.613  22.162  0.00  0.00    +0.000 OA
ATOM     21  O   UNL     1      -1.432  15.924  20.018  0.00  0.00    +0.000 OA
BRANCH  19  22
ATOM     22  N   UNL     1      -3.309  14.284  20.235  0.00  0.00    +0.000 NA
ATOM     23  H   UNL     1      -3.315  14.028  19.247  0.00  0.00    +0.000 HD
ATOM     24  H   UNL     1      -3.694  13.576  20.858  0.00  0.00    +0.000 HD
ENDBRANCH  19  22
ENDBRANCH  16  19
ENDBRANCH   9  13
BRANCH   1  26
ATOM     25  C   UNL     1       1.606   2.424  21.655  0.00  0.00    +0.000 C 
ATOM     26  O   UNL     1       1.023   2.759  20.402  0.00  0.00    +0.000 OA
ENDBRANCH   1  26
BRANCH   6  27
ATOM     27  O   UNL     1       1.730   3.044  17.632  0.00  0.00    +0.000 OA
ATOM     28  C   UNL     1       2.843   2.165  17.576  0.00  0.00    +0.000 C 
ENDBRANCH   6  27
TORSDOF 5
ENDMDL
MODEL 5
REMARK VINA RESULT:      -6.8      1.051      1.101
REMARK  Name = 
REMARK  7 active torsions:
REMARK  status: ('A' for Active; 'I' for Inactive)
REMARK    1  A    between atoms: C_1  and  O_2
REMARK    2  A    between atoms: O_2  and  C_3
REMARK    3  A    between atoms: C_8  and  O_9
REMARK    4  A    between atoms: O_9  and  C_10
REMARK    5  A    between atoms: C_13  and  C_15
REMARK    6  A    between atoms: C_18  and  S_19
REMARK    7  A    between atoms: S_19  and  N_20
REMARK                            x       y       z     vdW  Elec       q    Type
REMARK                         _______ _______ _______ _____ _____    ______ ____
ROOT
ATOM      1  C   UNL     1      -5.685  12.290  19.555  0.00  0.00    +0.000 A 
ATOM      2  C   UNL     1      -4.926  11.657  18.566  0.00  0.00    +0.000 A 
ATOM      3  C   UNL     1      -3.534  11.719  18.594  0.00  0.00    +0.000 A 
ATOM      4  C   UNL     1      -2.881  12.405  19.627  0.00  0.00    +0.000 A 
ATOM      5  C   UNL     1      -3.640  13.054  20.607  0.00  0.00    +0.000 A 
ATOM      6  C   UNL     1      -5.042  12.994  20.592  0.00  0.00    +0.000 A 
ATOM      7  C   UNL     1      -1.369  12.432  19.644  0.00  0.00    +0.000 C 
ATOM      8  N   UNL     1      -0.771  11.154  19.230  0.00  0.00    +0.000 N 
ATOM      9  C   UNL     1       0.493  10.841  19.749  0.00  0.00    +0.000 C 
ATOM     10  O   UNL     1       1.095  11.628  20.484  0.00  0.00    +0.000 OA
ATOM     11  C   UNL     1      -1.532  10.335  18.278  0.00  0.00    +0.000 C 
ATOM     12  C   UNL     1      -2.682  11.040  17.563  0.00  0.00    +0.000 C 
ENDROOT
BRANCH   9  13
ATOM     13  C   UNL     1       1.199   9.561  19.408  0.00  0.00    +0.000 A 
ATOM     14  C   UNL     1       1.274   8.572  20.405  0.00  0.00    +0.000 A 
ATOM     15  C   UNL     1       1.935   7.359  20.170  0.00  0.00    +0.000 A 
ATOM     16  C   UNL     1       2.533   7.136  18.929  0.00  0.00    +0.000 A 
ATOM     17  C   UNL     1       2.459   8.096  17.924  0.00  0.00    +0.000 A 
ATOM     18  C   UNL     1       1.747   9.274  18.152  0.00  0.00    +0.000 A 
BRANCH  16  19
ATOM     19  S   UNL     1       3.363   5.615  18.590  0.00  0.00    +0.000 S 
ATOM     20  O   UNL     1       2.481   4.756  17.833  0.00  0.00    +0.000 OA
ATOM     21  O   UNL     1       4.720   5.888  18.185  0.00  0.00    +0.000 OA
BRANCH  19  22
ATOM     22  N   UNL     1       3.450   4.956  20.129  0.00  0.00    +0.000 NA
ATOM     23  H   UNL     1       4.420   4.759  20.378  0.00  0.00    +0.000 HD
ATOM     24  H   UNL     1       2.953   5.546  20.795  0.00  0.00    +0.000 HD
ENDBRANCH  19  22
ENDBRANCH  16  19
ENDBRANCH   9  13
BRANCH   1  26
ATOM     25  C   UNL     1      -7.741  13.019  18.615  0.00  0.00    +0.000 C 
ATOM     26  O   UNL     1      -7.034  12.078  19.414  0.00  0.00    +0.000 OA
ENDBRANCH   1  26
BRANCH   6  27
ATOM     27  O   UNL     1      -5.829  13.557  21.561  0.00  0.00    +0.000 OA
ATOM     28  C   UNL     1      -5.279  13.728  22.859  0.00  0.00    +0.000 C 
ENDBRANCH   6  27
TORSDOF 5
ENDMDL
MODEL 6
REMARK VINA RESULT:      -6.8      0.851      1.362
REMARK  Name = 
REMARK  7 active torsions:
REMARK  status: ('A' for Active; 'I' for Inactive)
REMARK    1  A    between atoms: C_1  and  O_2
REMARK    2  A    between atoms: O_2  and  C_3
REMARK    3  A    between atoms: C_8  and  O_9
REMARK    4  A    between atoms: O_9  and  C_10
REMARK    5  A    between atoms: C_13  and  C_15
REMARK    6  A    between atoms: C_18  and  S_19
REMARK    7  A    between atoms: S_19  and  N_20
REMARK                            x       y       z     vdW  Elec       q    Type
REMARK                         _______ _______ _______ _____ _____    ______ ____
ROOT
ATOM      1  C   UNL     1      -5.369  12.020  18.953  0.00  0.00    +0.000 A 
ATOM      2  C   UNL     1      -4.545  11.388  18.015  0.00  0.00    +0.000 A 
ATOM      3  C   UNL     1      -3.159  11.440  18.141  0.00  0.00    +0.000 A 
ATOM      4  C   UNL     1      -2.575  12.115  19.221  0.00  0.00    +0.000 A 
ATOM      5  C   UNL     1      -3.397  12.764  20.150  0.00  0.00    +0.000 A 
ATOM      6  C   UNL     1      -4.794  12.713  20.037  0.00  0.00    +0.000 A 
ATOM      7  C   UNL     1      -1.068  12.132  19.344  0.00  0.00    +0.000 C 
ATOM      8  N   UNL     1      -0.451  10.853  18.965  0.00  0.00    +0.000 N 
ATOM      9  C   UNL     1       0.772  10.528  19.569  0.00  0.00    +0.000 C 
ATOM     10  O   UNL     1       1.326  11.306  20.349  0.00  0.00    +0.000 OA
ATOM     11  C   UNL     1      -1.148  10.045  17.957  0.00  0.00    +0.000 C 
ATOM     12  C   UNL     1      -2.242  10.763  17.168  0.00  0.00    +0.000 C 
ENDROOT
BRANCH   9  13
ATOM     13  C   UNL     1       1.492   9.246  19.269  0.00  0.00    +0.000 A 
ATOM     14  C   UNL     1       2.122   9.129  18.016  0.00  0.00    +0.000 A 
ATOM     15  C   UNL     1       2.795   7.955  17.654  0.00  0.00    +0.000 A 
ATOM     16  C   UNL     1       2.832   6.885  18.548  0.00  0.00    +0.000 A 
ATOM     17  C   UNL     1       2.227   6.984  19.797  0.00  0.00    +0.000 A 
ATOM     18  C   UNL     1       1.611   8.179  20.168  0.00  0.00    +0.000 A 
BRANCH  16  19
ATOM     19  S   UNL     1       3.683   5.394  18.133  0.00  0.00    +0.000 S 
ATOM     20  O   UNL     1       4.582   5.049  19.210  0.00  0.00    +0.000 OA
ATOM     21  O   UNL     1       2.749   4.451  17.566  0.00  0.00    +0.000 OA
BRANCH  19  22
ATOM     22  N   UNL     1       4.648   5.925  16.870  0.00  0.00    +0.000 NA
ATOM     23  H   UNL     1       5.311   6.628  17.198  0.00  0.00    +0.000 HD
ATOM     24  H   UNL     1       5.073   5.131  16.392  0.00  0.00    +0.000 HD
ENDBRANCH  19  22
ENDBRANCH  16  19
ENDBRANCH   9  13
BRANCH   1  26
ATOM     25  C   UNL     1      -7.210  10.522  19.015  0.00  0.00    +0.000 C 
ATOM     26  O   UNL     1      -6.705  11.818  18.717  0.00  0.00    +0.000 OA
ENDBRANCH   1  26
BRANCH   6  27
ATOM     27  O   UNL     1      -5.644  13.275  20.953  0.00  0.00    +0.000 OA
ATOM     28  C   UNL     1      -5.524  14.665  21.216  0.00  0.00    +0.000 C 
ENDBRANCH   6  27
TORSDOF 5
ENDMDL
MODEL 7
REMARK VINA RESULT:      -6.8      3.556      8.887
REMARK  Name = 
REMARK  7 active torsions:
REMARK  status: ('A' for Active; 'I' for Inactive)
REMARK    1  A    between atoms: C_1  and  O_2
REMARK    2  A    between atoms: O_2  and  C_3
REMARK    3  A    between atoms: C_8  and  O_9
REMARK    4  A    between atoms: O_9  and  C_10
REMARK    5  A    between atoms: C_13  and  C_15
REMARK    6  A    between atoms: C_18  and  S_19
REMARK    7  A    between atoms: S_19  and  N_20
REMARK                            x       y       z     vdW  Elec       q    Type
REMARK                         _______ _______ _______ _____ _____    ______ ____
ROOT
ATOM      1  C   UNL     1       1.667   3.820  19.735  0.00  0.00    +0.000 A 
ATOM      2  C   UNL     1       1.676   4.872  20.656  0.00  0.00    +0.000 A 
ATOM      3  C   UNL     1       1.959   6.172  20.243  0.00  0.00    +0.000 A 
ATOM      4  C   UNL     1       2.223   6.440  18.893  0.00  0.00    +0.000 A 
ATOM      5  C   UNL     1       2.232   5.385  17.973  0.00  0.00    +0.000 A 
ATOM      6  C   UNL     1       1.942   4.074  18.376  0.00  0.00    +0.000 A 
ATOM      7  C   UNL     1       2.502   7.865  18.472  0.00  0.00    +0.000 C 
ATOM      8  N   UNL     1       1.662   8.844  19.179  0.00  0.00    +0.000 N 
ATOM      9  C   UNL     1       1.377  10.044  18.512  0.00  0.00    +0.000 C 
ATOM     10  O   UNL     1       1.852  10.285  17.399  0.00  0.00    +0.000 OA
ATOM     11  C   UNL     1       1.227   8.496  20.537  0.00  0.00    +0.000 C 
ATOM     12  C   UNL     1       1.964   7.331  21.195  0.00  0.00    +0.000 C 
ENDROOT
BRANCH   9  13
ATOM     13  C   UNL     1       0.522  11.113  19.128  0.00  0.00    +0.000 A 
ATOM     14  C   UNL     1      -0.852  11.102  18.827  0.00  0.00    +0.000 A 
ATOM     15  C   UNL     1      -1.711  12.080  19.346  0.00  0.00    +0.000 A 
ATOM     16  C   UNL     1      -1.191  13.081  20.166  0.00  0.00    +0.000 A 
ATOM     17  C   UNL     1       0.163  13.102  20.487  0.00  0.00    +0.000 A 
ATOM     18  C   UNL     1       0.996  12.089  20.012  0.00  0.00    +0.000 A 
BRANCH  16  19
ATOM     19  S   UNL     1      -2.245  14.322  20.851  0.00  0.00    +0.000 S 
ATOM     20  O   UNL     1      -3.621  13.951  20.619  0.00  0.00    +0.000 OA
ATOM     21  O   UNL     1      -1.751  14.708  22.150  0.00  0.00    +0.000 OA
BRANCH  19  22
ATOM     22  N   UNL     1      -1.927  15.607  19.822  0.00  0.00    +0.000 NA
ATOM     23  H   UNL     1      -0.959  15.912  19.922  0.00  0.00    +0.000 HD
ATOM     24  H   UNL     1      -2.201  15.372  18.869  0.00  0.00    +0.000 HD
ENDBRANCH  19  22
ENDBRANCH  16  19
ENDBRANCH   9  13
BRANCH   1  26
ATOM     25  C   UNL     1       1.497   2.495  21.698  0.00  0.00    +0.000 C 
ATOM     26  O   UNL     1       1.308   2.619  20.294  0.00  0.00    +0.000 OA
ENDBRANCH   1  26
BRANCH   6  27
ATOM     27  O   UNL     1       1.875   3.017  17.507  0.00  0.00    +0.000 OA
ATOM     28  C   UNL     1       2.927   2.063  17.526  0.00  0.00    +0.000 C 
ENDBRANCH   6  27
TORSDOF 5
ENDMDL
MODEL 8
REMARK VINA RESULT:      -6.7      3.957      4.992
REMARK  Name = 
REMARK  7 active torsions:
REMARK  status: ('A' for Active; 'I' for Inactive)
REMARK    1  A    between atoms: C_1  and  O_2
REMARK    2  A    between atoms: O_2  and  C_3
REMARK    3  A    between atoms: C_8  and  O_9
REMARK    4  A    between atoms: O_9  and  C_10
REMARK    5  A    between atoms: C_13  and  C_15
REMARK    6  A    between atoms: C_18  and  S_19
REMARK    7  A    between atoms: S_19  and  N_20
REMARK                            x       y       z     vdW  Elec       q    Type
REMARK                         _______ _______ _______ _____ _____    ______ ____
ROOT
ATOM      1  C   UNL     1       0.431  13.530  21.625  0.00  0.00    +0.000 A 
ATOM      2  C   UNL     1      -0.106  12.242  21.719  0.00  0.00    +0.000 A 
ATOM      3  C   UNL     1       0.118  11.307  20.710  0.00  0.00    +0.000 A 
ATOM      4  C   UNL     1       0.899  11.645  19.598  0.00  0.00    +0.000 A 
ATOM      5  C   UNL     1       1.422  12.939  19.494  0.00  0.00    +0.000 A 
ATOM      6  C   UNL     1       1.209  13.887  20.506  0.00  0.00    +0.000 A 
ATOM      7  C   UNL     1       1.145  10.600  18.532  0.00  0.00    +0.000 C 
ATOM      8  N   UNL     1       1.352   9.256  19.090  0.00  0.00    +0.000 N 
ATOM      9  C   UNL     1       2.145   8.369  18.347  0.00  0.00    +0.000 C 
ATOM     10  O   UNL     1       2.609   8.692  17.251  0.00  0.00    +0.000 OA
ATOM     11  C   UNL     1       0.677   8.944  20.356  0.00  0.00    +0.000 C 
ATOM     12  C   UNL     1      -0.426   9.911  20.779  0.00  0.00    +0.000 C 
ENDROOT
BRANCH   9  13
ATOM     13  C   UNL     1       2.436   6.975  18.819  0.00  0.00    +0.000 A 
ATOM     14  C   UNL     1       2.970   6.068  17.886  0.00  0.00    +0.000 A 
ATOM     15  C   UNL     1       3.248   4.743  18.245  0.00  0.00    +0.000 A 
ATOM     16  C   UNL     1       2.981   4.317  19.547  0.00  0.00    +0.000 A 
ATOM     17  C   UNL     1       2.465   5.201  20.489  0.00  0.00    +0.000 A 
ATOM     18  C   UNL     1       2.249   6.533  20.135  0.00  0.00    +0.000 A 
BRANCH  16  19
ATOM     19  S   UNL     1       3.331   2.658  20.040  0.00  0.00    +0.000 S 
ATOM     20  O   UNL     1       3.147   2.543  21.468  0.00  0.00    +0.000 OA
ATOM     21  O   UNL     1       2.730   1.742  19.102  0.00  0.00    +0.000 OA
BRANCH  19  22
ATOM     22  N   UNL     1       4.985   2.594  19.775  0.00  0.00    +0.000 NA
ATOM     23  H   UNL     1       5.325   3.490  19.427  0.00  0.00    +0.000 HD
ATOM     24  H   UNL     1       5.463   2.252  20.607  0.00  0.00    +0.000 HD
ENDBRANCH  19  22
ENDBRANCH  16  19
ENDBRANCH   9  13
BRANCH   1  26
ATOM     25  C   UNL     1      -1.167  14.276  23.216  0.00  0.00    +0.000 C 
ATOM     26  O   UNL     1       0.169  14.302  22.729  0.00  0.00    +0.000 OA
ENDBRANCH   1  26
BRANCH   6  27
ATOM     27  O   UNL     1       1.750  15.145  20.484  0.00  0.00    +0.000 OA
ATOM     28  C   UNL     1       3.149  15.271  20.275  0.00  0.00    +0.000 C 
ENDBRANCH   6  27
TORSDOF 5
ENDMDL
MODEL 9
REMARK VINA RESULT:      -6.7      3.461      4.201
REMARK  Name = 
REMARK  7 active torsions:
REMARK  status: ('A' for Active; 'I' for Inactive)
REMARK    1  A    between atoms: C_1  and  O_2
REMARK    2  A    between atoms: O_2  and  C_3
REMARK    3  A    between atoms: C_8  and  O_9
REMARK    4  A    between atoms: O_9  and  C_10
REMARK    5  A    between atoms: C_13  and  C_15
REMARK    6  A    between atoms: C_18  and  S_19
REMARK    7  A    between atoms: S_19  and  N_20
REMARK                            x       y       z     vdW  Elec       q    Type
REMARK                         _______ _______ _______ _____ _____    ______ ____
ROOT
ATOM      1  C   UNL     1      -0.748  12.986  22.515  0.00  0.00    +0.000 A 
ATOM      2  C   UNL     1      -0.666  11.597  22.651  0.00  0.00    +0.000 A 
ATOM      3  C   UNL     1      -0.463  10.787  21.536  0.00  0.00    +0.000 A 
ATOM      4  C   UNL     1      -0.323  11.361  20.265  0.00  0.00    +0.000 A 
ATOM      5  C   UNL     1      -0.423  12.750  20.125  0.00  0.00    +0.000 A 
ATOM      6  C   UNL     1      -0.621  13.575  21.241  0.00  0.00    +0.000 A 
ATOM      7  C   UNL     1      -0.078  10.457  19.078  0.00  0.00    +0.000 C 
ATOM      8  N   UNL     1       0.821   9.337  19.390  0.00  0.00    +0.000 N 
ATOM      9  C   UNL     1       1.582   8.813  18.335  0.00  0.00    +0.000 C 
ATOM     10  O   UNL     1       1.465   9.246  17.186  0.00  0.00    +0.000 OA
ATOM     11  C   UNL     1       0.816   8.837  20.770  0.00  0.00    +0.000 C 
ATOM     12  C   UNL     1      -0.353   9.295  21.640  0.00  0.00    +0.000 C 
ENDROOT
BRANCH   9  13
ATOM     13  C   UNL     1       2.543   7.677  18.534  0.00  0.00    +0.000 A 
ATOM     14  C   UNL     1       3.616   7.565  17.631  0.00  0.00    +0.000 A 
ATOM     15  C   UNL     1       4.542   6.519  17.738  0.00  0.00    +0.000 A 
ATOM     16  C   UNL     1       4.390   5.572  18.751  0.00  0.00    +0.000 A 
ATOM     17  C   UNL     1       3.343   5.672  19.663  0.00  0.00    +0.000 A 
ATOM     18  C   UNL     1       2.463   6.751  19.581  0.00  0.00    +0.000 A 
BRANCH  16  19
ATOM     19  S   UNL     1       5.545   4.248  18.927  0.00  0.00    +0.000 S 
ATOM     20  O   UNL     1       6.812   4.784  19.367  0.00  0.00    +0.000 OA
ATOM     21  O   UNL     1       4.902   3.134  19.580  0.00  0.00    +0.000 OA
BRANCH  19  22
ATOM     22  N   UNL     1       5.756   3.801  17.325  0.00  0.00    +0.000 NA
ATOM     23  H   UNL     1       6.667   4.109  16.986  0.00  0.00    +0.000 HD
ATOM     24  H   UNL     1       5.575   2.805  17.209  0.00  0.00    +0.000 HD
ENDBRANCH  19  22
ENDBRANCH  16  19
ENDBRANCH   9  13
BRANCH   1  26
ATOM     25  C   UNL     1      -2.176  14.160  24.006  0.00  0.00    +0.000 C 
ATOM     26  O   UNL     1      -0.885  13.637  23.715  0.00  0.00    +0.000 OA
ENDBRANCH   1  26
BRANCH   6  27
ATOM     27  O   UNL     1      -0.662  14.943  21.167  0.00  0.00    +0.000 OA
ATOM     28  C   UNL     1      -0.753  15.544  19.884  0.00  0.00    +0.000 C 
ENDBRANCH   6  27
TORSDOF 5
ENDMDL
