MODEL 1
REMARK VINA RESULT:      -7.9      0.000      0.000
REMARK  Name = 
REMARK  10 active torsions:
REMARK  status: ('A' for Active; 'I' for Inactive)
REMARK    1  A    between atoms: C_2  and  O_3
REMARK    2  A    between atoms: C_2  and  C_4
REMARK    3  A    between atoms: C_7  and  S_8
REMARK    4  A    between atoms: S_8  and  N_11
REMARK    5  A    between atoms: N_11  and  C_12
REMARK    6  A    between atoms: C_12  and  C_13
REMARK    7  A    between atoms: C_12  and  C_21
REMARK    8  A    between atoms: C_13  and  C_14
REMARK    9  A    between atoms: C_17  and  O_18
REMARK   10  A    between atoms: C_21  and  O_23
REMARK                            x       y       z     vdW  Elec       q    Type
REMARK                         _______ _______ _______ _____ _____    ______ ____
ROOT
ATOM      1  N   UNL     1       1.519   4.140  18.584  0.00  0.00    +0.000 NA
ATOM      2  H   UNL     1       1.107   4.599  17.769  0.00  0.00    +0.000 HD
ENDROOT
BRANCH   1   3
ATOM      3  S   UNL     1       2.751   3.068  18.217  0.00  0.00    +0.000 S 
ATOM      4  O   UNL     1       2.522   2.510  16.904  0.00  0.00    +0.000 OA
ATOM      5  O   UNL     1       2.936   2.237  19.383  0.00  0.00    +0.000 OA
BRANCH   3   9
ATOM      6  C   UNL     1       6.342   5.880  17.971  0.00  0.00    +0.000 A 
ATOM      7  C   UNL     1       5.450   5.771  16.893  0.00  0.00    +0.000 A 
ATOM      8  C   UNL     1       4.364   4.897  16.960  0.00  0.00    +0.000 A 
ATOM      9  C   UNL     1       4.176   4.127  18.108  0.00  0.00    +0.000 A 
ATOM     10  C   UNL     1       5.066   4.214  19.186  0.00  0.00    +0.000 A 
ATOM     11  C   UNL     1       6.142   5.105  19.122  0.00  0.00    +0.000 A 
BRANCH   6  13
ATOM     12  O   UNL     1       7.558   7.615  16.898  0.00  0.00    +0.000 OA
ATOM     13  C   UNL     1       7.432   6.885  17.866  0.00  0.00    +0.000 C 
BRANCH  13  14
ATOM     14  O   UNL     1       8.292   6.888  18.904  0.00  0.00    +0.000 OA
ATOM     15  H   UNL     1       9.141   7.344  18.760  0.00  0.00    +0.000 HD
ENDBRANCH  13  14
ENDBRANCH   6  13
ENDBRANCH   3   9
ENDBRANCH   1   3
BRANCH   1  16
ATOM     16  C   UNL     1       1.358   4.730  19.919  0.00  0.00    +0.000 C 
BRANCH  16  17
ATOM     17  C   UNL     1       1.582   3.751  21.077  0.00  0.00    +0.000 C 
ATOM     18  O   UNL     1       2.442   3.886  21.937  0.00  0.00    +0.000 OA
BRANCH  17  19
ATOM     19  O   UNL     1       0.701   2.721  21.107  0.00  0.00    +0.000 OA
ATOM     20  H   UNL     1      -0.088   2.823  20.547  0.00  0.00    +0.000 HD
ENDBRANCH  17  19
ENDBRANCH  16  17
BRANCH  16  21
ATOM     21  C   UNL     1       2.365   5.873  20.166  0.00  0.00    +0.000 C 
BRANCH  21  22
ATOM     22  C   UNL     1       2.177   7.264  19.601  0.00  0.00    +0.000 A 
ATOM     23  C   UNL     1       2.511   7.653  18.298  0.00  0.00    +0.000 A 
ATOM     24  C   UNL     1       2.100   8.903  17.806  0.00  0.00    +0.000 A 
ATOM     25  C   UNL     1       1.361   9.763  18.613  0.00  0.00    +0.000 A 
ATOM     26  C   UNL     1       1.061   9.417  19.920  0.00  0.00    +0.000 A 
ATOM     27  C   UNL     1       1.465   8.177  20.408  0.00  0.00    +0.000 A 
BRANCH  25  28
ATOM     28  O   UNL     1       0.884  10.955  18.155  0.00  0.00    +0.000 OA
ATOM     29  H   UNL     1       1.240  11.118  17.267  0.00  0.00    +0.000 HD
ENDBRANCH  25  28
ENDBRANCH  21  22
ENDBRANCH  16  21
ENDBRANCH   1  16
TORSDOF 10
ENDMDL
MODEL 2
REMARK VINA RESULT:      -7.6      2.047      5.195
REMARK  Name = 
REMARK  10 active torsions:
REMARK  status: ('A' for Active; 'I' for Inactive)
REMARK    1  A    between atoms: C_2  and  O_3
REMARK    2  A    between atoms: C_2  and  C_4
REMARK    3  A    between atoms: C_7  and  S_8
REMARK    4  A    between atoms: S_8  and  N_11
REMARK    5  A    between atoms: N_11  and  C_12
REMARK    6  A    between atoms: C_12  and  C_13
REMARK    7  A    between atoms: C_12  and  C_21
REMARK    8  A    between atoms: C_13  and  C_14
REMARK    9  A    between atoms: C_17  and  O_18
REMARK   10  A    between atoms: C_21  and  O_23
REMARK                            x       y       z     vdW  Elec       q    Type
REMARK                         _______ _______ _______ _____ _____    ______ ____
ROOT
ATOM      1  N   UNL     1       3.744   7.664  16.752  0.00  0.00    +0.000 NA
ATOM      2  H   UNL     1       3.618   8.493  16.167  0.00  0.00    +0.000 HD
ENDROOT
BRANCH   1   3
ATOM      3  S   UNL     1       5.208   6.884  16.530  0.00  0.00    +0.000 S 
ATOM      4  O   UNL     1       6.257   7.648  17.166  0.00  0.00    +0.000 OA
ATOM      5  O   UNL     1       5.269   6.509  15.137  0.00  0.00    +0.000 OA
BRANCH   3   9
ATOM      6  C   UNL     1       4.776   2.986  18.872  0.00  0.00    +0.000 A 
ATOM      7  C   UNL     1       4.331   3.071  17.544  0.00  0.00    +0.000 A 
ATOM      8  C   UNL     1       4.444   4.267  16.834  0.00  0.00    +0.000 A 
ATOM      9  C   UNL     1       5.001   5.382  17.460  0.00  0.00    +0.000 A 
ATOM     10  C   UNL     1       5.436   5.319  18.790  0.00  0.00    +0.000 A 
ATOM     11  C   UNL     1       5.337   4.112  19.491  0.00  0.00    +0.000 A 
BRANCH   6  13
ATOM     12  O   UNL     1       5.015   1.502  20.710  0.00  0.00    +0.000 OA
ATOM     13  C   UNL     1       4.698   1.663  19.544  0.00  0.00    +0.000 C 
BRANCH  13  14
ATOM     14  O   UNL     1       4.294   0.654  18.747  0.00  0.00    +0.000 OA
ATOM     15  H   UNL     1       3.790  -0.060  19.176  0.00  0.00    +0.000 HD
ENDBRANCH  13  14
ENDBRANCH   6  13
ENDBRANCH   3   9
ENDBRANCH   1   3
BRANCH   1  16
ATOM     16  C   UNL     1       2.935   7.493  17.966  0.00  0.00    +0.000 C 
BRANCH  16  17
ATOM     17  C   UNL     1       2.091   8.716  18.343  0.00  0.00    +0.000 C 
ATOM     18  O   UNL     1       1.553   8.873  19.431  0.00  0.00    +0.000 OA
BRANCH  17  19
ATOM     19  O   UNL     1       2.022   9.660  17.372  0.00  0.00    +0.000 OA
ATOM     20  H   UNL     1       2.834   9.789  16.850  0.00  0.00    +0.000 HD
ENDBRANCH  17  19
ENDBRANCH  16  17
BRANCH  16  21
ATOM     21  C   UNL     1       1.920   6.341  17.820  0.00  0.00    +0.000 C 
BRANCH  21  22
ATOM     22  C   UNL     1       1.683   5.316  18.908  0.00  0.00    +0.000 A 
ATOM     23  C   UNL     1       1.196   4.021  18.698  0.00  0.00    +0.000 A 
ATOM     24  C   UNL     1       1.216   3.080  19.742  0.00  0.00    +0.000 A 
ATOM     25  C   UNL     1       1.718   3.433  20.991  0.00  0.00    +0.000 A 
ATOM     26  C   UNL     1       2.162   4.722  21.233  0.00  0.00    +0.000 A 
ATOM     27  C   UNL     1       2.145   5.655  20.198  0.00  0.00    +0.000 A 
BRANCH  25  28
ATOM     28  O   UNL     1       1.820   2.533  22.010  0.00  0.00    +0.000 OA
ATOM     29  H   UNL     1       2.220   2.969  22.779  0.00  0.00    +0.000 HD
ENDBRANCH  25  28
ENDBRANCH  21  22
ENDBRANCH  16  21
ENDBRANCH   1  16
TORSDOF 10
ENDMDL
MODEL 3
REMARK VINA RESULT:      -7.5      3.135      5.584
REMARK  Name = 
REMARK  10 active torsions:
REMARK  status: ('A' for Active; 'I' for Inactive)
REMARK    1  A    between atoms: C_2  and  O_3
REMARK    2  A    between atoms: C_2  and  C_4
REMARK    3  A    between atoms: C_7  and  S_8
REMARK    4  A    between atoms: S_8  and  N_11
REMARK    5  A    between atoms: N_11  and  C_12
REMARK    6  A    between atoms: C_12  and  C_13
REMARK    7  A    between atoms: C_12  and  C_21
REMARK    8  A    between atoms: C_13  and  C_14
REMARK    9  A    between atoms: C_17  and  O_18
REMARK   10  A    between atoms: C_21  and  O_23
REMARK                            x       y       z     vdW  Elec       q    Type
REMARK                         _______ _______ _______ _____ _____    ______ ____
ROOT
ATOM      1  N   UNL     1       4.721   7.143  17.136  0.00  0.00    +0.000 NA
ATOM      2  H   UNL     1       4.757   7.998  16.578  0.00  0.00    +0.000 HD
ENDROOT
BRANCH   1   3
ATOM      3  S   UNL     1       6.173   6.315  17.215  0.00  0.00    +0.000 S 
ATOM      4  O   UNL     1       6.155   5.427  18.355  0.00  0.00    +0.000 OA
ATOM      5  O   UNL     1       7.217   7.293  17.020  0.00  0.00    +0.000 OA
BRANCH   3   9
ATOM      6  C   UNL     1       5.995   3.803  13.404  0.00  0.00    +0.000 A 
ATOM      7  C   UNL     1       5.009   3.666  14.392  0.00  0.00    +0.000 A 
ATOM      8  C   UNL     1       5.073   4.418  15.566  0.00  0.00    +0.000 A 
ATOM      9  C   UNL     1       6.133   5.306  15.750  0.00  0.00    +0.000 A 
ATOM     10  C   UNL     1       7.134   5.444  14.779  0.00  0.00    +0.000 A 
ATOM     11  C   UNL     1       7.054   4.701  13.597  0.00  0.00    +0.000 A 
BRANCH   6  13
ATOM     12  O   UNL     1       4.773   3.007  11.530  0.00  0.00    +0.000 OA
ATOM     13  C   UNL     1       5.825   3.030  12.146  0.00  0.00    +0.000 C 
BRANCH  13  14
ATOM     14  O   UNL     1       6.910   2.323  11.772  0.00  0.00    +0.000 OA
ATOM     15  H   UNL     1       6.791   1.714  11.023  0.00  0.00    +0.000 HD
ENDBRANCH  13  14
ENDBRANCH   6  13
ENDBRANCH   3   9
ENDBRANCH   1   3
BRANCH   1  16
ATOM     16  C   UNL     1       3.651   6.956  18.125  0.00  0.00    +0.000 C 
BRANCH  16  17
ATOM     17  C   UNL     1       2.618   8.088  18.163  0.00  0.00    +0.000 C 
ATOM     18  O   UNL     1       2.357   8.814  17.213  0.00  0.00    +0.000 OA
BRANCH  17  19
ATOM     19  O   UNL     1       1.962   8.197  19.344  0.00  0.00    +0.000 OA
ATOM     20  H   UNL     1       2.354   7.714  20.092  0.00  0.00    +0.000 HD
ENDBRANCH  17  19
ENDBRANCH  16  17
BRANCH  16  21
ATOM     21  C   UNL     1       2.830   5.680  17.847  0.00  0.00    +0.000 C 
BRANCH  21  22
ATOM     22  C   UNL     1       2.219   4.844  18.950  0.00  0.00    +0.000 A 
ATOM     23  C   UNL     1       1.381   3.741  18.750  0.00  0.00    +0.000 A 
ATOM     24  C   UNL     1       1.042   2.904  19.827  0.00  0.00    +0.000 A 
ATOM     25  C   UNL     1       1.537   3.171  21.101  0.00  0.00    +0.000 A 
ATOM     26  C   UNL     1       2.330   4.284  21.329  0.00  0.00    +0.000 A 
ATOM     27  C   UNL     1       2.669   5.111  20.261  0.00  0.00    +0.000 A 
BRANCH  25  28
ATOM     28  O   UNL     1       1.291   2.349  22.160  0.00  0.00    +0.000 OA
ATOM     29  H   UNL     1       1.086   2.889  22.939  0.00  0.00    +0.000 HD
ENDBRANCH  25  28
ENDBRANCH  21  22
ENDBRANCH  16  21
ENDBRANCH   1  16
TORSDOF 10
ENDMDL
MODEL 4
REMARK VINA RESULT:      -7.5      2.143      2.630
REMARK  Name = 
REMARK  10 active torsions:
REMARK  status: ('A' for Active; 'I' for Inactive)
REMARK    1  A    between atoms: C_2  and  O_3
REMARK    2  A    between atoms: C_2  and  C_4
REMARK    3  A    between atoms: C_7  and  S_8
REMARK    4  A    between atoms: S_8  and  N_11
REMARK    5  A    between atoms: N_11  and  C_12
REMARK    6  A    between atoms: C_12  and  C_13
REMARK    7  A    between atoms: C_12  and  C_21
REMARK    8  A    between atoms: C_13  and  C_14
REMARK    9  A    between atoms: C_17  and  O_18
REMARK   10  A    between atoms: C_21  and  O_23
REMARK                            x       y       z     vdW  Elec       q    Type
REMARK                         _______ _______ _______ _____ _____    ______ ____
ROOT
ATOM      1  N   UNL     1       3.081   4.392  18.588  0.00  0.00    +0.000 NA
ATOM      2  H   UNL     1       2.920   4.684  17.622  0.00  0.00    +0.000 HD
ENDROOT
BRANCH   1   3
ATOM      3  S   UNL     1       4.697   4.244  19.000  0.00  0.00    +0.000 S 
ATOM      4  O   UNL     1       4.937   2.919  19.523  0.00  0.00    +0.000 OA
ATOM      5  O   UNL     1       5.044   5.436  19.739  0.00  0.00    +0.000 OA
BRANCH   3   9
ATOM      6  C   UNL     1       6.769   4.644  14.949  0.00  0.00    +0.000 A 
ATOM      7  C   UNL     1       5.403   4.330  15.021  0.00  0.00    +0.000 A 
ATOM      8  C   UNL     1       4.773   4.188  16.259  0.00  0.00    +0.000 A 
ATOM      9  C   UNL     1       5.518   4.356  17.426  0.00  0.00    +0.000 A 
ATOM     10  C   UNL     1       6.885   4.655  17.371  0.00  0.00    +0.000 A 
ATOM     11  C   UNL     1       7.507   4.815  16.129  0.00  0.00    +0.000 A 
BRANCH   6  13
ATOM     12  O   UNL     1       8.207   5.705  13.385  0.00  0.00    +0.000 OA
ATOM     13  C   UNL     1       7.358   4.858  13.601  0.00  0.00    +0.000 C 
BRANCH  13  14
ATOM     14  O   UNL     1       6.843   4.072  12.635  0.00  0.00    +0.000 OA
ATOM     15  H   UNL     1       5.977   3.668  12.823  0.00  0.00    +0.000 HD
ENDBRANCH  13  14
ENDBRANCH   6  13
ENDBRANCH   3   9
ENDBRANCH   1   3
BRANCH   1  16
ATOM     16  C   UNL     1       2.023   4.562  19.593  0.00  0.00    +0.000 C 
BRANCH  16  17
ATOM     17  C   UNL     1       1.964   3.450  20.647  0.00  0.00    +0.000 C 
ATOM     18  O   UNL     1       1.666   2.288  20.406  0.00  0.00    +0.000 OA
BRANCH  17  19
ATOM     19  O   UNL     1       2.326   3.849  21.891  0.00  0.00    +0.000 OA
ATOM     20  H   UNL     1       2.534   3.136  22.519  0.00  0.00    +0.000 HD
ENDBRANCH  17  19
ENDBRANCH  16  17
BRANCH  16  21
ATOM     21  C   UNL     1       2.203   5.864  20.400  0.00  0.00    +0.000 C 
BRANCH  21  22
ATOM     22  C   UNL     1       2.053   7.237  19.782  0.00  0.00    +0.000 A 
ATOM     23  C   UNL     1       2.400   7.567  18.467  0.00  0.00    +0.000 A 
ATOM     24  C   UNL     1       2.023   8.807  17.925  0.00  0.00    +0.000 A 
ATOM     25  C   UNL     1       1.303   9.716  18.696  0.00  0.00    +0.000 A 
ATOM     26  C   UNL     1       0.990   9.428  20.013  0.00  0.00    +0.000 A 
ATOM     27  C   UNL     1       1.361   8.198  20.550  0.00  0.00    +0.000 A 
BRANCH  25  28
ATOM     28  O   UNL     1       0.857  10.901  18.189  0.00  0.00    +0.000 OA
ATOM     29  H   UNL     1       1.413  11.620  18.530  0.00  0.00    +0.000 HD
ENDBRANCH  25  28
ENDBRANCH  21  22
ENDBRANCH  16  21
ENDBRANCH   1  16
TORSDOF 10
ENDMDL
MODEL 5
REMARK VINA RESULT:      -7.5      1.088      1.470
REMARK  Name = 
REMARK  10 active torsions:
REMARK  status: ('A' for Active; 'I' for Inactive)
REMARK    1  A    between atoms: C_2  and  O_3
REMARK    2  A    between atoms: C_2  and  C_4
REMARK    3  A    between atoms: C_7  and  S_8
REMARK    4  A    between atoms: S_8  and  N_11
REMARK    5  A    between atoms: N_11  and  C_12
REMARK    6  A    between atoms: C_12  and  C_13
REMARK    7  A    between atoms: C_12  and  C_21
REMARK    8  A    between atoms: C_13  and  C_14
REMARK    9  A    between atoms: C_17  and  O_18
REMARK   10  A    between atoms: C_21  and  O_23
REMARK                            x       y       z     vdW  Elec       q    Type
REMARK                         _______ _______ _______ _____ _____    ______ ____
ROOT
ATOM      1  N   UNL     1       3.210   3.055  19.259  0.00  0.00    +0.000 NA
ATOM      2  H   UNL     1       3.513   2.234  19.788  0.00  0.00    +0.000 HD
ENDROOT
BRANCH   1   3
ATOM      3  S   UNL     1       3.780   3.107  17.686  0.00  0.00    +0.000 S 
ATOM      4  O   UNL     1       2.734   3.594  16.816  0.00  0.00    +0.000 OA
ATOM      5  O   UNL     1       4.454   1.853  17.451  0.00  0.00    +0.000 OA
BRANCH   3   9
ATOM      6  C   UNL     1       6.928   6.410  17.911  0.00  0.00    +0.000 A 
ATOM      7  C   UNL     1       6.210   6.191  16.725  0.00  0.00    +0.000 A 
ATOM      8  C   UNL     1       5.262   5.169  16.649  0.00  0.00    +0.000 A 
ATOM      9  C   UNL     1       5.038   4.362  17.764  0.00  0.00    +0.000 A 
ATOM     10  C   UNL     1       5.757   4.557  18.951  0.00  0.00    +0.000 A 
ATOM     11  C   UNL     1       6.693   5.594  19.027  0.00  0.00    +0.000 A 
BRANCH   6  13
ATOM     12  O   UNL     1       7.915   8.394  17.059  0.00  0.00    +0.000 OA
ATOM     13  C   UNL     1       7.865   7.563  17.949  0.00  0.00    +0.000 C 
BRANCH  13  14
ATOM     14  O   UNL     1       8.683   7.584  19.020  0.00  0.00    +0.000 OA
ATOM     15  H   UNL     1       8.334   8.014  19.821  0.00  0.00    +0.000 HD
ENDBRANCH  13  14
ENDBRANCH   6  13
ENDBRANCH   3   9
ENDBRANCH   1   3
BRANCH   1  16
ATOM     16  C   UNL     1       2.032   3.817  19.698  0.00  0.00    +0.000 C 
BRANCH  16  17
ATOM     17  C   UNL     1       1.168   3.102  20.742  0.00  0.00    +0.000 C 
ATOM     18  O   UNL     1       1.444   3.029  21.932  0.00  0.00    +0.000 OA
BRANCH  17  19
ATOM     19  O   UNL     1       0.017   2.584  20.246  0.00  0.00    +0.000 OA
ATOM     20  H   UNL     1      -0.400   1.890  20.785  0.00  0.00    +0.000 HD
ENDBRANCH  17  19
ENDBRANCH  16  17
BRANCH  16  21
ATOM     21  C   UNL     1       2.428   5.153  20.359  0.00  0.00    +0.000 C 
BRANCH  21  22
ATOM     22  C   UNL     1       2.075   6.498  19.760  0.00  0.00    +0.000 A 
ATOM     23  C   UNL     1       1.547   7.580  20.474  0.00  0.00    +0.000 A 
ATOM     24  C   UNL     1       1.457   8.847  19.874  0.00  0.00    +0.000 A 
ATOM     25  C   UNL     1       1.891   9.032  18.564  0.00  0.00    +0.000 A 
ATOM     26  C   UNL     1       2.374   7.965  17.825  0.00  0.00    +0.000 A 
ATOM     27  C   UNL     1       2.466   6.709  18.420  0.00  0.00    +0.000 A 
BRANCH  25  28
ATOM     28  O   UNL     1       1.886  10.258  17.967  0.00  0.00    +0.000 OA
ATOM     29  H   UNL     1       1.184  10.799  18.361  0.00  0.00    +0.000 HD
ENDBRANCH  25  28
ENDBRANCH  21  22
ENDBRANCH  16  21
ENDBRANCH   1  16
TORSDOF 10
ENDMDL
MODEL 6
REMARK VINA RESULT:      -7.5      0.671      1.297
REMARK  Name = 
REMARK  10 active torsions:
REMARK  status: ('A' for Active; 'I' for Inactive)
REMARK    1  A    between atoms: C_2  and  O_3
REMARK    2  A    between atoms: C_2  and  C_4
REMARK    3  A    between atoms: C_7  and  S_8
REMARK    4  A    between atoms: S_8  and  N_11
REMARK    5  A    between atoms: N_11  and  C_12
REMARK    6  A    between atoms: C_12  and  C_13
REMARK    7  A    between atoms: C_12  and  C_21
REMARK    8  A    between atoms: C_13  and  C_14
REMARK    9  A    between atoms: C_17  and  O_18
REMARK   10  A    between atoms: C_21  and  O_23
REMARK                            x       y       z     vdW  Elec       q    Type
REMARK                         _______ _______ _______ _____ _____    ______ ____
ROOT
ATOM      1  N   UNL     1       1.414   3.820  18.932  0.00  0.00    +0.000 NA
ATOM      2  H   UNL     1       1.001   4.292  18.125  0.00  0.00    +0.000 HD
ENDROOT
BRANCH   1   3
ATOM      3  S   UNL     1       2.589   2.694  18.541  0.00  0.00    +0.000 S 
ATOM      4  O   UNL     1       2.228   2.038  17.305  0.00  0.00    +0.000 OA
ATOM      5  O   UNL     1       2.870   1.955  19.749  0.00  0.00    +0.000 OA
BRANCH   3   9
ATOM      6  C   UNL     1       6.180   5.393  17.713  0.00  0.00    +0.000 A 
ATOM      7  C   UNL     1       5.293   5.052  16.680  0.00  0.00    +0.000 A 
ATOM      8  C   UNL     1       4.208   4.211  16.927  0.00  0.00    +0.000 A 
ATOM      9  C   UNL     1       4.014   3.707  18.214  0.00  0.00    +0.000 A 
ATOM     10  C   UNL     1       4.898   4.026  19.253  0.00  0.00    +0.000 A 
ATOM     11  C   UNL     1       5.974   4.884  19.003  0.00  0.00    +0.000 A 
BRANCH   6  13
ATOM     12  O   UNL     1       7.792   7.051  18.252  0.00  0.00    +0.000 OA
ATOM     13  C   UNL     1       7.270   6.354  17.400  0.00  0.00    +0.000 C 
BRANCH  13  14
ATOM     14  O   UNL     1       7.596   6.422  16.094  0.00  0.00    +0.000 OA
ATOM     15  H   UNL     1       6.943   6.065  15.467  0.00  0.00    +0.000 HD
ENDBRANCH  13  14
ENDBRANCH   6  13
ENDBRANCH   3   9
ENDBRANCH   1   3
BRANCH   1  16
ATOM     16  C   UNL     1       1.315   4.426  20.267  0.00  0.00    +0.000 C 
BRANCH  16  17
ATOM     17  C   UNL     1       1.732   3.501  21.416  0.00  0.00    +0.000 C 
ATOM     18  O   UNL     1       2.709   3.685  22.128  0.00  0.00    +0.000 OA
BRANCH  17  19
ATOM     19  O   UNL     1       0.887   2.461  21.622  0.00  0.00    +0.000 OA
ATOM     20  H   UNL     1       0.662   2.277  22.551  0.00  0.00    +0.000 HD
ENDBRANCH  17  19
ENDBRANCH  16  17
BRANCH  16  21
ATOM     21  C   UNL     1       2.226   5.663  20.404  0.00  0.00    +0.000 C 
BRANCH  21  22
ATOM     22  C   UNL     1       1.971   6.953  19.654  0.00  0.00    +0.000 A 
ATOM     23  C   UNL     1       1.385   8.098  20.205  0.00  0.00    +0.000 A 
ATOM     24  C   UNL     1       1.390   9.309  19.491  0.00  0.00    +0.000 A 
ATOM     25  C   UNL     1       1.978   9.374  18.231  0.00  0.00    +0.000 A 
ATOM     26  C   UNL     1       2.522   8.242  17.649  0.00  0.00    +0.000 A 
ATOM     27  C   UNL     1       2.520   7.042  18.356  0.00  0.00    +0.000 A 
BRANCH  25  28
ATOM     28  O   UNL     1       2.066  10.543  17.534  0.00  0.00    +0.000 OA
ATOM     29  H   UNL     1       3.002  10.750  17.382  0.00  0.00    +0.000 HD
ENDBRANCH  25  28
ENDBRANCH  21  22
ENDBRANCH  16  21
ENDBRANCH   1  16
TORSDOF 10
ENDMDL
MODEL 7
REMARK VINA RESULT:      -7.4      0.472      1.442
REMARK  Name = 
REMARK  10 active torsions:
REMARK  status: ('A' for Active; 'I' for Inactive)
REMARK    1  A    between atoms: C_2  and  O_3
REMARK    2  A    between atoms: C_2  and  C_4
REMARK    3  A    between atoms: C_7  and  S_8
REMARK    4  A    between atoms: S_8  and  N_11
REMARK    5  A    between atoms: N_11  and  C_12
REMARK    6  A    between atoms: C_12  and  C_13
REMARK    7  A    between atoms: C_12  and  C_21
REMARK    8  A    between atoms: C_13  and  C_14
REMARK    9  A    between atoms: C_17  and  O_18
REMARK   10  A    between atoms: C_21  and  O_23
REMARK                            x       y       z     vdW  Elec       q    Type
REMARK                         _______ _______ _______ _____ _____    ______ ____
ROOT
ATOM      1  N   UNL     1       1.405   3.858  18.906  0.00  0.00    +0.000 NA
ATOM      2  H   UNL     1       0.911   4.274  18.115  0.00  0.00    +0.000 HD
ENDROOT
BRANCH   1   3
ATOM      3  S   UNL     1       2.665   2.845  18.472  0.00  0.00    +0.000 S 
ATOM      4  O   UNL     1       2.354   2.211  17.211  0.00  0.00    +0.000 OA
ATOM      5  O   UNL     1       3.008   2.084  19.650  0.00  0.00    +0.000 OA
BRANCH   3   9
ATOM      6  C   UNL     1       6.169   5.671  17.696  0.00  0.00    +0.000 A 
ATOM      7  C   UNL     1       6.081   4.962  18.904  0.00  0.00    +0.000 A 
ATOM      8  C   UNL     1       5.000   4.114  19.151  0.00  0.00    +0.000 A 
ATOM      9  C   UNL     1       4.003   3.981  18.184  0.00  0.00    +0.000 A 
ATOM     10  C   UNL     1       4.068   4.692  16.979  0.00  0.00    +0.000 A 
ATOM     11  C   UNL     1       5.163   5.527  16.730  0.00  0.00    +0.000 A 
BRANCH   6  13
ATOM     12  O   UNL     1       7.790   6.763  16.349  0.00  0.00    +0.000 OA
ATOM     13  C   UNL     1       7.383   6.496  17.466  0.00  0.00    +0.000 C 
BRANCH  13  14
ATOM     14  O   UNL     1       8.019   6.881  18.591  0.00  0.00    +0.000 OA
ATOM     15  H   UNL     1       8.969   6.673  18.642  0.00  0.00    +0.000 HD
ENDBRANCH  13  14
ENDBRANCH   6  13
ENDBRANCH   3   9
ENDBRANCH   1   3
BRANCH   1  16
ATOM     16  C   UNL     1       1.309   4.472  20.237  0.00  0.00    +0.000 C 
BRANCH  16  17
ATOM     17  C   UNL     1       1.717   3.549  21.392  0.00  0.00    +0.000 C 
ATOM     18  O   UNL     1       2.672   3.750  22.130  0.00  0.00    +0.000 OA
BRANCH  17  19
ATOM     19  O   UNL     1       0.889   2.490  21.572  0.00  0.00    +0.000 OA
ATOM     20  H   UNL     1       0.185   2.612  22.233  0.00  0.00    +0.000 HD
ENDBRANCH  17  19
ENDBRANCH  16  17
BRANCH  16  21
ATOM     21  C   UNL     1       2.230   5.702  20.369  0.00  0.00    +0.000 C 
BRANCH  21  22
ATOM     22  C   UNL     1       1.909   7.036  19.730  0.00  0.00    +0.000 A 
ATOM     23  C   UNL     1       1.369   8.138  20.402  0.00  0.00    +0.000 A 
ATOM     24  C   UNL     1       1.310   9.393  19.772  0.00  0.00    +0.000 A 
ATOM     25  C   UNL     1       1.787   9.544  18.473  0.00  0.00    +0.000 A 
ATOM     26  C   UNL     1       2.282   8.456  17.773  0.00  0.00    +0.000 A 
ATOM     27  C   UNL     1       2.344   7.213  18.398  0.00  0.00    +0.000 A 
BRANCH  25  28
ATOM     28  O   UNL     1       1.813  10.756  17.848  0.00  0.00    +0.000 OA
ATOM     29  H   UNL     1       0.914  11.122  17.831  0.00  0.00    +0.000 HD
ENDBRANCH  25  28
ENDBRANCH  21  22
ENDBRANCH  16  21
ENDBRANCH   1  16
TORSDOF 10
ENDMDL
MODEL 8
REMARK VINA RESULT:      -7.4      2.051      5.266
REMARK  Name = 
REMARK  10 active torsions:
REMARK  status: ('A' for Active; 'I' for Inactive)
REMARK    1  A    between atoms: C_2  and  O_3
REMARK    2  A    between atoms: C_2  and  C_4
REMARK    3  A    between atoms: C_7  and  S_8
REMARK    4  A    between atoms: S_8  and  N_11
REMARK    5  A    between atoms: N_11  and  C_12
REMARK    6  A    between atoms: C_12  and  C_13
REMARK    7  A    between atoms: C_12  and  C_21
REMARK    8  A    between atoms: C_13  and  C_14
REMARK    9  A    between atoms: C_17  and  O_18
REMARK   10  A    between atoms: C_21  and  O_23
REMARK                            x       y       z     vdW  Elec       q    Type
REMARK                         _______ _______ _______ _____ _____    ______ ____
ROOT
ATOM      1  N   UNL     1       3.665   7.474  16.817  0.00  0.00    +0.000 NA
ATOM      2  H   UNL     1       3.450   8.250  16.186  0.00  0.00    +0.000 HD
ENDROOT
BRANCH   1   3
ATOM      3  S   UNL     1       5.199   6.836  16.622  0.00  0.00    +0.000 S 
ATOM      4  O   UNL     1       6.154   7.668  17.318  0.00  0.00    +0.000 OA
ATOM      5  O   UNL     1       5.337   6.515  15.221  0.00  0.00    +0.000 OA
BRANCH   3   9
ATOM      6  C   UNL     1       4.839   2.905  18.921  0.00  0.00    +0.000 A 
ATOM      7  C   UNL     1       5.431   4.027  19.520  0.00  0.00    +0.000 A 
ATOM      8  C   UNL     1       5.560   5.223  18.811  0.00  0.00    +0.000 A 
ATOM      9  C   UNL     1       5.098   5.291  17.497  0.00  0.00    +0.000 A 
ATOM     10  C   UNL     1       4.518   4.175  16.879  0.00  0.00    +0.000 A 
ATOM     11  C   UNL     1       4.375   2.985  17.600  0.00  0.00    +0.000 A 
BRANCH   6  13
ATOM     12  O   UNL     1       4.818   1.697  20.965  0.00  0.00    +0.000 OA
ATOM     13  C   UNL     1       4.663   1.688  19.756  0.00  0.00    +0.000 C 
BRANCH  13  14
ATOM     14  O   UNL     1       4.366   0.571  19.062  0.00  0.00    +0.000 OA
ATOM     15  H   UNL     1       4.647  -0.271  19.460  0.00  0.00    +0.000 HD
ENDBRANCH  13  14
ENDBRANCH   6  13
ENDBRANCH   3   9
ENDBRANCH   1   3
BRANCH   1  16
ATOM     16  C   UNL     1       2.885   7.293  18.049  0.00  0.00    +0.000 C 
BRANCH  16  17
ATOM     17  C   UNL     1       2.043   8.510  18.450  0.00  0.00    +0.000 C 
ATOM     18  O   UNL     1       1.635   9.355  17.665  0.00  0.00    +0.000 OA
BRANCH  17  19
ATOM     19  O   UNL     1       1.732   8.555  19.769  0.00  0.00    +0.000 OA
ATOM     20  H   UNL     1       1.739   9.440  20.174  0.00  0.00    +0.000 HD
ENDBRANCH  17  19
ENDBRANCH  16  17
BRANCH  16  21
ATOM     21  C   UNL     1       1.873   6.136  17.922  0.00  0.00    +0.000 C 
BRANCH  21  22
ATOM     22  C   UNL     1       1.664   5.109  19.014  0.00  0.00    +0.000 A 
ATOM     23  C   UNL     1       1.143   3.825  18.818  0.00  0.00    +0.000 A 
ATOM     24  C   UNL     1       1.190   2.877  19.855  0.00  0.00    +0.000 A 
ATOM     25  C   UNL     1       1.752   3.213  21.083  0.00  0.00    +0.000 A 
ATOM     26  C   UNL     1       2.230   4.492  21.313  0.00  0.00    +0.000 A 
ATOM     27  C   UNL     1       2.187   5.431  20.285  0.00  0.00    +0.000 A 
BRANCH  25  28
ATOM     28  O   UNL     1       1.881   2.305  22.093  0.00  0.00    +0.000 OA
ATOM     29  H   UNL     1       2.518   1.624  21.826  0.00  0.00    +0.000 HD
ENDBRANCH  25  28
ENDBRANCH  21  22
ENDBRANCH  16  21
ENDBRANCH   1  16
TORSDOF 10
ENDMDL
MODEL 9
REMARK VINA RESULT:      -7.4      2.764      6.343
REMARK  Name = 
REMARK  10 active torsions:
REMARK  status: ('A' for Active; 'I' for Inactive)
REMARK    1  A    between atoms: C_2  and  O_3
REMARK    2  A    between atoms: C_2  and  C_4
REMARK    3  A    between atoms: C_7  and  S_8
REMARK    4  A    between atoms: S_8  and  N_11
REMARK    5  A    between atoms: N_11  and  C_12
REMARK    6  A    between atoms: C_12  and  C_13
REMARK    7  A    between atoms: C_12  and  C_21
REMARK    8  A    between atoms: C_13  and  C_14
REMARK    9  A    between atoms: C_17  and  O_18
REMARK   10  A    between atoms: C_21  and  O_23
REMARK                            x       y       z     vdW  Elec       q    Type
REMARK                         _______ _______ _______ _____ _____    ______ ____
ROOT
ATOM      1  N   UNL     1       7.241   4.586  16.679  0.00  0.00    +0.000 NA
ATOM      2  H   UNL     1       8.138   4.124  16.514  0.00  0.00    +0.000 HD
ENDROOT
BRANCH   1   3
ATOM      3  S   UNL     1       7.305   5.829  17.798  0.00  0.00    +0.000 S 
ATOM      4  O   UNL     1       7.475   7.085  17.105  0.00  0.00    +0.000 OA
ATOM      5  O   UNL     1       8.206   5.398  18.841  0.00  0.00    +0.000 OA
BRANCH   3   9
ATOM      6  C   UNL     1       3.142   5.868  19.677  0.00  0.00    +0.000 A 
ATOM      7  C   UNL     1       4.100   4.929  20.090  0.00  0.00    +0.000 A 
ATOM      8  C   UNL     1       5.365   4.903  19.503  0.00  0.00    +0.000 A 
ATOM      9  C   UNL     1       5.668   5.818  18.495  0.00  0.00    +0.000 A 
ATOM     10  C   UNL     1       4.719   6.752  18.060  0.00  0.00    +0.000 A 
ATOM     11  C   UNL     1       3.458   6.785  18.665  0.00  0.00    +0.000 A 
BRANCH   6  13
ATOM     12  O   UNL     1       1.129   4.907  20.492  0.00  0.00    +0.000 OA
ATOM     13  C   UNL     1       1.841   5.891  20.397  0.00  0.00    +0.000 C 
BRANCH  13  14
ATOM     14  O   UNL     1       1.497   7.097  20.891  0.00  0.00    +0.000 OA
ATOM     15  H   UNL     1       1.476   7.176  21.861  0.00  0.00    +0.000 HD
ENDBRANCH  13  14
ENDBRANCH   6  13
ENDBRANCH   3   9
ENDBRANCH   1   3
BRANCH   1  16
ATOM     16  C   UNL     1       6.163   4.471  15.688  0.00  0.00    +0.000 C 
BRANCH  16  17
ATOM     17  C   UNL     1       6.642   4.416  14.233  0.00  0.00    +0.000 C 
ATOM     18  O   UNL     1       7.372   5.252  13.717  0.00  0.00    +0.000 OA
BRANCH  17  19
ATOM     19  O   UNL     1       6.227   3.318  13.555  0.00  0.00    +0.000 OA
ATOM     20  H   UNL     1       5.400   3.419  13.054  0.00  0.00    +0.000 HD
ENDBRANCH  17  19
ENDBRANCH  16  17
BRANCH  16  21
ATOM     21  C   UNL     1       5.341   3.180  15.883  0.00  0.00    +0.000 C 
BRANCH  21  22
ATOM     22  C   UNL     1       4.124   3.113  16.781  0.00  0.00    +0.000 A 
ATOM     23  C   UNL     1       2.979   3.905  16.640  0.00  0.00    +0.000 A 
ATOM     24  C   UNL     1       1.823   3.617  17.387  0.00  0.00    +0.000 A 
ATOM     25  C   UNL     1       1.814   2.544  18.273  0.00  0.00    +0.000 A 
ATOM     26  C   UNL     1       2.951   1.776  18.461  0.00  0.00    +0.000 A 
ATOM     27  C   UNL     1       4.096   2.058  17.719  0.00  0.00    +0.000 A 
BRANCH  25  28
ATOM     28  O   UNL     1       0.695   2.187  18.965  0.00  0.00    +0.000 OA
ATOM     29  H   UNL     1       0.464   1.271  18.744  0.00  0.00    +0.000 HD
ENDBRANCH  25  28
ENDBRANCH  21  22
ENDBRANCH  16  21
ENDBRANCH   1  16
TORSDOF 10
ENDMDL
