MODEL 1
REMARK VINA RESULT:      -9.1      0.000      0.000
REMARK  Name = 
REMARK  8 active torsions:
REMARK  status: ('A' for Active; 'I' for Inactive)
REMARK    1  A    between atoms: C_1  and  N_2
REMARK    2  A    between atoms: C_3  and  C_5
REMARK    3  A    between atoms: C_7  and  O_8
REMARK    4  A    between atoms: O_8  and  C_9
REMARK    5  A    between atoms: C_13  and  N_14
REMARK    6  A    between atoms: N_14  and  C_15
REMARK    7  A    between atoms: C_15  and  N_17
REMARK    8  A    between atoms: N_17  and  C_18
REMARK                            x       y       z     vdW  Elec       q    Type
REMARK                         _______ _______ _______ _____ _____    ______ ____
ROOT
ATOM      1  C   UNL     1       4.215   3.993  19.156  0.00  0.00    +0.000 A 
ATOM      2  C   UNL     1       3.333   3.099  18.542  0.00  0.00    +0.000 A 
ATOM      3  C   UNL     1       1.960   3.256  18.694  0.00  0.00    +0.000 A 
ATOM      4  C   UNL     1       1.465   4.336  19.423  0.00  0.00    +0.000 A 
ATOM      5  C   UNL     1       2.343   5.249  20.021  0.00  0.00    +0.000 A 
ATOM      6  C   UNL     1       3.718   5.087  19.863  0.00  0.00    +0.000 A 
ENDROOT
BRANCH   5   7
ATOM      7  N   UNL     1       1.776   6.352  20.677  0.00  0.00    +0.000 N 
ATOM      8  H   UNL     1       1.368   6.169  21.585  0.00  0.00    +0.000 HD
BRANCH   7   9
ATOM      9  C   UNL     1       1.798   7.694  20.355  0.00  0.00    +0.000 C 
ATOM     10  S   UNL     1       1.911   8.371  18.835  0.00  0.00    +0.000 S 
BRANCH   9  11
ATOM     11  N   UNL     1       1.879   8.517  21.459  0.00  0.00    +0.000 N 
ATOM     12  H   UNL     1       2.793   8.589  21.896  0.00  0.00    +0.000 HD
BRANCH  11  13
ATOM     13  C   UNL     1       0.919   9.481  21.831  0.00  0.00    +0.000 A 
ATOM     14  C   UNL     1       0.812  10.652  21.080  0.00  0.00    +0.000 A 
ATOM     15  C   UNL     1      -0.141  11.615  21.436  0.00  0.00    +0.000 A 
ATOM     16  C   UNL     1      -1.010  11.384  22.496  0.00  0.00    +0.000 A 
ATOM     17 CL   UNL     1      -2.199  12.557  22.906  0.00  0.00    +0.000 Cl
ATOM     18  C   UNL     1      -0.928  10.204  23.229  0.00  0.00    +0.000 A 
ATOM     19  C   UNL     1       0.042   9.258  22.900  0.00  0.00    +0.000 A 
ENDBRANCH  11  13
ENDBRANCH   9  11
ENDBRANCH   7   9
ENDBRANCH   5   7
BRANCH   1  20
ATOM     20  O   UNL     1       5.586   3.894  19.068  0.00  0.00    +0.000 OA
BRANCH  20  23
ATOM     21  C   UNL     1       7.002   5.198  15.946  0.00  0.00    +0.000 A 
ATOM     22  C   UNL     1       6.375   4.300  16.793  0.00  0.00    +0.000 A 
ATOM     23  C   UNL     1       6.244   4.658  18.130  0.00  0.00    +0.000 A 
ATOM     24  C   UNL     1       6.825   5.835  18.593  0.00  0.00    +0.000 A 
ATOM     25  C   UNL     1       7.464   6.650  17.676  0.00  0.00    +0.000 A 
ATOM     26  N   UNL     1       7.556   6.374  16.357  0.00  0.00    +0.000 NA
BRANCH  21  29
ATOM     27  C   UNL     1       6.102   3.521  12.683  0.00  0.00    +0.000 C 
ATOM     28  N   UNL     1       6.184   3.923  14.058  0.00  0.00    +0.000 N 
ATOM     29  C   UNL     1       7.054   4.906  14.478  0.00  0.00    +0.000 C 
ATOM     30  O   UNL     1       7.827   5.497  13.731  0.00  0.00    +0.000 OA
ATOM     31  H   UNL     1       5.611   3.485  14.774  0.00  0.00    +0.000 HD
ENDBRANCH  21  29
ENDBRANCH  20  23
ENDBRANCH   1  20
TORSDOF 7
ENDMDL
MODEL 2
REMARK VINA RESULT:      -8.3      4.574      8.404
REMARK  Name = 
REMARK  8 active torsions:
REMARK  status: ('A' for Active; 'I' for Inactive)
REMARK    1  A    between atoms: C_1  and  N_2
REMARK    2  A    between atoms: C_3  and  C_5
REMARK    3  A    between atoms: C_7  and  O_8
REMARK    4  A    between atoms: O_8  and  C_9
REMARK    5  A    between atoms: C_13  and  N_14
REMARK    6  A    between atoms: N_14  and  C_15
REMARK    7  A    between atoms: C_15  and  N_17
REMARK    8  A    between atoms: N_17  and  C_18
REMARK                            x       y       z     vdW  Elec       q    Type
REMARK                         _______ _______ _______ _____ _____    ______ ____
ROOT
ATOM      1  C   UNL     1       2.048   7.551  19.022  0.00  0.00    +0.000 A 
ATOM      2  C   UNL     1       1.845   7.236  20.368  0.00  0.00    +0.000 A 
ATOM      3  C   UNL     1       1.764   5.908  20.771  0.00  0.00    +0.000 A 
ATOM      4  C   UNL     1       1.933   4.890  19.833  0.00  0.00    +0.000 A 
ATOM      5  C   UNL     1       2.160   5.199  18.486  0.00  0.00    +0.000 A 
ATOM      6  C   UNL     1       2.243   6.532  18.089  0.00  0.00    +0.000 A 
ENDROOT
BRANCH   5   7
ATOM      7  N   UNL     1       2.395   4.128  17.612  0.00  0.00    +0.000 N 
ATOM      8  H   UNL     1       1.786   4.069  16.805  0.00  0.00    +0.000 HD
BRANCH   7   9
ATOM      9  C   UNL     1       3.417   3.200  17.584  0.00  0.00    +0.000 C 
ATOM     10  S   UNL     1       3.517   1.775  18.446  0.00  0.00    +0.000 S 
BRANCH   9  11
ATOM     11  N   UNL     1       4.514   3.620  16.860  0.00  0.00    +0.000 N 
ATOM     12  H   UNL     1       4.519   3.375  15.875  0.00  0.00    +0.000 HD
BRANCH  11  13
ATOM     13  C   UNL     1       5.442   4.597  17.277  0.00  0.00    +0.000 A 
ATOM     14  C   UNL     1       5.800   4.656  18.625  0.00  0.00    +0.000 A 
ATOM     15  C   UNL     1       6.724   5.619  19.050  0.00  0.00    +0.000 A 
ATOM     16  C   UNL     1       7.322   6.473  18.131  0.00  0.00    +0.000 A 
ATOM     17 CL   UNL     1       8.480   7.630  18.658  0.00  0.00    +0.000 Cl
ATOM     18  C   UNL     1       6.991   6.398  16.782  0.00  0.00    +0.000 A 
ATOM     19  C   UNL     1       6.046   5.464  16.358  0.00  0.00    +0.000 A 
ENDBRANCH  11  13
ENDBRANCH   9  11
ENDBRANCH   7   9
ENDBRANCH   5   7
BRANCH   1  20
ATOM     20  O   UNL     1       2.121   8.840  18.542  0.00  0.00    +0.000 OA
BRANCH  20  23
ATOM     21  C   UNL     1      -1.109  10.547  18.226  0.00  0.00    +0.000 A 
ATOM     22  C   UNL     1      -0.065   9.706  17.883  0.00  0.00    +0.000 A 
ATOM     23  C   UNL     1       1.042   9.675  18.725  0.00  0.00    +0.000 A 
ATOM     24  C   UNL     1       1.114  10.546  19.808  0.00  0.00    +0.000 A 
ATOM     25  C   UNL     1       0.034  11.376  20.049  0.00  0.00    +0.000 A 
ATOM     26  N   UNL     1      -1.089  11.391  19.298  0.00  0.00    +0.000 NA
BRANCH  21  29
ATOM     27  C   UNL     1      -3.275  10.627  15.133  0.00  0.00    +0.000 C 
ATOM     28  N   UNL     1      -2.177  10.637  16.057  0.00  0.00    +0.000 N 
ATOM     29  C   UNL     1      -2.368  10.519  17.416  0.00  0.00    +0.000 C 
ATOM     30  O   UNL     1      -3.471  10.415  17.943  0.00  0.00    +0.000 OA
ATOM     31  H   UNL     1      -1.218  10.745  15.738  0.00  0.00    +0.000 HD
ENDBRANCH  21  29
ENDBRANCH  20  23
ENDBRANCH   1  20
TORSDOF 7
ENDMDL
MODEL 3
REMARK VINA RESULT:      -8.1      3.716      8.146
REMARK  Name = 
REMARK  8 active torsions:
REMARK  status: ('A' for Active; 'I' for Inactive)
REMARK    1  A    between atoms: C_1  and  N_2
REMARK    2  A    between atoms: C_3  and  C_5
REMARK    3  A    between atoms: C_7  and  O_8
REMARK    4  A    between atoms: O_8  and  C_9
REMARK    5  A    between atoms: C_13  and  N_14
REMARK    6  A    between atoms: N_14  and  C_15
REMARK    7  A    between atoms: C_15  and  N_17
REMARK    8  A    between atoms: N_17  and  C_18
REMARK                            x       y       z     vdW  Elec       q    Type
REMARK                         _______ _______ _______ _____ _____    ______ ____
ROOT
ATOM      1  C   UNL     1       2.516   5.455  19.436  0.00  0.00    +0.000 A 
ATOM      2  C   UNL     1       1.400   4.667  19.732  0.00  0.00    +0.000 A 
ATOM      3  C   UNL     1       1.198   3.463  19.067  0.00  0.00    +0.000 A 
ATOM      4  C   UNL     1       2.138   3.022  18.136  0.00  0.00    +0.000 A 
ATOM      5  C   UNL     1       3.271   3.796  17.853  0.00  0.00    +0.000 A 
ATOM      6  C   UNL     1       3.469   5.000  18.525  0.00  0.00    +0.000 A 
ENDROOT
BRANCH   5   7
ATOM      7  N   UNL     1       4.211   3.256  16.963  0.00  0.00    +0.000 N 
ATOM      8  H   UNL     1       4.009   2.330  16.607  0.00  0.00    +0.000 HD
BRANCH   7   9
ATOM      9  C   UNL     1       5.316   3.832  16.368  0.00  0.00    +0.000 C 
ATOM     10  S   UNL     1       5.551   4.138  14.745  0.00  0.00    +0.000 S 
BRANCH   9  11
ATOM     11  N   UNL     1       6.367   4.022  17.242  0.00  0.00    +0.000 N 
ATOM     12  H   UNL     1       6.900   3.193  17.486  0.00  0.00    +0.000 HD
BRANCH  11  13
ATOM     13  C   UNL     1       6.945   5.267  17.564  0.00  0.00    +0.000 A 
ATOM     14  C   UNL     1       6.689   6.364  16.740  0.00  0.00    +0.000 A 
ATOM     15  C   UNL     1       7.254   7.607  17.053  0.00  0.00    +0.000 A 
ATOM     16  C   UNL     1       8.018   7.762  18.203  0.00  0.00    +0.000 A 
ATOM     17 CL   UNL     1       8.680   9.300  18.597  0.00  0.00    +0.000 Cl
ATOM     18  C   UNL     1       8.251   6.679  19.045  0.00  0.00    +0.000 A 
ATOM     19  C   UNL     1       7.720   5.431  18.720  0.00  0.00    +0.000 A 
ENDBRANCH  11  13
ENDBRANCH   9  11
ENDBRANCH   7   9
ENDBRANCH   5   7
BRANCH   1  20
ATOM     20  O   UNL     1       2.777   6.666  20.038  0.00  0.00    +0.000 OA
BRANCH  20  23
ATOM     21  C   UNL     1       0.559   9.585  19.935  0.00  0.00    +0.000 A 
ATOM     22  C   UNL     1       1.157   8.447  20.448  0.00  0.00    +0.000 A 
ATOM     23  C   UNL     1       2.061   7.771  19.635  0.00  0.00    +0.000 A 
ATOM     24  C   UNL     1       2.259   8.187  18.322  0.00  0.00    +0.000 A 
ATOM     25  C   UNL     1       1.587   9.316  17.888  0.00  0.00    +0.000 A 
ATOM     26  N   UNL     1       0.752  10.042  18.664  0.00  0.00    +0.000 NA
BRANCH  21  29
ATOM     27  C   UNL     1      -1.109  10.719  23.129  0.00  0.00    +0.000 C 
ATOM     28  N   UNL     1      -0.321  10.034  22.144  0.00  0.00    +0.000 N 
ATOM     29  C   UNL     1      -0.325  10.410  20.818  0.00  0.00    +0.000 C 
ATOM     30  O   UNL     1      -1.000  11.332  20.373  0.00  0.00    +0.000 OA
ATOM     31  H   UNL     1       0.259   9.237  22.390  0.00  0.00    +0.000 HD
ENDBRANCH  21  29
ENDBRANCH  20  23
ENDBRANCH   1  20
TORSDOF 7
ENDMDL
MODEL 4
REMARK VINA RESULT:      -8.1      4.935      9.208
REMARK  Name = 
REMARK  8 active torsions:
REMARK  status: ('A' for Active; 'I' for Inactive)
REMARK    1  A    between atoms: C_1  and  N_2
REMARK    2  A    between atoms: C_3  and  C_5
REMARK    3  A    between atoms: C_7  and  O_8
REMARK    4  A    between atoms: O_8  and  C_9
REMARK    5  A    between atoms: C_13  and  N_14
REMARK    6  A    between atoms: N_14  and  C_15
REMARK    7  A    between atoms: C_15  and  N_17
REMARK    8  A    between atoms: N_17  and  C_18
REMARK                            x       y       z     vdW  Elec       q    Type
REMARK                         _______ _______ _______ _____ _____    ______ ____
ROOT
ATOM      1  C   UNL     1       1.321   8.850  19.616  0.00  0.00    +0.000 A 
ATOM      2  C   UNL     1       1.677   9.070  18.282  0.00  0.00    +0.000 A 
ATOM      3  C   UNL     1       2.550   8.200  17.639  0.00  0.00    +0.000 A 
ATOM      4  C   UNL     1       3.033   7.081  18.316  0.00  0.00    +0.000 A 
ATOM      5  C   UNL     1       2.660   6.842  19.645  0.00  0.00    +0.000 A 
ATOM      6  C   UNL     1       1.783   7.716  20.283  0.00  0.00    +0.000 A 
ENDROOT
BRANCH   5   7
ATOM      7  N   UNL     1       3.124   5.659  20.239  0.00  0.00    +0.000 N 
ATOM      8  H   UNL     1       3.793   5.770  20.991  0.00  0.00    +0.000 HD
BRANCH   7   9
ATOM      9  C   UNL     1       2.717   4.351  20.068  0.00  0.00    +0.000 C 
ATOM     10  S   UNL     1       1.300   3.651  20.602  0.00  0.00    +0.000 S 
BRANCH   9  11
ATOM     11  N   UNL     1       3.692   3.545  19.515  0.00  0.00    +0.000 N 
ATOM     12  H   UNL     1       3.654   2.562  19.766  0.00  0.00    +0.000 HD
BRANCH  11  13
ATOM     13  C   UNL     1       4.513   3.891  18.422  0.00  0.00    +0.000 A 
ATOM     14  C   UNL     1       5.811   4.341  18.669  0.00  0.00    +0.000 A 
ATOM     15  C   UNL     1       6.638   4.683  17.592  0.00  0.00    +0.000 A 
ATOM     16  C   UNL     1       6.192   4.523  16.285  0.00  0.00    +0.000 A 
ATOM     17 CL   UNL     1       7.226   4.914  14.968  0.00  0.00    +0.000 Cl
ATOM     18  C   UNL     1       4.909   4.045  16.033  0.00  0.00    +0.000 A 
ATOM     19  C   UNL     1       4.070   3.737  17.103  0.00  0.00    +0.000 A 
ENDBRANCH  11  13
ENDBRANCH   9  11
ENDBRANCH   7   9
ENDBRANCH   5   7
BRANCH   1  20
ATOM     20  O   UNL     1       0.477   9.675  20.327  0.00  0.00    +0.000 OA
BRANCH  20  23
ATOM     21  C   UNL     1      -1.778  11.665  18.228  0.00  0.00    +0.000 A 
ATOM     22  C   UNL     1      -1.197  10.531  18.768  0.00  0.00    +0.000 A 
ATOM     23  C   UNL     1      -0.149  10.708  19.665  0.00  0.00    +0.000 A 
ATOM     24  C   UNL     1       0.345  11.985  19.913  0.00  0.00    +0.000 A 
ATOM     25  C   UNL     1      -0.281  13.055  19.297  0.00  0.00    +0.000 A 
ATOM     26  N   UNL     1      -1.343  12.935  18.471  0.00  0.00    +0.000 NA
BRANCH  21  29
ATOM     27  C   UNL     1      -5.396  11.987  17.192  0.00  0.00    +0.000 C 
ATOM     28  N   UNL     1      -4.146  12.036  17.895  0.00  0.00    +0.000 N 
ATOM     29  C   UNL     1      -2.986  11.524  17.355  0.00  0.00    +0.000 C 
ATOM     30  O   UNL     1      -2.928  10.980  16.257  0.00  0.00    +0.000 OA
ATOM     31  H   UNL     1      -4.077  12.439  18.825  0.00  0.00    +0.000 HD
ENDBRANCH  21  29
ENDBRANCH  20  23
ENDBRANCH   1  20
TORSDOF 7
ENDMDL
MODEL 5
REMARK VINA RESULT:      -8.1      2.224      2.807
REMARK  Name = 
REMARK  8 active torsions:
REMARK  status: ('A' for Active; 'I' for Inactive)
REMARK    1  A    between atoms: C_1  and  N_2
REMARK    2  A    between atoms: C_3  and  C_5
REMARK    3  A    between atoms: C_7  and  O_8
REMARK    4  A    between atoms: O_8  and  C_9
REMARK    5  A    between atoms: C_13  and  N_14
REMARK    6  A    between atoms: N_14  and  C_15
REMARK    7  A    between atoms: C_15  and  N_17
REMARK    8  A    between atoms: N_17  and  C_18
REMARK                            x       y       z     vdW  Elec       q    Type
REMARK                         _______ _______ _______ _____ _____    ______ ____
ROOT
ATOM      1  C   UNL     1       3.132   5.414  18.724  0.00  0.00    +0.000 A 
ATOM      2  C   UNL     1       2.510   5.418  19.976  0.00  0.00    +0.000 A 
ATOM      3  C   UNL     1       1.964   6.593  20.482  0.00  0.00    +0.000 A 
ATOM      4  C   UNL     1       1.998   7.756  19.714  0.00  0.00    +0.000 A 
ATOM      5  C   UNL     1       2.598   7.753  18.449  0.00  0.00    +0.000 A 
ATOM      6  C   UNL     1       3.141   6.572  17.947  0.00  0.00    +0.000 A 
ENDROOT
BRANCH   5   7
ATOM      7  N   UNL     1       2.530   8.938  17.702  0.00  0.00    +0.000 N 
ATOM      8  H   UNL     1       3.068   8.957  16.845  0.00  0.00    +0.000 HD
BRANCH   7   9
ATOM      9  C   UNL     1       1.734  10.055  17.864  0.00  0.00    +0.000 C 
ATOM     10  S   UNL     1       2.232  11.625  18.128  0.00  0.00    +0.000 S 
BRANCH   9  11
ATOM     11  N   UNL     1       0.390   9.758  17.952  0.00  0.00    +0.000 N 
ATOM     12  H   UNL     1       0.128   8.802  17.732  0.00  0.00    +0.000 HD
BRANCH  11  13
ATOM     13  C   UNL     1      -0.579  10.548  18.604  0.00  0.00    +0.000 A 
ATOM     14  C   UNL     1      -0.449  10.781  19.974  0.00  0.00    +0.000 A 
ATOM     15  C   UNL     1      -1.403  11.568  20.632  0.00  0.00    +0.000 A 
ATOM     16  C   UNL     1      -2.440  12.157  19.920  0.00  0.00    +0.000 A 
ATOM     17 CL   UNL     1      -3.588  13.149  20.731  0.00  0.00    +0.000 Cl
ATOM     18  C   UNL     1      -2.557  11.953  18.549  0.00  0.00    +0.000 A 
ATOM     19  C   UNL     1      -1.630  11.142  17.895  0.00  0.00    +0.000 A 
ENDBRANCH  11  13
ENDBRANCH   9  11
ENDBRANCH   7   9
ENDBRANCH   5   7
BRANCH   1  20
ATOM     20  O   UNL     1       3.711   4.298  18.163  0.00  0.00    +0.000 OA
BRANCH  20  23
ATOM     21  C   UNL     1       6.574   4.520  15.882  0.00  0.00    +0.000 A 
ATOM     22  C   UNL     1       5.262   4.324  16.277  0.00  0.00    +0.000 A 
ATOM     23  C   UNL     1       4.979   4.405  17.636  0.00  0.00    +0.000 A 
ATOM     24  C   UNL     1       6.013   4.574  18.552  0.00  0.00    +0.000 A 
ATOM     25  C   UNL     1       7.298   4.724  18.061  0.00  0.00    +0.000 A 
ATOM     26  N   UNL     1       7.610   4.719  16.746  0.00  0.00    +0.000 NA
BRANCH  21  29
ATOM     27  C   UNL     1       6.449   3.514  12.243  0.00  0.00    +0.000 C 
ATOM     28  N   UNL     1       6.253   3.612  13.661  0.00  0.00    +0.000 N 
ATOM     29  C   UNL     1       6.900   4.563  14.421  0.00  0.00    +0.000 C 
ATOM     30  O   UNL     1       7.694   5.378  13.962  0.00  0.00    +0.000 OA
ATOM     31  H   UNL     1       5.639   2.972  14.157  0.00  0.00    +0.000 HD
ENDBRANCH  21  29
ENDBRANCH  20  23
ENDBRANCH   1  20
TORSDOF 7
ENDMDL
MODEL 6
REMARK VINA RESULT:      -8.1      1.776      2.416
REMARK  Name = 
REMARK  8 active torsions:
REMARK  status: ('A' for Active; 'I' for Inactive)
REMARK    1  A    between atoms: C_1  and  N_2
REMARK    2  A    between atoms: C_3  and  C_5
REMARK    3  A    between atoms: C_7  and  O_8
REMARK    4  A    between atoms: O_8  and  C_9
REMARK    5  A    between atoms: C_13  and  N_14
REMARK    6  A    between atoms: N_14  and  C_15
REMARK    7  A    between atoms: C_15  and  N_17
REMARK    8  A    between atoms: N_17  and  C_18
REMARK                            x       y       z     vdW  Elec       q    Type
REMARK                         _______ _______ _______ _____ _____    ______ ____
ROOT
ATOM      1  C   UNL     1       2.965   5.519  18.612  0.00  0.00    +0.000 A 
ATOM      2  C   UNL     1       2.538   5.410  19.938  0.00  0.00    +0.000 A 
ATOM      3  C   UNL     1       2.049   6.526  20.609  0.00  0.00    +0.000 A 
ATOM      4  C   UNL     1       1.942   7.743  19.937  0.00  0.00    +0.000 A 
ATOM      5  C   UNL     1       2.346   7.852  18.600  0.00  0.00    +0.000 A 
ATOM      6  C   UNL     1       2.833   6.730  17.934  0.00  0.00    +0.000 A 
ENDROOT
BRANCH   5   7
ATOM      7  N   UNL     1       2.142   9.087  17.966  0.00  0.00    +0.000 N 
ATOM      8  H   UNL     1       2.465   9.155  17.009  0.00  0.00    +0.000 HD
BRANCH   7   9
ATOM      9  C   UNL     1       1.441  10.202  18.380  0.00  0.00    +0.000 C 
ATOM     10  S   UNL     1       1.999  11.771  18.482  0.00  0.00    +0.000 S 
BRANCH   9  11
ATOM     11  N   UNL     1       0.194   9.903  18.889  0.00  0.00    +0.000 N 
ATOM     12  H   UNL     1      -0.184   8.994  18.642  0.00  0.00    +0.000 HD
BRANCH  11  13
ATOM     13  C   UNL     1      -0.443  10.590  19.944  0.00  0.00    +0.000 A 
ATOM     14  C   UNL     1      -0.052  10.321  21.257  0.00  0.00    +0.000 A 
ATOM     15  C   UNL     1      -0.673  10.999  22.313  0.00  0.00    +0.000 A 
ATOM     16  C   UNL     1      -1.631  11.972  22.056  0.00  0.00    +0.000 A 
ATOM     17 CL   UNL     1      -2.365  12.824  23.358  0.00  0.00    +0.000 Cl
ATOM     18  C   UNL     1      -2.003  12.266  20.747  0.00  0.00    +0.000 A 
ATOM     19  C   UNL     1      -1.412  11.568  19.694  0.00  0.00    +0.000 A 
ENDBRANCH  11  13
ENDBRANCH   9  11
ENDBRANCH   7   9
ENDBRANCH   5   7
BRANCH   1  20
ATOM     20  O   UNL     1       3.478   4.466  17.887  0.00  0.00    +0.000 OA
BRANCH  20  23
ATOM     21  C   UNL     1       6.476   4.595  15.779  0.00  0.00    +0.000 A 
ATOM     22  C   UNL     1       5.141   4.425  16.098  0.00  0.00    +0.000 A 
ATOM     23  C   UNL     1       4.776   4.545  17.435  0.00  0.00    +0.000 A 
ATOM     24  C   UNL     1       5.756   4.726  18.408  0.00  0.00    +0.000 A 
ATOM     25  C   UNL     1       7.070   4.848  17.993  0.00  0.00    +0.000 A 
ATOM     26  N   UNL     1       7.461   4.805  16.700  0.00  0.00    +0.000 NA
BRANCH  21  29
ATOM     27  C   UNL     1       6.562   3.492  12.167  0.00  0.00    +0.000 C 
ATOM     28  N   UNL     1       6.282   3.631  13.568  0.00  0.00    +0.000 N 
ATOM     29  C   UNL     1       6.891   4.596  14.340  0.00  0.00    +0.000 C 
ATOM     30  O   UNL     1       7.719   5.391  13.909  0.00  0.00    +0.000 OA
ATOM     31  H   UNL     1       5.633   3.010  14.042  0.00  0.00    +0.000 HD
ENDBRANCH  21  29
ENDBRANCH  20  23
ENDBRANCH   1  20
TORSDOF 7
ENDMDL
MODEL 7
REMARK VINA RESULT:      -8.0      4.968      9.072
REMARK  Name = 
REMARK  8 active torsions:
REMARK  status: ('A' for Active; 'I' for Inactive)
REMARK    1  A    between atoms: C_1  and  N_2
REMARK    2  A    between atoms: C_3  and  C_5
REMARK    3  A    between atoms: C_7  and  O_8
REMARK    4  A    between atoms: O_8  and  C_9
REMARK    5  A    between atoms: C_13  and  N_14
REMARK    6  A    between atoms: N_14  and  C_15
REMARK    7  A    between atoms: C_15  and  N_17
REMARK    8  A    between atoms: N_17  and  C_18
REMARK                            x       y       z     vdW  Elec       q    Type
REMARK                         _______ _______ _______ _____ _____    ______ ____
ROOT
ATOM      1  C   UNL     1       2.057   7.626  19.160  0.00  0.00    +0.000 A 
ATOM      2  C   UNL     1       1.755   7.251  20.472  0.00  0.00    +0.000 A 
ATOM      3  C   UNL     1       1.729   5.906  20.827  0.00  0.00    +0.000 A 
ATOM      4  C   UNL     1       2.050   4.936  19.878  0.00  0.00    +0.000 A 
ATOM      5  C   UNL     1       2.376   5.307  18.568  0.00  0.00    +0.000 A 
ATOM      6  C   UNL     1       2.403   6.656  18.220  0.00  0.00    +0.000 A 
ENDROOT
BRANCH   5   7
ATOM      7  N   UNL     1       2.760   4.285  17.687  0.00  0.00    +0.000 N 
ATOM      8  H   UNL     1       2.357   4.321  16.759  0.00  0.00    +0.000 HD
BRANCH   7   9
ATOM      9  C   UNL     1       3.715   3.297  17.823  0.00  0.00    +0.000 C 
ATOM     10  S   UNL     1       3.466   1.691  18.201  0.00  0.00    +0.000 S 
BRANCH   9  11
ATOM     11  N   UNL     1       5.007   3.778  17.772  0.00  0.00    +0.000 N 
ATOM     12  H   UNL     1       5.561   3.661  18.615  0.00  0.00    +0.000 HD
BRANCH  11  13
ATOM     13  C   UNL     1       5.706   4.117  16.595  0.00  0.00    +0.000 A 
ATOM     14  C   UNL     1       5.124   3.833  15.358  0.00  0.00    +0.000 A 
ATOM     15  C   UNL     1       5.806   4.169  14.182  0.00  0.00    +0.000 A 
ATOM     16  C   UNL     1       7.026   4.831  14.243  0.00  0.00    +0.000 A 
ATOM     17 CL   UNL     1       7.841   5.270  12.793  0.00  0.00    +0.000 Cl
ATOM     18  C   UNL     1       7.597   5.145  15.473  0.00  0.00    +0.000 A 
ATOM     19  C   UNL     1       6.938   4.780  16.647  0.00  0.00    +0.000 A 
ENDBRANCH  11  13
ENDBRANCH   9  11
ENDBRANCH   7   9
ENDBRANCH   5   7
BRANCH   1  20
ATOM     20  O   UNL     1       2.085   8.933  18.727  0.00  0.00    +0.000 OA
BRANCH  20  23
ATOM     21  C   UNL     1      -1.093  10.741  18.450  0.00  0.00    +0.000 A 
ATOM     22  C   UNL     1      -0.017   9.971  18.044  0.00  0.00    +0.000 A 
ATOM     23  C   UNL     1       0.992   9.734  18.971  0.00  0.00    +0.000 A 
ATOM     24  C   UNL     1       0.946  10.348  20.220  0.00  0.00    +0.000 A 
ATOM     25  C   UNL     1      -0.155  11.131  20.519  0.00  0.00    +0.000 A 
ATOM     26  N   UNL     1      -1.189  11.334  19.674  0.00  0.00    +0.000 NA
BRANCH  21  29
ATOM     27  C   UNL     1      -3.094  10.458  15.258  0.00  0.00    +0.000 C 
ATOM     28  N   UNL     1      -2.077  10.381  16.268  0.00  0.00    +0.000 N 
ATOM     29  C   UNL     1      -2.257  10.918  17.525  0.00  0.00    +0.000 C 
ATOM     30  O   UNL     1      -3.273  11.510  17.873  0.00  0.00    +0.000 OA
ATOM     31  H   UNL     1      -1.181   9.937  16.086  0.00  0.00    +0.000 HD
ENDBRANCH  21  29
ENDBRANCH  20  23
ENDBRANCH   1  20
TORSDOF 7
ENDMDL
MODEL 8
REMARK VINA RESULT:      -8.0      4.907      9.338
REMARK  Name = 
REMARK  8 active torsions:
REMARK  status: ('A' for Active; 'I' for Inactive)
REMARK    1  A    between atoms: C_1  and  N_2
REMARK    2  A    between atoms: C_3  and  C_5
REMARK    3  A    between atoms: C_7  and  O_8
REMARK    4  A    between atoms: O_8  and  C_9
REMARK    5  A    between atoms: C_13  and  N_14
REMARK    6  A    between atoms: N_14  and  C_15
REMARK    7  A    between atoms: C_15  and  N_17
REMARK    8  A    between atoms: N_17  and  C_18
REMARK                            x       y       z     vdW  Elec       q    Type
REMARK                         _______ _______ _______ _____ _____    ______ ____
ROOT
ATOM      1  C   UNL     1       1.441   8.706  19.541  0.00  0.00    +0.000 A 
ATOM      2  C   UNL     1       1.827   8.936  18.217  0.00  0.00    +0.000 A 
ATOM      3  C   UNL     1       2.711   8.068  17.585  0.00  0.00    +0.000 A 
ATOM      4  C   UNL     1       3.173   6.941  18.262  0.00  0.00    +0.000 A 
ATOM      5  C   UNL     1       2.771   6.692  19.581  0.00  0.00    +0.000 A 
ATOM      6  C   UNL     1       1.884   7.564  20.207  0.00  0.00    +0.000 A 
ENDROOT
BRANCH   5   7
ATOM      7  N   UNL     1       3.217   5.501  20.175  0.00  0.00    +0.000 N 
ATOM      8  H   UNL     1       3.388   5.537  21.172  0.00  0.00    +0.000 HD
BRANCH   7   9
ATOM      9  C   UNL     1       3.333   4.228  19.653  0.00  0.00    +0.000 C 
ATOM     10  S   UNL     1       2.149   3.056  19.563  0.00  0.00    +0.000 S 
BRANCH   9  11
ATOM     11  N   UNL     1       4.629   3.894  19.317  0.00  0.00    +0.000 N 
ATOM     12  H   UNL     1       5.083   3.211  19.915  0.00  0.00    +0.000 HD
BRANCH  11  13
ATOM     13  C   UNL     1       5.247   4.165  18.078  0.00  0.00    +0.000 A 
ATOM     14  C   UNL     1       6.559   4.642  18.069  0.00  0.00    +0.000 A 
ATOM     15  C   UNL     1       7.184   4.910  16.845  0.00  0.00    +0.000 A 
ATOM     16  C   UNL     1       6.527   4.653  15.648  0.00  0.00    +0.000 A 
ATOM     17 CL   UNL     1       7.316   4.955  14.150  0.00  0.00    +0.000 Cl
ATOM     18  C   UNL     1       5.230   4.148  15.652  0.00  0.00    +0.000 A 
ATOM     19  C   UNL     1       4.590   3.912  16.868  0.00  0.00    +0.000 A 
ENDBRANCH  11  13
ENDBRANCH   9  11
ENDBRANCH   7   9
ENDBRANCH   5   7
BRANCH   1  20
ATOM     20  O   UNL     1       0.586   9.529  20.240  0.00  0.00    +0.000 OA
BRANCH  20  23
ATOM     21  C   UNL     1      -0.171  12.833  18.842  0.00  0.00    +0.000 A 
ATOM     22  C   UNL     1       0.483  11.886  19.610  0.00  0.00    +0.000 A 
ATOM     23  C   UNL     1      -0.004  10.583  19.580  0.00  0.00    +0.000 A 
ATOM     24  C   UNL     1      -1.170  10.294  18.877  0.00  0.00    +0.000 A 
ATOM     25  C   UNL     1      -1.773  11.318  18.169  0.00  0.00    +0.000 A 
ATOM     26  N   UNL     1      -1.298  12.582  18.116  0.00  0.00    +0.000 NA
BRANCH  21  29
ATOM     27  C   UNL     1      -0.186  16.599  18.549  0.00  0.00    +0.000 C 
ATOM     28  N   UNL     1      -0.552  15.215  18.645  0.00  0.00    +0.000 N 
ATOM     29  C   UNL     1       0.393  14.217  18.750  0.00  0.00    +0.000 C 
ATOM     30  O   UNL     1       1.602  14.422  18.755  0.00  0.00    +0.000 OA
ATOM     31  H   UNL     1      -1.525  14.922  18.624  0.00  0.00    +0.000 HD
ENDBRANCH  21  29
ENDBRANCH  20  23
ENDBRANCH   1  20
TORSDOF 7
ENDMDL
MODEL 9
REMARK VINA RESULT:      -8.0      1.341      1.809
REMARK  Name = 
REMARK  8 active torsions:
REMARK  status: ('A' for Active; 'I' for Inactive)
REMARK    1  A    between atoms: C_1  and  N_2
REMARK    2  A    between atoms: C_3  and  C_5
REMARK    3  A    between atoms: C_7  and  O_8
REMARK    4  A    between atoms: O_8  and  C_9
REMARK    5  A    between atoms: C_13  and  N_14
REMARK    6  A    between atoms: N_14  and  C_15
REMARK    7  A    between atoms: C_15  and  N_17
REMARK    8  A    between atoms: N_17  and  C_18
REMARK                            x       y       z     vdW  Elec       q    Type
REMARK                         _______ _______ _______ _____ _____    ______ ____
ROOT
ATOM      1  C   UNL     1       2.827   3.556  18.623  0.00  0.00    +0.000 A 
ATOM      2  C   UNL     1       2.696   2.473  19.497  0.00  0.00    +0.000 A 
ATOM      3  C   UNL     1       2.283   2.679  20.808  0.00  0.00    +0.000 A 
ATOM      4  C   UNL     1       1.954   3.965  21.234  0.00  0.00    +0.000 A 
ATOM      5  C   UNL     1       2.060   5.051  20.356  0.00  0.00    +0.000 A 
ATOM      6  C   UNL     1       2.473   4.838  19.042  0.00  0.00    +0.000 A 
ENDROOT
BRANCH   5   7
ATOM      7  N   UNL     1       1.642   6.304  20.829  0.00  0.00    +0.000 N 
ATOM      8  H   UNL     1       1.199   6.312  21.739  0.00  0.00    +0.000 HD
BRANCH   7   9
ATOM      9  C   UNL     1       1.856   7.571  20.323  0.00  0.00    +0.000 C 
ATOM     10  S   UNL     1       2.207   7.986  18.745  0.00  0.00    +0.000 S 
BRANCH   9  11
ATOM     11  N   UNL     1       1.918   8.544  21.298  0.00  0.00    +0.000 N 
ATOM     12  H   UNL     1       2.844   8.764  21.652  0.00  0.00    +0.000 HD
BRANCH  11  13
ATOM     13  C   UNL     1       0.886   9.453  21.611  0.00  0.00    +0.000 A 
ATOM     14  C   UNL     1       0.262   9.363  22.856  0.00  0.00    +0.000 A 
ATOM     15  C   UNL     1      -0.761  10.264  23.179  0.00  0.00    +0.000 A 
ATOM     16  C   UNL     1      -1.115  11.273  22.292  0.00  0.00    +0.000 A 
ATOM     17 CL   UNL     1      -2.350  12.395  22.712  0.00  0.00    +0.000 Cl
ATOM     18  C   UNL     1      -0.474  11.387  21.062  0.00  0.00    +0.000 A 
ATOM     19  C   UNL     1       0.521  10.471  20.721  0.00  0.00    +0.000 A 
ENDBRANCH  11  13
ENDBRANCH   9  11
ENDBRANCH   7   9
ENDBRANCH   5   7
BRANCH   1  20
ATOM     20  O   UNL     1       3.248   3.436  17.316  0.00  0.00    +0.000 OA
BRANCH  20  23
ATOM     21  C   UNL     1       6.316   4.338  15.521  0.00  0.00    +0.000 A 
ATOM     22  C   UNL     1       5.025   3.871  15.699  0.00  0.00    +0.000 A 
ATOM     23  C   UNL     1       4.532   3.815  16.998  0.00  0.00    +0.000 A 
ATOM     24  C   UNL     1       5.366   4.124  18.070  0.00  0.00    +0.000 A 
ATOM     25  C   UNL     1       6.654   4.546  17.792  0.00  0.00    +0.000 A 
ATOM     26  N   UNL     1       7.152   4.679  16.543  0.00  0.00    +0.000 NA
BRANCH  21  29
ATOM     27  C   UNL     1       8.431   5.806  12.757  0.00  0.00    +0.000 C 
ATOM     28  N   UNL     1       7.817   5.495  14.017  0.00  0.00    +0.000 N 
ATOM     29  C   UNL     1       6.840   4.530  14.132  0.00  0.00    +0.000 C 
ATOM     30  O   UNL     1       6.409   3.880  13.185  0.00  0.00    +0.000 OA
ATOM     31  H   UNL     1       8.074   5.988  14.867  0.00  0.00    +0.000 HD
ENDBRANCH  21  29
ENDBRANCH  20  23
ENDBRANCH   1  20
TORSDOF 7
ENDMDL
