MODEL 1
REMARK VINA RESULT:      -7.3      0.000      0.000
REMARK  Name = 
REMARK  6 active torsions:
REMARK  status: ('A' for Active; 'I' for Inactive)
REMARK    1  A    between atoms: C_2  and  C_16
REMARK    2  A    between atoms: N_3  and  CA_4
REMARK    3  A    between atoms: CA_4  and  C_5
REMARK    4  A    between atoms: CA_4  and  C_13
REMARK    5  A    between atoms: C_5  and  C_6
REMARK    6  A    between atoms: C_13  and  OXT_15
REMARK                            x       y       z     vdW  Elec       q    Type
REMARK                         _______ _______ _______ _____ _____    ______ ____
ROOT
ATOM      1  CA  UNL     1       6.411   6.460  17.163  0.00  0.00    +0.000 C 
ENDROOT
BRANCH   1   4
ATOM      2  O   UNL     1       8.517   7.173  18.936  0.00  0.00    +0.000 OA
ATOM      3  C   UNL     1       8.024   8.039  18.222  0.00  0.00    +0.000 C 
ATOM      4  N   UNL     1       7.022   7.783  17.319  0.00  0.00    +0.000 N 
ATOM      5  H   UNL     1       6.769   8.471  16.615  0.00  0.00    +0.000 HD
BRANCH   3   6
ATOM      6  C   UNL     1       8.505   9.447  18.301  0.00  0.00    +0.000 A 
ATOM      7  C   UNL     1       9.452   9.774  19.281  0.00  0.00    +0.000 A 
ATOM      8  C   UNL     1       9.928  11.083  19.394  0.00  0.00    +0.000 A 
ATOM      9  C   UNL     1       9.446  12.067  18.534  0.00  0.00    +0.000 A 
ATOM     10 BR   UNL     1      10.095  13.837  18.676  0.00  0.00    +0.000 Br
ATOM     11  C   UNL     1       8.484  11.760  17.572  0.00  0.00    +0.000 A 
ATOM     12  C   UNL     1       8.009  10.450  17.457  0.00  0.00    +0.000 A 
ENDBRANCH   3   6
ENDBRANCH   1   4
BRANCH   1  13
ATOM     13  C   UNL     1       7.378   5.583  16.349  0.00  0.00    +0.000 C 
ATOM     14  O   UNL     1       7.635   5.784  15.171  0.00  0.00    +0.000 OA
BRANCH  13  15
ATOM     15  OXT UNL     1       7.972   4.587  17.049  0.00  0.00    +0.000 OA
ATOM     16  HXT UNL     1       8.917   4.719  17.249  0.00  0.00    +0.000 HD
ENDBRANCH  13  15
ENDBRANCH   1  13
BRANCH   1  17
ATOM     17  C   UNL     1       5.004   6.514  16.544  0.00  0.00    +0.000 C 
BRANCH  17  18
ATOM     18  C   UNL     1       3.994   5.547  17.117  0.00  0.00    +0.000 A 
ATOM     19  C   UNL     1       4.053   4.180  16.812  0.00  0.00    +0.000 A 
ATOM     20  C   UNL     1       3.179   3.279  17.426  0.00  0.00    +0.000 A 
ATOM     21  C   UNL     1       2.238   3.742  18.344  0.00  0.00    +0.000 A 
ATOM     22  I   UNL     1       1.011   2.390  19.335  0.00  0.00    +0.000 I 
ATOM     23  C   UNL     1       2.137   5.104  18.622  0.00  0.00    +0.000 A 
ATOM     24  C   UNL     1       3.012   6.003  18.008  0.00  0.00    +0.000 A 
ENDBRANCH  17  18
ENDBRANCH   1  17
TORSDOF 6
ENDMDL
MODEL 2
REMARK VINA RESULT:      -7.0      0.133      1.241
REMARK  Name = 
REMARK  6 active torsions:
REMARK  status: ('A' for Active; 'I' for Inactive)
REMARK    1  A    between atoms: C_2  and  C_16
REMARK    2  A    between atoms: N_3  and  CA_4
REMARK    3  A    between atoms: CA_4  and  C_5
REMARK    4  A    between atoms: CA_4  and  C_13
REMARK    5  A    between atoms: C_5  and  C_6
REMARK    6  A    between atoms: C_13  and  OXT_15
REMARK                            x       y       z     vdW  Elec       q    Type
REMARK                         _______ _______ _______ _____ _____    ______ ____
ROOT
ATOM      1  CA  UNL     1       6.450   6.375  17.201  0.00  0.00    +0.000 C 
ENDROOT
BRANCH   1   4
ATOM      2  O   UNL     1       8.480   7.134  19.043  0.00  0.00    +0.000 OA
ATOM      3  C   UNL     1       8.028   7.978  18.278  0.00  0.00    +0.000 C 
ATOM      4  N   UNL     1       7.065   7.698  17.339  0.00  0.00    +0.000 N 
ATOM      5  H   UNL     1       6.850   8.363  16.601  0.00  0.00    +0.000 HD
BRANCH   3   6
ATOM      6  C   UNL     1       8.517   9.384  18.331  0.00  0.00    +0.000 A 
ATOM      7  C   UNL     1       7.949  10.321  17.457  0.00  0.00    +0.000 A 
ATOM      8  C   UNL     1       8.381  11.650  17.470  0.00  0.00    +0.000 A 
ATOM      9  C   UNL     1       9.391  12.038  18.348  0.00  0.00    +0.000 A 
ATOM     10 BR   UNL     1       9.970  13.837  18.377  0.00  0.00    +0.000 Br
ATOM     11  C   UNL     1       9.982  11.108  19.205  0.00  0.00    +0.000 A 
ATOM     12  C   UNL     1       9.549   9.779  19.194  0.00  0.00    +0.000 A 
ENDBRANCH   3   6
ENDBRANCH   1   4
BRANCH   1  13
ATOM     13  C   UNL     1       7.430   5.474  16.430  0.00  0.00    +0.000 C 
ATOM     14  O   UNL     1       8.016   4.530  16.941  0.00  0.00    +0.000 OA
BRANCH  13  15
ATOM     15  OXT UNL     1       7.566   5.771  15.116  0.00  0.00    +0.000 OA
ATOM     16  HXT UNL     1       7.487   6.715  14.887  0.00  0.00    +0.000 HD
ENDBRANCH  13  15
ENDBRANCH   1  13
BRANCH   1  17
ATOM     17  C   UNL     1       5.058   6.421  16.550  0.00  0.00    +0.000 C 
BRANCH  17  18
ATOM     18  C   UNL     1       4.031   5.470  17.120  0.00  0.00    +0.000 A 
ATOM     19  C   UNL     1       4.085   4.098  16.834  0.00  0.00    +0.000 A 
ATOM     20  C   UNL     1       3.195   3.212  17.445  0.00  0.00    +0.000 A 
ATOM     21  C   UNL     1       2.242   3.694  18.341  0.00  0.00    +0.000 A 
ATOM     22  I   UNL     1       0.990   2.364  19.330  0.00  0.00    +0.000 I 
ATOM     23  C   UNL     1       2.147   5.060  18.600  0.00  0.00    +0.000 A 
ATOM     24  C   UNL     1       3.038   5.944  17.988  0.00  0.00    +0.000 A 
ENDBRANCH  17  18
ENDBRANCH   1  17
TORSDOF 6
ENDMDL
MODEL 3
REMARK VINA RESULT:      -7.0      1.752      2.122
REMARK  Name = 
REMARK  6 active torsions:
REMARK  status: ('A' for Active; 'I' for Inactive)
REMARK    1  A    between atoms: C_2  and  C_16
REMARK    2  A    between atoms: N_3  and  CA_4
REMARK    3  A    between atoms: CA_4  and  C_5
REMARK    4  A    between atoms: CA_4  and  C_13
REMARK    5  A    between atoms: C_5  and  C_6
REMARK    6  A    between atoms: C_13  and  OXT_15
REMARK                            x       y       z     vdW  Elec       q    Type
REMARK                         _______ _______ _______ _____ _____    ______ ____
ROOT
ATOM      1  CA  UNL     1       6.294   6.244  17.115  0.00  0.00    +0.000 C 
ENDROOT
BRANCH   1   4
ATOM      2  O   UNL     1       8.420   6.991  18.850  0.00  0.00    +0.000 OA
ATOM      3  C   UNL     1       7.901   7.849  18.145  0.00  0.00    +0.000 C 
ATOM      4  N   UNL     1       6.887   7.576  17.260  0.00  0.00    +0.000 N 
ATOM      5  H   UNL     1       6.610   8.260  16.560  0.00  0.00    +0.000 HD
BRANCH   3   6
ATOM      6  C   UNL     1       8.361   9.264  18.215  0.00  0.00    +0.000 A 
ATOM      7  C   UNL     1       9.336   9.601  19.164  0.00  0.00    +0.000 A 
ATOM      8  C   UNL     1       9.793  10.918  19.267  0.00  0.00    +0.000 A 
ATOM      9  C   UNL     1       9.266  11.899  18.430  0.00  0.00    +0.000 A 
ATOM     10 BR   UNL     1       9.890  13.678  18.559  0.00  0.00    +0.000 Br
ATOM     11  C   UNL     1       8.276  11.579  17.500  0.00  0.00    +0.000 A 
ATOM     12  C   UNL     1       7.819  10.263  17.395  0.00  0.00    +0.000 A 
ENDBRANCH   3   6
ENDBRANCH   1   4
BRANCH   1  13
ATOM     13  C   UNL     1       7.204   5.417  16.191  0.00  0.00    +0.000 C 
ATOM     14  O   UNL     1       7.288   5.610  14.986  0.00  0.00    +0.000 OA
BRANCH  13  15
ATOM     15  OXT UNL     1       7.953   4.479  16.817  0.00  0.00    +0.000 OA
ATOM     16  HXT UNL     1       7.814   3.561  16.520  0.00  0.00    +0.000 HD
ENDBRANCH  13  15
ENDBRANCH   1  13
BRANCH   1  17
ATOM     17  C   UNL     1       4.837   6.281  16.624  0.00  0.00    +0.000 C 
BRANCH  17  18
ATOM     18  C   UNL     1       3.812   6.744  17.635  0.00  0.00    +0.000 A 
ATOM     19  C   UNL     1       3.530   5.978  18.775  0.00  0.00    +0.000 A 
ATOM     20  C   UNL     1       2.659   6.461  19.754  0.00  0.00    +0.000 A 
ATOM     21  C   UNL     1       2.060   7.709  19.595  0.00  0.00    +0.000 A 
ATOM     22  I   UNL     1       0.848   8.472  21.101  0.00  0.00    +0.000 I 
ATOM     23  C   UNL     1       2.295   8.461  18.446  0.00  0.00    +0.000 A 
ATOM     24  C   UNL     1       3.167   7.977  17.468  0.00  0.00    +0.000 A 
ENDBRANCH  17  18
ENDBRANCH   1  17
TORSDOF 6
ENDMDL
MODEL 4
REMARK VINA RESULT:      -7.0      5.468      7.093
REMARK  Name = 
REMARK  6 active torsions:
REMARK  status: ('A' for Active; 'I' for Inactive)
REMARK    1  A    between atoms: C_2  and  C_16
REMARK    2  A    between atoms: N_3  and  CA_4
REMARK    3  A    between atoms: CA_4  and  C_5
REMARK    4  A    between atoms: CA_4  and  C_13
REMARK    5  A    between atoms: C_5  and  C_6
REMARK    6  A    between atoms: C_13  and  OXT_15
REMARK                            x       y       z     vdW  Elec       q    Type
REMARK                         _______ _______ _______ _____ _____    ______ ____
ROOT
ATOM      1  CA  UNL     1       2.374   4.774  20.241  0.00  0.00    +0.000 C 
ENDROOT
BRANCH   1   4
ATOM      2  O   UNL     1       2.358   7.232  18.812  0.00  0.00    +0.000 OA
ATOM      3  C   UNL     1       1.842   7.189  19.923  0.00  0.00    +0.000 C 
ATOM      4  N   UNL     1       1.780   6.042  20.675  0.00  0.00    +0.000 N 
ATOM      5  H   UNL     1       1.187   5.991  21.498  0.00  0.00    +0.000 HD
BRANCH   3   6
ATOM      6  C   UNL     1       1.239   8.413  20.524  0.00  0.00    +0.000 A 
ATOM      7  C   UNL     1       0.942   9.492  19.681  0.00  0.00    +0.000 A 
ATOM      8  C   UNL     1       0.380  10.660  20.202  0.00  0.00    +0.000 A 
ATOM      9  C   UNL     1       0.127  10.752  21.570  0.00  0.00    +0.000 A 
ATOM     10 BR   UNL     1      -0.644  12.326  22.277  0.00  0.00    +0.000 Br
ATOM     11  C   UNL     1       0.442   9.694  22.422  0.00  0.00    +0.000 A 
ATOM     12  C   UNL     1       1.003   8.524  21.901  0.00  0.00    +0.000 A 
ENDBRANCH   3   6
ENDBRANCH   1   4
BRANCH   1  13
ATOM     13  C   UNL     1       1.839   3.661  21.158  0.00  0.00    +0.000 C 
ATOM     14  O   UNL     1       2.407   3.303  22.180  0.00  0.00    +0.000 OA
BRANCH  13  15
ATOM     15  OXT UNL     1       0.653   3.128  20.777  0.00  0.00    +0.000 OA
ATOM     16  HXT UNL     1      -0.139   3.547  21.160  0.00  0.00    +0.000 HD
ENDBRANCH  13  15
ENDBRANCH   1  13
BRANCH   1  17
ATOM     17  C   UNL     1       3.911   4.811  20.198  0.00  0.00    +0.000 C 
BRANCH  17  18
ATOM     18  C   UNL     1       4.537   4.599  18.838  0.00  0.00    +0.000 A 
ATOM     19  C   UNL     1       3.775   4.121  17.763  0.00  0.00    +0.000 A 
ATOM     20  C   UNL     1       4.335   4.025  16.487  0.00  0.00    +0.000 A 
ATOM     21  C   UNL     1       5.662   4.399  16.281  0.00  0.00    +0.000 A 
ATOM     22  I   UNL     1       6.462   4.356  14.364  0.00  0.00    +0.000 I 
ATOM     23  C   UNL     1       6.444   4.832  17.350  0.00  0.00    +0.000 A 
ATOM     24  C   UNL     1       5.883   4.928  18.625  0.00  0.00    +0.000 A 
ENDBRANCH  17  18
ENDBRANCH   1  17
TORSDOF 6
ENDMDL
MODEL 5
REMARK VINA RESULT:      -6.9      0.894      1.106
REMARK  Name = 
REMARK  6 active torsions:
REMARK  status: ('A' for Active; 'I' for Inactive)
REMARK    1  A    between atoms: C_2  and  C_16
REMARK    2  A    between atoms: N_3  and  CA_4
REMARK    3  A    between atoms: CA_4  and  C_5
REMARK    4  A    between atoms: CA_4  and  C_13
REMARK    5  A    between atoms: C_5  and  C_6
REMARK    6  A    between atoms: C_13  and  OXT_15
REMARK                            x       y       z     vdW  Elec       q    Type
REMARK                         _______ _______ _______ _____ _____    ______ ____
ROOT
ATOM      1  CA  UNL     1       6.214   6.430  17.210  0.00  0.00    +0.000 C 
ENDROOT
BRANCH   1   4
ATOM      2  O   UNL     1       8.417   7.090  18.882  0.00  0.00    +0.000 OA
ATOM      3  C   UNL     1       7.912   7.969  18.192  0.00  0.00    +0.000 C 
ATOM      4  N   UNL     1       6.863   7.738  17.336  0.00  0.00    +0.000 N 
ATOM      5  H   UNL     1       6.594   8.432  16.645  0.00  0.00    +0.000 HD
BRANCH   3   6
ATOM      6  C   UNL     1       8.431   9.365  18.249  0.00  0.00    +0.000 A 
ATOM      7  C   UNL     1       9.397   9.678  19.214  0.00  0.00    +0.000 A 
ATOM      8  C   UNL     1       9.907  10.976  19.306  0.00  0.00    +0.000 A 
ATOM      9  C   UNL     1       9.441  11.962  18.439  0.00  0.00    +0.000 A 
ATOM     10 BR   UNL     1      10.137  13.716  18.552  0.00  0.00    +0.000 Br
ATOM     11  C   UNL     1       8.460  11.668  17.492  0.00  0.00    +0.000 A 
ATOM     12  C   UNL     1       7.950  10.370  17.398  0.00  0.00    +0.000 A 
ENDBRANCH   3   6
ENDBRANCH   1   4
BRANCH   1  13
ATOM     13  C   UNL     1       6.863   5.690  16.027  0.00  0.00    +0.000 C 
ATOM     14  O   UNL     1       7.764   4.875  16.160  0.00  0.00    +0.000 OA
BRANCH  13  15
ATOM     15  OXT UNL     1       6.328   5.972  14.815  0.00  0.00    +0.000 OA
ATOM     16  HXT UNL     1       6.691   5.463  14.066  0.00  0.00    +0.000 HD
ENDBRANCH  13  15
ENDBRANCH   1  13
BRANCH   1  17
ATOM     17  C   UNL     1       4.685   6.526  17.075  0.00  0.00    +0.000 C 
BRANCH  17  18
ATOM     18  C   UNL     1       3.884   5.652  18.014  0.00  0.00    +0.000 A 
ATOM     19  C   UNL     1       3.944   4.255  17.921  0.00  0.00    +0.000 A 
ATOM     20  C   UNL     1       3.283   3.455  18.856  0.00  0.00    +0.000 A 
ATOM     21  C   UNL     1       2.552   4.049  19.884  0.00  0.00    +0.000 A 
ATOM     22  I   UNL     1       1.657   2.860  21.334  0.00  0.00    +0.000 I 
ATOM     23  C   UNL     1       2.447   5.436  19.961  0.00  0.00    +0.000 A 
ATOM     24  C   UNL     1       3.109   6.234  19.026  0.00  0.00    +0.000 A 
ENDBRANCH  17  18
ENDBRANCH   1  17
TORSDOF 6
ENDMDL
MODEL 6
REMARK VINA RESULT:      -6.9      5.120      6.573
REMARK  Name = 
REMARK  6 active torsions:
REMARK  status: ('A' for Active; 'I' for Inactive)
REMARK    1  A    between atoms: C_2  and  C_16
REMARK    2  A    between atoms: N_3  and  CA_4
REMARK    3  A    between atoms: CA_4  and  C_5
REMARK    4  A    between atoms: CA_4  and  C_13
REMARK    5  A    between atoms: C_5  and  C_6
REMARK    6  A    between atoms: C_13  and  OXT_15
REMARK                            x       y       z     vdW  Elec       q    Type
REMARK                         _______ _______ _______ _____ _____    ______ ____
ROOT
ATOM      1  CA  UNL     1       2.766   4.009  19.415  0.00  0.00    +0.000 C 
ENDROOT
BRANCH   1   4
ATOM      2  O   UNL     1       5.592   3.766  19.210  0.00  0.00    +0.000 OA
ATOM      3  C   UNL     1       4.950   4.078  18.213  0.00  0.00    +0.000 C 
ATOM      4  N   UNL     1       3.581   4.194  18.211  0.00  0.00    +0.000 N 
ATOM      5  H   UNL     1       3.067   4.266  17.338  0.00  0.00    +0.000 HD
BRANCH   3   6
ATOM      6  C   UNL     1       5.643   4.349  16.922  0.00  0.00    +0.000 A 
ATOM      7  C   UNL     1       4.923   4.181  15.732  0.00  0.00    +0.000 A 
ATOM      8  C   UNL     1       5.535   4.420  14.498  0.00  0.00    +0.000 A 
ATOM      9  C   UNL     1       6.871   4.814  14.456  0.00  0.00    +0.000 A 
ATOM     10 BR   UNL     1       7.699   5.149  12.791  0.00  0.00    +0.000 Br
ATOM     11  C   UNL     1       7.605   4.958  15.634  0.00  0.00    +0.000 A 
ATOM     12  C   UNL     1       6.993   4.721  16.868  0.00  0.00    +0.000 A 
ENDBRANCH   3   6
ENDBRANCH   1   4
BRANCH   1  13
ATOM     13  C   UNL     1       1.309   3.786  18.973  0.00  0.00    +0.000 C 
ATOM     14  O   UNL     1       0.951   3.827  17.804  0.00  0.00    +0.000 OA
BRANCH  13  15
ATOM     15  OXT UNL     1       0.448   3.488  19.974  0.00  0.00    +0.000 OA
ATOM     16  HXT UNL     1      -0.458   3.833  19.866  0.00  0.00    +0.000 HD
ENDBRANCH  13  15
ENDBRANCH   1  13
BRANCH   1  17
ATOM     17  C   UNL     1       2.904   5.165  20.421  0.00  0.00    +0.000 C 
BRANCH  17  18
ATOM     18  C   UNL     1       2.327   6.492  19.983  0.00  0.00    +0.000 A 
ATOM     19  C   UNL     1       1.521   7.246  20.849  0.00  0.00    +0.000 A 
ATOM     20  C   UNL     1       1.076   8.516  20.475  0.00  0.00    +0.000 A 
ATOM     21  C   UNL     1       1.430   9.037  19.232  0.00  0.00    +0.000 A 
ATOM     22  I   UNL     1       0.857  10.967  18.720  0.00  0.00    +0.000 I 
ATOM     23  C   UNL     1       2.192   8.281  18.343  0.00  0.00    +0.000 A 
ATOM     24  C   UNL     1       2.636   7.011  18.718  0.00  0.00    +0.000 A 
ENDBRANCH  17  18
ENDBRANCH   1  17
TORSDOF 6
ENDMDL
MODEL 7
REMARK VINA RESULT:      -6.9      1.763      2.373
REMARK  Name = 
REMARK  6 active torsions:
REMARK  status: ('A' for Active; 'I' for Inactive)
REMARK    1  A    between atoms: C_2  and  C_16
REMARK    2  A    between atoms: N_3  and  CA_4
REMARK    3  A    between atoms: CA_4  and  C_5
REMARK    4  A    between atoms: CA_4  and  C_13
REMARK    5  A    between atoms: C_5  and  C_6
REMARK    6  A    between atoms: C_13  and  OXT_15
REMARK                            x       y       z     vdW  Elec       q    Type
REMARK                         _______ _______ _______ _____ _____    ______ ____
ROOT
ATOM      1  CA  UNL     1       6.288   6.249  17.151  0.00  0.00    +0.000 C 
ENDROOT
BRANCH   1   4
ATOM      2  O   UNL     1       8.448   6.951  18.862  0.00  0.00    +0.000 OA
ATOM      3  C   UNL     1       7.915   7.827  18.191  0.00  0.00    +0.000 C 
ATOM      4  N   UNL     1       6.883   7.578  17.319  0.00  0.00    +0.000 N 
ATOM      5  H   UNL     1       6.592   8.280  16.644  0.00  0.00    +0.000 HD
BRANCH   3   6
ATOM      6  C   UNL     1       8.376   9.241  18.290  0.00  0.00    +0.000 A 
ATOM      7  C   UNL     1       7.817  10.186  17.420  0.00  0.00    +0.000 A 
ATOM      8  C   UNL     1       8.224  11.522  17.475  0.00  0.00    +0.000 A 
ATOM      9  C   UNL     1       9.199  11.908  18.393  0.00  0.00    +0.000 A 
ATOM     10 BR   UNL     1       9.743  13.717  18.479  0.00  0.00    +0.000 Br
ATOM     11  C   UNL     1       9.781  10.970  19.246  0.00  0.00    +0.000 A 
ATOM     12  C   UNL     1       9.374   9.635  19.192  0.00  0.00    +0.000 A 
ENDBRANCH   3   6
ENDBRANCH   1   4
BRANCH   1  13
ATOM     13  C   UNL     1       7.204   5.433  16.223  0.00  0.00    +0.000 C 
ATOM     14  O   UNL     1       7.302   5.646  15.023  0.00  0.00    +0.000 OA
BRANCH  13  15
ATOM     15  OXT UNL     1       7.940   4.479  16.841  0.00  0.00    +0.000 OA
ATOM     16  HXT UNL     1       8.579   4.804  17.501  0.00  0.00    +0.000 HD
ENDBRANCH  13  15
ENDBRANCH   1  13
BRANCH   1  17
ATOM     17  C   UNL     1       4.835   6.298  16.648  0.00  0.00    +0.000 C 
BRANCH  17  18
ATOM     18  C   UNL     1       3.805   6.764  17.652  0.00  0.00    +0.000 A 
ATOM     19  C   UNL     1       3.519   6.003  18.794  0.00  0.00    +0.000 A 
ATOM     20  C   UNL     1       2.643   6.488  19.767  0.00  0.00    +0.000 A 
ATOM     21  C   UNL     1       2.042   7.735  19.600  0.00  0.00    +0.000 A 
ATOM     22  I   UNL     1       0.822   8.503  21.096  0.00  0.00    +0.000 I 
ATOM     23  C   UNL     1       2.282   8.482  18.448  0.00  0.00    +0.000 A 
ATOM     24  C   UNL     1       3.159   7.995  17.477  0.00  0.00    +0.000 A 
ENDBRANCH  17  18
ENDBRANCH   1  17
TORSDOF 6
ENDMDL
MODEL 8
REMARK VINA RESULT:      -6.9      5.120      6.526
REMARK  Name = 
REMARK  6 active torsions:
REMARK  status: ('A' for Active; 'I' for Inactive)
REMARK    1  A    between atoms: C_2  and  C_16
REMARK    2  A    between atoms: N_3  and  CA_4
REMARK    3  A    between atoms: CA_4  and  C_5
REMARK    4  A    between atoms: CA_4  and  C_13
REMARK    5  A    between atoms: C_5  and  C_6
REMARK    6  A    between atoms: C_13  and  OXT_15
REMARK                            x       y       z     vdW  Elec       q    Type
REMARK                         _______ _______ _______ _____ _____    ______ ____
ROOT
ATOM      1  CA  UNL     1       2.739   3.882  19.442  0.00  0.00    +0.000 C 
ENDROOT
BRANCH   1   4
ATOM      2  O   UNL     1       5.561   3.655  19.174  0.00  0.00    +0.000 OA
ATOM      3  C   UNL     1       4.896   3.967  18.193  0.00  0.00    +0.000 C 
ATOM      4  N   UNL     1       3.527   4.076  18.222  0.00  0.00    +0.000 N 
ATOM      5  H   UNL     1       2.993   4.148  17.359  0.00  0.00    +0.000 HD
BRANCH   3   6
ATOM      6  C   UNL     1       5.559   4.246  16.889  0.00  0.00    +0.000 A 
ATOM      7  C   UNL     1       6.884   4.702  16.899  0.00  0.00    +0.000 A 
ATOM      8  C   UNL     1       7.544   4.981  15.699  0.00  0.00    +0.000 A 
ATOM      9  C   UNL     1       6.872   4.815  14.489  0.00  0.00    +0.000 A 
ATOM     10 BR   UNL     1       7.765   5.179  12.863  0.00  0.00    +0.000 Br
ATOM     11  C   UNL     1       5.545   4.386  14.468  0.00  0.00    +0.000 A 
ATOM     12  C   UNL     1       4.885   4.106  15.668  0.00  0.00    +0.000 A 
ENDBRANCH   3   6
ENDBRANCH   1   4
BRANCH   1  13
ATOM     13  C   UNL     1       1.274   3.653  19.030  0.00  0.00    +0.000 C 
ATOM     14  O   UNL     1       0.897   3.658  17.867  0.00  0.00    +0.000 OA
BRANCH  13  15
ATOM     15  OXT UNL     1       0.427   3.394  20.054  0.00  0.00    +0.000 OA
ATOM     16  HXT UNL     1      -0.474   3.123  19.797  0.00  0.00    +0.000 HD
ENDBRANCH  13  15
ENDBRANCH   1  13
BRANCH   1  17
ATOM     17  C   UNL     1       2.892   5.035  20.449  0.00  0.00    +0.000 C 
BRANCH  17  18
ATOM     18  C   UNL     1       2.333   6.370  20.013  0.00  0.00    +0.000 A 
ATOM     19  C   UNL     1       1.534   7.131  20.878  0.00  0.00    +0.000 A 
ATOM     20  C   UNL     1       1.106   8.407  20.507  0.00  0.00    +0.000 A 
ATOM     21  C   UNL     1       1.470   8.927  19.266  0.00  0.00    +0.000 A 
ATOM     22  I   UNL     1       0.923  10.867  18.758  0.00  0.00    +0.000 I 
ATOM     23  C   UNL     1       2.226   8.165  18.378  0.00  0.00    +0.000 A 
ATOM     24  C   UNL     1       2.653   6.889  18.751  0.00  0.00    +0.000 A 
ENDBRANCH  17  18
ENDBRANCH   1  17
TORSDOF 6
ENDMDL
MODEL 9
REMARK VINA RESULT:      -6.9      0.228      1.473
REMARK  Name = 
REMARK  6 active torsions:
REMARK  status: ('A' for Active; 'I' for Inactive)
REMARK    1  A    between atoms: C_2  and  C_16
REMARK    2  A    between atoms: N_3  and  CA_4
REMARK    3  A    between atoms: CA_4  and  C_5
REMARK    4  A    between atoms: CA_4  and  C_13
REMARK    5  A    between atoms: C_5  and  C_6
REMARK    6  A    between atoms: C_13  and  OXT_15
REMARK                            x       y       z     vdW  Elec       q    Type
REMARK                         _______ _______ _______ _____ _____    ______ ____
ROOT
ATOM      1  CA  UNL     1       6.484   6.491  17.247  0.00  0.00    +0.000 C 
ENDROOT
BRANCH   1   4
ATOM      2  O   UNL     1       8.569   7.302  19.003  0.00  0.00    +0.000 OA
ATOM      3  C   UNL     1       8.062   8.135  18.261  0.00  0.00    +0.000 C 
ATOM      4  N   UNL     1       7.068   7.830  17.363  0.00  0.00    +0.000 N 
ATOM      5  H   UNL     1       6.803   8.491  16.637  0.00  0.00    +0.000 HD
BRANCH   3   6
ATOM      6  C   UNL     1       8.514   9.554  18.298  0.00  0.00    +0.000 A 
ATOM      7  C   UNL     1       7.878  10.478  17.458  0.00  0.00    +0.000 A 
ATOM      8  C   UNL     1       8.273  11.818  17.456  0.00  0.00    +0.000 A 
ATOM      9  C   UNL     1       9.314  12.231  18.286  0.00  0.00    +0.000 A 
ATOM     10 BR   UNL     1       9.844  14.045  18.296  0.00  0.00    +0.000 Br
ATOM     11  C   UNL     1       9.972  11.315  19.107  0.00  0.00    +0.000 A 
ATOM     12  C   UNL     1       9.576   9.974  19.111  0.00  0.00    +0.000 A 
ENDBRANCH   3   6
ENDBRANCH   1   4
BRANCH   1  13
ATOM     13  C   UNL     1       7.434   5.631  16.395  0.00  0.00    +0.000 C 
ATOM     14  O   UNL     1       7.661   5.855  15.215  0.00  0.00    +0.000 OA
BRANCH  13  15
ATOM     15  OXT UNL     1       8.046   4.625  17.062  0.00  0.00    +0.000 OA
ATOM     16  HXT UNL     1       7.454   3.951  17.444  0.00  0.00    +0.000 HD
ENDBRANCH  13  15
ENDBRANCH   1  13
BRANCH   1  17
ATOM     17  C   UNL     1       5.048   6.504  16.696  0.00  0.00    +0.000 C 
BRANCH  17  18
ATOM     18  C   UNL     1       4.084   5.538  17.344  0.00  0.00    +0.000 A 
ATOM     19  C   UNL     1       3.095   5.993  18.227  0.00  0.00    +0.000 A 
ATOM     20  C   UNL     1       2.144   5.109  18.742  0.00  0.00    +0.000 A 
ATOM     21  C   UNL     1       2.182   3.763  18.382  0.00  0.00    +0.000 A 
ATOM     22  I   UNL     1       0.706   2.470  19.064  0.00  0.00    +0.000 I 
ATOM     23  C   UNL     1       3.187   3.287  17.542  0.00  0.00    +0.000 A 
ATOM     24  C   UNL     1       4.136   4.173  17.027  0.00  0.00    +0.000 A 
ENDBRANCH  17  18
ENDBRANCH   1  17
TORSDOF 6
ENDMDL
