MODEL 1
REMARK VINA RESULT:      -8.3      0.000      0.000
REMARK  Name = 
REMARK  11 active torsions:
REMARK  status: ('A' for Active; 'I' for Inactive)
REMARK    1  A    between atoms: C_1  and  C_2
REMARK    2  A    between atoms: C_6  and  C_7
REMARK    3  A    between atoms: C_7  and  C_8
REMARK    4  A    between atoms: C_7  and  C_9
REMARK    5  A    between atoms: C_14  and  C_15
REMARK    6  A    between atoms: C_17  and  O_18
REMARK    7  A    between atoms: O_18  and  C_19
REMARK    8  A    between atoms: C_19  and  C_20
REMARK    9  A    between atoms: C_20  and  C_21
REMARK   10  A    between atoms: C_20  and  C_22
REMARK   11  A    between atoms: C_20  and  O_23
REMARK                            x       y       z     vdW  Elec       q    Type
REMARK                         _______ _______ _______ _____ _____    ______ ____
ROOT
ATOM      1  C   UNL     1       1.599   2.355  21.799  0.00  0.00    +0.000 C 
ATOM      2  C   UNL     1       2.019   3.553  21.000  0.00  0.00    +0.000 A 
ATOM      3  N   UNL     1       1.419   4.695  21.159  0.00  0.00    +0.000 NA
ATOM      4  C   UNL     1       1.847   5.788  20.365  0.00  0.00    +0.000 A 
ATOM      5  C   UNL     1       1.251   7.030  20.582  0.00  0.00    +0.000 A 
ATOM      6  C   UNL     1       1.637   8.146  19.834  0.00  0.00    +0.000 A 
ATOM      7  C   UNL     1       2.593   7.940  18.838  0.00  0.00    +0.000 A 
ATOM      8  N   UNL     1       3.188   6.749  18.571  0.00  0.00    +0.000 NA
ATOM      9  C   UNL     1       2.844   5.716  19.372  0.00  0.00    +0.000 A 
ATOM     10  N   UNL     1       3.515   4.477  19.288  0.00  0.00    +0.000 N 
ATOM     11  C   UNL     1       4.604   3.992  18.579  0.00  0.00    +0.000 A 
ATOM     12  N   UNL     1       4.712   2.694  18.854  0.00  0.00    +0.000 NA
ATOM     13  N   UNL     1       3.776   2.342  19.788  0.00  0.00    +0.000 NA
ATOM     14  C   UNL     1       3.089   3.422  20.052  0.00  0.00    +0.000 A 
ENDROOT
BRANCH  11  15
ATOM     15  C   UNL     1       5.523   4.659  17.644  0.00  0.00    +0.000 A 
ATOM     16  C   UNL     1       5.405   4.290  16.279  0.00  0.00    +0.000 A 
ATOM     17  C   UNL     1       6.297   4.752  15.307  0.00  0.00    +0.000 A 
ATOM     18  C   UNL     1       7.279   5.664  15.680  0.00  0.00    +0.000 A 
ATOM     19  C   UNL     1       7.427   6.034  17.018  0.00  0.00    +0.000 A 
ATOM     20  C   UNL     1       6.597   5.485  18.004  0.00  0.00    +0.000 A 
ATOM     21 CL   UNL     1       7.111   5.718  19.642  0.00  0.00    +0.000 Cl
BRANCH  17  22
ATOM     22  O   UNL     1       6.335   4.372  13.993  0.00  0.00    +0.000 OA
BRANCH  22  23
ATOM     23  C   UNL     1       5.373   3.396  13.563  0.00  0.00    +0.000 C 
BRANCH  23  24
ATOM     24  C   UNL     1       5.603   3.073  12.069  0.00  0.00    +0.000 C 
ATOM     25  C   UNL     1       4.395   3.445  11.206  0.00  0.00    +0.000 C 
ATOM     26  C   UNL     1       6.854   3.790  11.561  0.00  0.00    +0.000 C 
BRANCH  24  27
ATOM     27  O   UNL     1       5.827   1.664  11.920  0.00  0.00    +0.000 OA
ATOM     28  H   UNL     1       5.636   1.265  12.790  0.00  0.00    +0.000 HD
ENDBRANCH  24  27
ENDBRANCH  23  24
ENDBRANCH  22  23
ENDBRANCH  17  22
ENDBRANCH  11  15
BRANCH   6  29
ATOM     29  C   UNL     1       1.024   9.502  20.122  0.00  0.00    +0.000 C 
ATOM     30  C   UNL     1       0.055   9.942  19.022  0.00  0.00    +0.000 C 
ATOM     31  C   UNL     1       0.341   9.532  21.490  0.00  0.00    +0.000 C 
ENDBRANCH   6  29
TORSDOF 6
ENDMDL
MODEL 2
REMARK VINA RESULT:      -8.2      5.058      7.464
REMARK  Name = 
REMARK  11 active torsions:
REMARK  status: ('A' for Active; 'I' for Inactive)
REMARK    1  A    between atoms: C_1  and  C_2
REMARK    2  A    between atoms: C_6  and  C_7
REMARK    3  A    between atoms: C_7  and  C_8
REMARK    4  A    between atoms: C_7  and  C_9
REMARK    5  A    between atoms: C_14  and  C_15
REMARK    6  A    between atoms: C_17  and  O_18
REMARK    7  A    between atoms: O_18  and  C_19
REMARK    8  A    between atoms: C_19  and  C_20
REMARK    9  A    between atoms: C_20  and  C_21
REMARK   10  A    between atoms: C_20  and  C_22
REMARK   11  A    between atoms: C_20  and  O_23
REMARK                            x       y       z     vdW  Elec       q    Type
REMARK                         _______ _______ _______ _____ _____    ______ ____
ROOT
ATOM      1  C   UNL     1      -1.496  12.793  23.090  0.00  0.00    +0.000 C 
ATOM      2  C   UNL     1      -1.395  12.037  21.798  0.00  0.00    +0.000 A 
ATOM      3  N   UNL     1      -2.219  12.285  20.823  0.00  0.00    +0.000 NA
ATOM      4  C   UNL     1      -2.089  11.528  19.632  0.00  0.00    +0.000 A 
ATOM      5  C   UNL     1      -2.926  11.839  18.561  0.00  0.00    +0.000 A 
ATOM      6  C   UNL     1      -2.839  11.131  17.358  0.00  0.00    +0.000 A 
ATOM      7  C   UNL     1      -1.923  10.079  17.309  0.00  0.00    +0.000 A 
ATOM      8  N   UNL     1      -1.100   9.721  18.328  0.00  0.00    +0.000 NA
ATOM      9  C   UNL     1      -1.161  10.483  19.443  0.00  0.00    +0.000 A 
ATOM     10  N   UNL     1      -0.244  10.302  20.499  0.00  0.00    +0.000 N 
ATOM     11  C   UNL     1       0.880   9.514  20.704  0.00  0.00    +0.000 A 
ATOM     12  N   UNL     1       1.285   9.717  21.956  0.00  0.00    +0.000 NA
ATOM     13  N   UNL     1       0.506  10.676  22.542  0.00  0.00    +0.000 NA
ATOM     14  C   UNL     1      -0.383  11.031  21.652  0.00  0.00    +0.000 A 
ENDROOT
BRANCH  11  15
ATOM     15  C   UNL     1       1.574   8.571  19.814  0.00  0.00    +0.000 A 
ATOM     16  C   UNL     1       1.873   7.297  20.364  0.00  0.00    +0.000 A 
ATOM     17  C   UNL     1       2.638   6.353  19.672  0.00  0.00    +0.000 A 
ATOM     18  C   UNL     1       3.047   6.644  18.375  0.00  0.00    +0.000 A 
ATOM     19  C   UNL     1       2.778   7.894  17.814  0.00  0.00    +0.000 A 
ATOM     20  C   UNL     1       2.104   8.876  18.553  0.00  0.00    +0.000 A 
ATOM     21 CL   UNL     1       2.163  10.483  17.909  0.00  0.00    +0.000 Cl
BRANCH  17  22
ATOM     22  O   UNL     1       3.071   5.148  20.154  0.00  0.00    +0.000 OA
BRANCH  22  23
ATOM     23  C   UNL     1       2.782   3.982  19.368  0.00  0.00    +0.000 C 
BRANCH  23  24
ATOM     24  C   UNL     1       1.742   3.109  20.107  0.00  0.00    +0.000 C 
ATOM     25  C   UNL     1       1.464   1.796  19.373  0.00  0.00    +0.000 C 
ATOM     26  C   UNL     1       2.212   2.825  21.534  0.00  0.00    +0.000 C 
BRANCH  24  27
ATOM     27  O   UNL     1       0.505   3.828  20.200  0.00  0.00    +0.000 OA
ATOM     28  H   UNL     1       0.346   4.211  19.317  0.00  0.00    +0.000 HD
ENDBRANCH  24  27
ENDBRANCH  23  24
ENDBRANCH  22  23
ENDBRANCH  17  22
ENDBRANCH  11  15
BRANCH   6  29
ATOM     29  C   UNL     1      -3.714  11.520  16.184  0.00  0.00    +0.000 C 
ATOM     30  C   UNL     1      -3.661  10.484  15.058  0.00  0.00    +0.000 C 
ATOM     31  C   UNL     1      -5.158  11.776  16.618  0.00  0.00    +0.000 C 
ENDBRANCH   6  29
TORSDOF 6
ENDMDL
MODEL 3
REMARK VINA RESULT:      -7.3      0.770      1.010
REMARK  Name = 
REMARK  11 active torsions:
REMARK  status: ('A' for Active; 'I' for Inactive)
REMARK    1  A    between atoms: C_1  and  C_2
REMARK    2  A    between atoms: C_6  and  C_7
REMARK    3  A    between atoms: C_7  and  C_8
REMARK    4  A    between atoms: C_7  and  C_9
REMARK    5  A    between atoms: C_14  and  C_15
REMARK    6  A    between atoms: C_17  and  O_18
REMARK    7  A    between atoms: O_18  and  C_19
REMARK    8  A    between atoms: C_19  and  C_20
REMARK    9  A    between atoms: C_20  and  C_21
REMARK   10  A    between atoms: C_20  and  C_22
REMARK   11  A    between atoms: C_20  and  O_23
REMARK                            x       y       z     vdW  Elec       q    Type
REMARK                         _______ _______ _______ _____ _____    ______ ____
ROOT
ATOM      1  C   UNL     1       1.591   2.958  21.968  0.00  0.00    +0.000 C 
ATOM      2  C   UNL     1       2.006   4.083  21.066  0.00  0.00    +0.000 A 
ATOM      3  N   UNL     1       1.403   5.233  21.127  0.00  0.00    +0.000 NA
ATOM      4  C   UNL     1       1.825   6.254  20.239  0.00  0.00    +0.000 A 
ATOM      5  C   UNL     1       1.227   7.509  20.349  0.00  0.00    +0.000 A 
ATOM      6  C   UNL     1       1.608   8.557  19.505  0.00  0.00    +0.000 A 
ATOM      7  C   UNL     1       2.562   8.266  18.527  0.00  0.00    +0.000 A 
ATOM      8  N   UNL     1       3.159   7.058  18.363  0.00  0.00    +0.000 NA
ATOM      9  C   UNL     1       2.820   6.097  19.252  0.00  0.00    +0.000 A 
ATOM     10  N   UNL     1       3.493   4.858  19.275  0.00  0.00    +0.000 N 
ATOM     11  C   UNL     1       4.581   4.315  18.607  0.00  0.00    +0.000 A 
ATOM     12  N   UNL     1       4.693   3.046  18.994  0.00  0.00    +0.000 NA
ATOM     13  N   UNL     1       3.761   2.775  19.958  0.00  0.00    +0.000 NA
ATOM     14  C   UNL     1       3.072   3.873  20.130  0.00  0.00    +0.000 A 
ENDROOT
BRANCH  11  15
ATOM     15  C   UNL     1       5.495   4.900  17.614  0.00  0.00    +0.000 A 
ATOM     16  C   UNL     1       5.196   4.632  16.253  0.00  0.00    +0.000 A 
ATOM     17  C   UNL     1       6.050   5.021  15.217  0.00  0.00    +0.000 A 
ATOM     18  C   UNL     1       7.186   5.761  15.528  0.00  0.00    +0.000 A 
ATOM     19  C   UNL     1       7.512   6.027  16.859  0.00  0.00    +0.000 A 
ATOM     20  C   UNL     1       6.708   5.543  17.900  0.00  0.00    +0.000 A 
ATOM     21 CL   UNL     1       7.403   5.604  19.485  0.00  0.00    +0.000 Cl
BRANCH  17  22
ATOM     22  O   UNL     1       5.908   4.718  13.890  0.00  0.00    +0.000 OA
BRANCH  22  23
ATOM     23  C   UNL     1       5.791   3.330  13.542  0.00  0.00    +0.000 C 
BRANCH  23  24
ATOM     24  C   UNL     1       5.837   3.181  12.003  0.00  0.00    +0.000 C 
ATOM     25  C   UNL     1       6.989   3.974  11.381  0.00  0.00    +0.000 C 
ATOM     26  C   UNL     1       5.946   1.705  11.619  0.00  0.00    +0.000 C 
BRANCH  24  27
ATOM     27  O   UNL     1       4.614   3.680  11.446  0.00  0.00    +0.000 OA
ATOM     28  H   UNL     1       4.051   2.900  11.284  0.00  0.00    +0.000 HD
ENDBRANCH  24  27
ENDBRANCH  23  24
ENDBRANCH  22  23
ENDBRANCH  17  22
ENDBRANCH  11  15
BRANCH   6  29
ATOM     29  C   UNL     1       0.992   9.931  19.675  0.00  0.00    +0.000 C 
ATOM     30  C   UNL     1       1.576  10.950  18.694  0.00  0.00    +0.000 C 
ATOM     31  C   UNL     1      -0.532   9.883  19.564  0.00  0.00    +0.000 C 
ENDBRANCH   6  29
TORSDOF 6
ENDMDL
MODEL 4
REMARK VINA RESULT:      -7.2      5.178      7.612
REMARK  Name = 
REMARK  11 active torsions:
REMARK  status: ('A' for Active; 'I' for Inactive)
REMARK    1  A    between atoms: C_1  and  C_2
REMARK    2  A    between atoms: C_6  and  C_7
REMARK    3  A    between atoms: C_7  and  C_8
REMARK    4  A    between atoms: C_7  and  C_9
REMARK    5  A    between atoms: C_14  and  C_15
REMARK    6  A    between atoms: C_17  and  O_18
REMARK    7  A    between atoms: O_18  and  C_19
REMARK    8  A    between atoms: C_19  and  C_20
REMARK    9  A    between atoms: C_20  and  C_21
REMARK   10  A    between atoms: C_20  and  C_22
REMARK   11  A    between atoms: C_20  and  O_23
REMARK                            x       y       z     vdW  Elec       q    Type
REMARK                         _______ _______ _______ _____ _____    ______ ____
ROOT
ATOM      1  C   UNL     1      -1.577  13.173  22.926  0.00  0.00    +0.000 C 
ATOM      2  C   UNL     1      -1.567  12.289  21.713  0.00  0.00    +0.000 A 
ATOM      3  N   UNL     1      -2.509  12.383  20.822  0.00  0.00    +0.000 NA
ATOM      4  C   UNL     1      -2.459  11.512  19.706  0.00  0.00    +0.000 A 
ATOM      5  C   UNL     1      -3.428  11.657  18.715  0.00  0.00    +0.000 A 
ATOM      6  C   UNL     1      -3.425  10.830  17.587  0.00  0.00    +0.000 A 
ATOM      7  C   UNL     1      -2.449   9.833  17.537  0.00  0.00    +0.000 A 
ATOM      8  N   UNL     1      -1.496   9.635  18.483  0.00  0.00    +0.000 NA
ATOM      9  C   UNL     1      -1.487  10.508  19.516  0.00  0.00    +0.000 A 
ATOM     10  N   UNL     1      -0.448  10.495  20.470  0.00  0.00    +0.000 N 
ATOM     11  C   UNL     1       0.743   9.800  20.620  0.00  0.00    +0.000 A 
ATOM     12  N   UNL     1       1.269  10.159  21.790  0.00  0.00    +0.000 NA
ATOM     13  N   UNL     1       0.495  11.130  22.364  0.00  0.00    +0.000 NA
ATOM     14  C   UNL     1      -0.509  11.334  21.552  0.00  0.00    +0.000 A 
ENDROOT
BRANCH  11  15
ATOM     15  C   UNL     1       1.399   8.808  19.754  0.00  0.00    +0.000 A 
ATOM     16  C   UNL     1       1.578   7.514  20.310  0.00  0.00    +0.000 A 
ATOM     17  C   UNL     1       2.296   6.516  19.644  0.00  0.00    +0.000 A 
ATOM     18  C   UNL     1       2.779   6.777  18.366  0.00  0.00    +0.000 A 
ATOM     19  C   UNL     1       2.629   8.045  17.802  0.00  0.00    +0.000 A 
ATOM     20  C   UNL     1       2.002   9.074  18.517  0.00  0.00    +0.000 A 
ATOM     21 CL   UNL     1       2.210  10.673  17.884  0.00  0.00    +0.000 Cl
BRANCH  17  22
ATOM     22  O   UNL     1       2.616   5.280  20.138  0.00  0.00    +0.000 OA
BRANCH  22  23
ATOM     23  C   UNL     1       2.266   4.141  19.337  0.00  0.00    +0.000 C 
BRANCH  23  24
ATOM     24  C   UNL     1       2.590   2.846  20.117  0.00  0.00    +0.000 C 
ATOM     25  C   UNL     1       4.082   2.506  20.078  0.00  0.00    +0.000 C 
ATOM     26  C   UNL     1       2.116   2.971  21.565  0.00  0.00    +0.000 C 
BRANCH  24  27
ATOM     27  O   UNL     1       1.878   1.750  19.526  0.00  0.00    +0.000 OA
ATOM     28  H   UNL     1       1.683   1.129  20.253  0.00  0.00    +0.000 HD
ENDBRANCH  24  27
ENDBRANCH  23  24
ENDBRANCH  22  23
ENDBRANCH  17  22
ENDBRANCH  11  15
BRANCH   6  29
ATOM     29  C   UNL     1      -4.449  11.038  16.490  0.00  0.00    +0.000 C 
ATOM     30  C   UNL     1      -5.292  12.295  16.719  0.00  0.00    +0.000 C 
ATOM     31  C   UNL     1      -3.795  11.068  15.107  0.00  0.00    +0.000 C 
ENDBRANCH   6  29
TORSDOF 6
ENDMDL
MODEL 5
REMARK VINA RESULT:      -6.9      0.939      1.311
REMARK  Name = 
REMARK  11 active torsions:
REMARK  status: ('A' for Active; 'I' for Inactive)
REMARK    1  A    between atoms: C_1  and  C_2
REMARK    2  A    between atoms: C_6  and  C_7
REMARK    3  A    between atoms: C_7  and  C_8
REMARK    4  A    between atoms: C_7  and  C_9
REMARK    5  A    between atoms: C_14  and  C_15
REMARK    6  A    between atoms: C_17  and  O_18
REMARK    7  A    between atoms: O_18  and  C_19
REMARK    8  A    between atoms: C_19  and  C_20
REMARK    9  A    between atoms: C_20  and  C_21
REMARK   10  A    between atoms: C_20  and  C_22
REMARK   11  A    between atoms: C_20  and  O_23
REMARK                            x       y       z     vdW  Elec       q    Type
REMARK                         _______ _______ _______ _____ _____    ______ ____
ROOT
ATOM      1  C   UNL     1       1.805   3.100  22.078  0.00  0.00    +0.000 C 
ATOM      2  C   UNL     1       2.205   4.101  21.034  0.00  0.00    +0.000 A 
ATOM      3  N   UNL     1       1.608   5.253  20.963  0.00  0.00    +0.000 NA
ATOM      4  C   UNL     1       2.014   6.153  19.945  0.00  0.00    +0.000 A 
ATOM      5  C   UNL     1       1.424   7.415  19.910  0.00  0.00    +0.000 A 
ATOM      6  C   UNL     1       1.790   8.346  18.933  0.00  0.00    +0.000 A 
ATOM      7  C   UNL     1       2.721   7.930  17.980  0.00  0.00    +0.000 A 
ATOM      8  N   UNL     1       3.310   6.707  17.956  0.00  0.00    +0.000 NA
ATOM      9  C   UNL     1       2.987   5.867  18.965  0.00  0.00    +0.000 A 
ATOM     10  N   UNL     1       3.656   4.636  19.129  0.00  0.00    +0.000 N 
ATOM     11  C   UNL     1       4.727   4.007  18.511  0.00  0.00    +0.000 A 
ATOM     12  N   UNL     1       4.843   2.796  19.052  0.00  0.00    +0.000 NA
ATOM     13  N   UNL     1       3.931   2.653  20.061  0.00  0.00    +0.000 NA
ATOM     14  C   UNL     1       3.250   3.768  20.109  0.00  0.00    +0.000 A 
ENDROOT
BRANCH  11  15
ATOM     15  C   UNL     1       5.622   4.457  17.434  0.00  0.00    +0.000 A 
ATOM     16  C   UNL     1       5.375   3.913  16.147  0.00  0.00    +0.000 A 
ATOM     17  C   UNL     1       6.225   4.159  15.064  0.00  0.00    +0.000 A 
ATOM     18  C   UNL     1       7.298   5.027  15.238  0.00  0.00    +0.000 A 
ATOM     19  C   UNL     1       7.572   5.566  16.497  0.00  0.00    +0.000 A 
ATOM     20  C   UNL     1       6.778   5.231  17.603  0.00  0.00    +0.000 A 
ATOM     21 CL   UNL     1       7.428   5.646  19.154  0.00  0.00    +0.000 Cl
BRANCH  17  22
ATOM     22  O   UNL     1       6.137   3.597  13.819  0.00  0.00    +0.000 OA
BRANCH  22  23
ATOM     23  C   UNL     1       5.108   4.090  12.946  0.00  0.00    +0.000 C 
BRANCH  23  24
ATOM     24  C   UNL     1       5.095   3.255  11.645  0.00  0.00    +0.000 C 
ATOM     25  C   UNL     1       5.919   1.972  11.775  0.00  0.00    +0.000 C 
ATOM     26  C   UNL     1       3.657   2.920  11.249  0.00  0.00    +0.000 C 
BRANCH  24  27
ATOM     27  O   UNL     1       5.663   4.031  10.582  0.00  0.00    +0.000 OA
ATOM     28  H   UNL     1       6.152   4.760  11.008  0.00  0.00    +0.000 HD
ENDBRANCH  24  27
ENDBRANCH  23  24
ENDBRANCH  22  23
ENDBRANCH  17  22
ENDBRANCH  11  15
BRANCH   6  29
ATOM     29  C   UNL     1       1.183   9.735  18.944  0.00  0.00    +0.000 C 
ATOM     30  C   UNL     1       0.789  10.182  20.353  0.00  0.00    +0.000 C 
ATOM     31  C   UNL     1       2.111  10.760  18.289  0.00  0.00    +0.000 C 
ENDBRANCH   6  29
TORSDOF 6
ENDMDL
MODEL 6
REMARK VINA RESULT:      -6.7      5.851      8.535
REMARK  Name = 
REMARK  11 active torsions:
REMARK  status: ('A' for Active; 'I' for Inactive)
REMARK    1  A    between atoms: C_1  and  C_2
REMARK    2  A    between atoms: C_6  and  C_7
REMARK    3  A    between atoms: C_7  and  C_8
REMARK    4  A    between atoms: C_7  and  C_9
REMARK    5  A    between atoms: C_14  and  C_15
REMARK    6  A    between atoms: C_17  and  O_18
REMARK    7  A    between atoms: O_18  and  C_19
REMARK    8  A    between atoms: C_19  and  C_20
REMARK    9  A    between atoms: C_20  and  C_21
REMARK   10  A    between atoms: C_20  and  C_22
REMARK   11  A    between atoms: C_20  and  O_23
REMARK                            x       y       z     vdW  Elec       q    Type
REMARK                         _______ _______ _______ _____ _____    ______ ____
ROOT
ATOM      1  C   UNL     1      -1.204  15.193  22.276  0.00  0.00    +0.000 C 
ATOM      2  C   UNL     1      -1.431  14.026  21.360  0.00  0.00    +0.000 A 
ATOM      3  N   UNL     1      -2.581  13.861  20.776  0.00  0.00    +0.000 NA
ATOM      4  C   UNL     1      -2.746  12.733  19.935  0.00  0.00    +0.000 A 
ATOM      5  C   UNL     1      -3.955  12.590  19.256  0.00  0.00    +0.000 A 
ATOM      6  C   UNL     1      -4.171  11.500  18.406  0.00  0.00    +0.000 A 
ATOM      7  C   UNL     1      -3.151  10.552  18.322  0.00  0.00    +0.000 A 
ATOM      8  N   UNL     1      -1.965  10.631  18.978  0.00  0.00    +0.000 NA
ATOM      9  C   UNL     1      -1.766  11.741  19.724  0.00  0.00    +0.000 A 
ATOM     10  N   UNL     1      -0.514  12.003  20.319  0.00  0.00    +0.000 N 
ATOM     11  C   UNL     1       0.737  11.403  20.287  0.00  0.00    +0.000 A 
ATOM     12  N   UNL     1       1.518  12.066  21.138  0.00  0.00    +0.000 NA
ATOM     13  N   UNL     1       0.834  13.130  21.657  0.00  0.00    +0.000 NA
ATOM     14  C   UNL     1      -0.366  13.091  21.139  0.00  0.00    +0.000 A 
ENDROOT
BRANCH  11  15
ATOM     15  C   UNL     1       1.231  10.239  19.536  0.00  0.00    +0.000 A 
ATOM     16  C   UNL     1       1.194   8.994  20.216  0.00  0.00    +0.000 A 
ATOM     17  C   UNL     1       1.748   7.834  19.665  0.00  0.00    +0.000 A 
ATOM     18  C   UNL     1       2.278   7.889  18.381  0.00  0.00    +0.000 A 
ATOM     19  C   UNL     1       2.340   9.103  17.695  0.00  0.00    +0.000 A 
ATOM     20  C   UNL     1       1.880  10.284  18.294  0.00  0.00    +0.000 A 
ATOM     21 CL   UNL     1       2.349  11.759  17.517  0.00  0.00    +0.000 Cl
BRANCH  17  22
ATOM     22  O   UNL     1       1.860   6.616  20.282  0.00  0.00    +0.000 OA
BRANCH  22  23
ATOM     23  C   UNL     1       2.292   5.509  19.477  0.00  0.00    +0.000 C 
BRANCH  23  24
ATOM     24  C   UNL     1       2.329   4.229  20.343  0.00  0.00    +0.000 C 
ATOM     25  C   UNL     1       1.006   3.461  20.294  0.00  0.00    +0.000 C 
ATOM     26  C   UNL     1       3.480   3.325  19.900  0.00  0.00    +0.000 C 
BRANCH  24  27
ATOM     27  O   UNL     1       2.571   4.592  21.709  0.00  0.00    +0.000 OA
ATOM     28  H   UNL     1       1.855   4.182  22.230  0.00  0.00    +0.000 HD
ENDBRANCH  24  27
ENDBRANCH  23  24
ENDBRANCH  22  23
ENDBRANCH  17  22
ENDBRANCH  11  15
BRANCH   6  29
ATOM     29  C   UNL     1      -5.468  11.391  17.628  0.00  0.00    +0.000 C 
ATOM     30  C   UNL     1      -6.561  10.677  18.426  0.00  0.00    +0.000 C 
ATOM     31  C   UNL     1      -5.953  12.759  17.147  0.00  0.00    +0.000 C 
ENDBRANCH   6  29
TORSDOF 6
ENDMDL
MODEL 7
REMARK VINA RESULT:      -6.7      5.910      9.066
REMARK  Name = 
REMARK  11 active torsions:
REMARK  status: ('A' for Active; 'I' for Inactive)
REMARK    1  A    between atoms: C_1  and  C_2
REMARK    2  A    between atoms: C_6  and  C_7
REMARK    3  A    between atoms: C_7  and  C_8
REMARK    4  A    between atoms: C_7  and  C_9
REMARK    5  A    between atoms: C_14  and  C_15
REMARK    6  A    between atoms: C_17  and  O_18
REMARK    7  A    between atoms: O_18  and  C_19
REMARK    8  A    between atoms: C_19  and  C_20
REMARK    9  A    between atoms: C_20  and  C_21
REMARK   10  A    between atoms: C_20  and  C_22
REMARK   11  A    between atoms: C_20  and  O_23
REMARK                            x       y       z     vdW  Elec       q    Type
REMARK                         _______ _______ _______ _____ _____    ______ ____
ROOT
ATOM      1  C   UNL     1      -2.881  14.148  24.044  0.00  0.00    +0.000 C 
ATOM      2  C   UNL     1      -2.798  13.502  22.693  0.00  0.00    +0.000 A 
ATOM      3  N   UNL     1      -3.858  13.394  21.948  0.00  0.00    +0.000 NA
ATOM      4  C   UNL     1      -3.725  12.759  20.688  0.00  0.00    +0.000 A 
ATOM      5  C   UNL     1      -4.845  12.702  19.860  0.00  0.00    +0.000 A 
ATOM      6  C   UNL     1      -4.771  12.095  18.602  0.00  0.00    +0.000 A 
ATOM      7  C   UNL     1      -3.553  11.509  18.253  0.00  0.00    +0.000 A 
ATOM      8  N   UNL     1      -2.440  11.517  19.030  0.00  0.00    +0.000 NA
ATOM      9  C   UNL     1      -2.532  12.185  20.202  0.00  0.00    +0.000 A 
ATOM     10  N   UNL     1      -1.396  12.393  21.012  0.00  0.00    +0.000 N 
ATOM     11  C   UNL     1      -0.039  12.133  20.891  0.00  0.00    +0.000 A 
ATOM     12  N   UNL     1       0.537  12.481  22.040  0.00  0.00    +0.000 NA
ATOM     13  N   UNL     1      -0.395  13.037  22.872  0.00  0.00    +0.000 NA
ATOM     14  C   UNL     1      -1.535  12.999  22.233  0.00  0.00    +0.000 A 
ENDROOT
BRANCH  11  15
ATOM     15  C   UNL     1       0.740  11.558  19.783  0.00  0.00    +0.000 A 
ATOM     16  C   UNL     1       0.794  10.141  19.727  0.00  0.00    +0.000 A 
ATOM     17  C   UNL     1       1.599   9.467  18.803  0.00  0.00    +0.000 A 
ATOM     18  C   UNL     1       2.304  10.210  17.862  0.00  0.00    +0.000 A 
ATOM     19  C   UNL     1       2.279  11.605  17.903  0.00  0.00    +0.000 A 
ATOM     20  C   UNL     1       1.555  12.276  18.898  0.00  0.00    +0.000 A 
ATOM     21 CL   UNL     1       1.902  13.964  19.079  0.00  0.00    +0.000 Cl
BRANCH  17  22
ATOM     22  O   UNL     1       1.804   8.115  18.739  0.00  0.00    +0.000 OA
BRANCH  22  23
ATOM     23  C   UNL     1       2.045   7.427  19.976  0.00  0.00    +0.000 C 
BRANCH  23  24
ATOM     24  C   UNL     1       2.448   5.964  19.679  0.00  0.00    +0.000 C 
ATOM     25  C   UNL     1       1.689   4.967  20.557  0.00  0.00    +0.000 C 
ATOM     26  C   UNL     1       2.221   5.645  18.202  0.00  0.00    +0.000 C 
BRANCH  24  27
ATOM     27  O   UNL     1       3.848   5.799  19.943  0.00  0.00    +0.000 OA
ATOM     28  H   UNL     1       4.303   5.938  19.091  0.00  0.00    +0.000 HD
ENDBRANCH  24  27
ENDBRANCH  23  24
ENDBRANCH  22  23
ENDBRANCH  17  22
ENDBRANCH  11  15
BRANCH   6  29
ATOM     29  C   UNL     1      -5.980  12.093  17.688  0.00  0.00    +0.000 C 
ATOM     30  C   UNL     1      -7.084  11.162  18.193  0.00  0.00    +0.000 C 
ATOM     31  C   UNL     1      -6.522  13.507  17.469  0.00  0.00    +0.000 C 
ENDBRANCH   6  29
TORSDOF 6
ENDMDL
MODEL 8
REMARK VINA RESULT:      -6.7      2.929      4.681
REMARK  Name = 
REMARK  11 active torsions:
REMARK  status: ('A' for Active; 'I' for Inactive)
REMARK    1  A    between atoms: C_1  and  C_2
REMARK    2  A    between atoms: C_6  and  C_7
REMARK    3  A    between atoms: C_7  and  C_8
REMARK    4  A    between atoms: C_7  and  C_9
REMARK    5  A    between atoms: C_14  and  C_15
REMARK    6  A    between atoms: C_17  and  O_18
REMARK    7  A    between atoms: O_18  and  C_19
REMARK    8  A    between atoms: C_19  and  C_20
REMARK    9  A    between atoms: C_20  and  C_21
REMARK   10  A    between atoms: C_20  and  C_22
REMARK   11  A    between atoms: C_20  and  O_23
REMARK                            x       y       z     vdW  Elec       q    Type
REMARK                         _______ _______ _______ _____ _____    ______ ____
ROOT
ATOM      1  C   UNL     1       1.706   2.702  21.640  0.00  0.00    +0.000 C 
ATOM      2  C   UNL     1       2.131   3.912  20.861  0.00  0.00    +0.000 A 
ATOM      3  N   UNL     1       1.422   5.001  20.894  0.00  0.00    +0.000 NA
ATOM      4  C   UNL     1       1.862   6.106  20.125  0.00  0.00    +0.000 A 
ATOM      5  C   UNL     1       1.141   7.296  20.213  0.00  0.00    +0.000 A 
ATOM      6  C   UNL     1       1.533   8.423  19.482  0.00  0.00    +0.000 A 
ATOM      7  C   UNL     1       2.631   8.275  18.633  0.00  0.00    +0.000 A 
ATOM      8  N   UNL     1       3.354   7.135  18.494  0.00  0.00    +0.000 NA
ATOM      9  C   UNL     1       2.990   6.096  19.279  0.00  0.00    +0.000 A 
ATOM     10  N   UNL     1       3.766   4.919  19.333  0.00  0.00    +0.000 N 
ATOM     11  C   UNL     1       4.979   4.513  18.796  0.00  0.00    +0.000 A 
ATOM     12  N   UNL     1       5.156   3.237  19.132  0.00  0.00    +0.000 NA
ATOM     13  N   UNL     1       4.133   2.829  19.944  0.00  0.00    +0.000 NA
ATOM     14  C   UNL     1       3.328   3.851  20.072  0.00  0.00    +0.000 A 
ENDROOT
BRANCH  11  15
ATOM     15  C   UNL     1       5.960   5.234  17.970  0.00  0.00    +0.000 A 
ATOM     16  C   UNL     1       6.698   6.255  18.624  0.00  0.00    +0.000 A 
ATOM     17  C   UNL     1       7.570   7.098  17.928  0.00  0.00    +0.000 A 
ATOM     18  C   UNL     1       7.777   6.875  16.571  0.00  0.00    +0.000 A 
ATOM     19  C   UNL     1       7.054   5.887  15.900  0.00  0.00    +0.000 A 
ATOM     20  C   UNL     1       6.102   5.115  16.581  0.00  0.00    +0.000 A 
ATOM     21 CL   UNL     1       5.016   4.203  15.586  0.00  0.00    +0.000 Cl
BRANCH  17  22
ATOM     22  O   UNL     1       8.240   8.175  18.443  0.00  0.00    +0.000 OA
BRANCH  22  23
ATOM     23  C   UNL     1       8.121   9.421  17.739  0.00  0.00    +0.000 C 
BRANCH  23  24
ATOM     24  C   UNL     1       8.991  10.491  18.439  0.00  0.00    +0.000 C 
ATOM     25  C   UNL     1       9.208  10.178  19.921  0.00  0.00    +0.000 C 
ATOM     26  C   UNL     1      10.336  10.625  17.726  0.00  0.00    +0.000 C 
BRANCH  24  27
ATOM     27  O   UNL     1       8.332  11.762  18.354  0.00  0.00    +0.000 OA
ATOM     28  H   UNL     1       8.860  12.378  18.896  0.00  0.00    +0.000 HD
ENDBRANCH  24  27
ENDBRANCH  23  24
ENDBRANCH  22  23
ENDBRANCH  17  22
ENDBRANCH  11  15
BRANCH   6  29
ATOM     29  C   UNL     1       0.775   9.727  19.633  0.00  0.00    +0.000 C 
ATOM     30  C   UNL     1       0.038  10.118  18.350  0.00  0.00    +0.000 C 
ATOM     31  C   UNL     1      -0.189   9.683  20.821  0.00  0.00    +0.000 C 
ENDBRANCH   6  29
TORSDOF 6
ENDMDL
MODEL 9
REMARK VINA RESULT:      -6.6      2.942      4.707
REMARK  Name = 
REMARK  11 active torsions:
REMARK  status: ('A' for Active; 'I' for Inactive)
REMARK    1  A    between atoms: C_1  and  C_2
REMARK    2  A    between atoms: C_6  and  C_7
REMARK    3  A    between atoms: C_7  and  C_8
REMARK    4  A    between atoms: C_7  and  C_9
REMARK    5  A    between atoms: C_14  and  C_15
REMARK    6  A    between atoms: C_17  and  O_18
REMARK    7  A    between atoms: O_18  and  C_19
REMARK    8  A    between atoms: C_19  and  C_20
REMARK    9  A    between atoms: C_20  and  C_21
REMARK   10  A    between atoms: C_20  and  C_22
REMARK   11  A    between atoms: C_20  and  O_23
REMARK                            x       y       z     vdW  Elec       q    Type
REMARK                         _______ _______ _______ _____ _____    ______ ____
ROOT
ATOM      1  C   UNL     1       2.242   2.273  21.759  0.00  0.00    +0.000 C 
ATOM      2  C   UNL     1       2.528   3.531  20.993  0.00  0.00    +0.000 A 
ATOM      3  N   UNL     1       1.737   4.558  21.091  0.00  0.00    +0.000 NA
ATOM      4  C   UNL     1       2.047   5.713  20.332  0.00  0.00    +0.000 A 
ATOM      5  C   UNL     1       1.239   6.838  20.488  0.00  0.00    +0.000 A 
ATOM      6  C   UNL     1       1.501   8.009  19.770  0.00  0.00    +0.000 A 
ATOM      7  C   UNL     1       2.561   7.971  18.863  0.00  0.00    +0.000 A 
ATOM      8  N   UNL     1       3.364   6.897  18.656  0.00  0.00    +0.000 NA
ATOM      9  C   UNL     1       3.126   5.814  19.430  0.00  0.00    +0.000 A 
ATOM     10  N   UNL     1       3.995   4.703  19.413  0.00  0.00    +0.000 N 
ATOM     11  C   UNL     1       5.207   4.409  18.805  0.00  0.00    +0.000 A 
ATOM     12  N   UNL     1       5.502   3.143  19.096  0.00  0.00    +0.000 NA
ATOM     13  N   UNL     1       4.559   2.635  19.946  0.00  0.00    +0.000 NA
ATOM     14  C   UNL     1       3.683   3.586  20.143  0.00  0.00    +0.000 A 
ENDROOT
BRANCH  11  15
ATOM     15  C   UNL     1       6.082   5.226  17.950  0.00  0.00    +0.000 A 
ATOM     16  C   UNL     1       6.808   6.256  18.603  0.00  0.00    +0.000 A 
ATOM     17  C   UNL     1       7.578   7.183  17.893  0.00  0.00    +0.000 A 
ATOM     18  C   UNL     1       7.697   7.038  16.515  0.00  0.00    +0.000 A 
ATOM     19  C   UNL     1       6.983   6.042  15.846  0.00  0.00    +0.000 A 
ATOM     20  C   UNL     1       6.129   5.183  16.550  0.00  0.00    +0.000 A 
ATOM     21 CL   UNL     1       5.025   4.257  15.589  0.00  0.00    +0.000 Cl
BRANCH  17  22
ATOM     22  O   UNL     1       8.223   8.272  18.415  0.00  0.00    +0.000 OA
BRANCH  22  23
ATOM     23  C   UNL     1       8.100   9.512  17.703  0.00  0.00    +0.000 C 
BRANCH  23  24
ATOM     24  C   UNL     1       9.079  10.548  18.303  0.00  0.00    +0.000 C 
ATOM     25  C   UNL     1       8.602  11.986  18.088  0.00  0.00    +0.000 C 
ATOM     26  C   UNL     1       9.282  10.278  19.794  0.00  0.00    +0.000 C 
BRANCH  24  27
ATOM     27  O   UNL     1      10.356  10.412  17.665  0.00  0.00    +0.000 OA
ATOM     28  H   UNL     1      10.913   9.897  18.279  0.00  0.00    +0.000 HD
ENDBRANCH  24  27
ENDBRANCH  23  24
ENDBRANCH  22  23
ENDBRANCH  17  22
ENDBRANCH  11  15
BRANCH   6  29
ATOM     29  C   UNL     1       0.650   9.244  19.995  0.00  0.00    +0.000 C 
ATOM     30  C   UNL     1       0.690   9.714  21.451  0.00  0.00    +0.000 C 
ATOM     31  C   UNL     1       1.043  10.379  19.048  0.00  0.00    +0.000 C 
ENDBRANCH   6  29
TORSDOF 6
ENDMDL
