MODEL 1
REMARK VINA RESULT:      -7.0      0.000      0.000
REMARK  Name = 
REMARK  9 active torsions:
REMARK  status: ('A' for Active; 'I' for Inactive)
REMARK    1  A    between atoms: C_1  and  C_2
REMARK    2  A    between atoms: C_4  and  C_5
REMARK    3  A    between atoms: C_5  and  C_6
REMARK    4  A    between atoms: C_6  and  C_7
REMARK    5  A    between atoms: C_7  and  O_8
REMARK    6  A    between atoms: O_8  and  C_9
REMARK    7  A    between atoms: C_9  and  C_10
REMARK    8  A    between atoms: C_16  and  O_17
REMARK    9  A    between atoms: C_26  and  O_27
REMARK                            x       y       z     vdW  Elec       q    Type
REMARK                         _______ _______ _______ _____ _____    ______ ____
ROOT
ATOM      1  C   UNL     1       4.927   4.223  19.419  0.00  0.00    +0.000 C 
ATOM      2  C   UNL     1       3.505   3.998  18.839  0.00  0.00    +0.000 C 
ATOM      3  C   UNL     1       3.317   4.698  17.480  0.00  0.00    +0.000 C 
ATOM      4  C   UNL     1       3.190   6.248  17.575  0.00  0.00    +0.000 C 
ATOM      5  C   UNL     1       2.059   6.645  18.597  0.00  0.00    +0.000 C 
ATOM      6  C   UNL     1       1.791   8.144  18.745  0.00  0.00    +0.000 A 
ATOM      7  C   UNL     1       1.859   9.007  17.636  0.00  0.00    +0.000 A 
ATOM      8  C   UNL     1       1.790  10.394  17.794  0.00  0.00    +0.000 A 
ATOM      9  C   UNL     1       1.602  10.925  19.060  0.00  0.00    +0.000 A 
ATOM     10  C   UNL     1       1.383  10.091  20.146  0.00  0.00    +0.000 A 
ATOM     11  C   UNL     1       1.449   8.695  19.996  0.00  0.00    +0.000 A 
ATOM     12  C   UNL     1       1.199   7.844  21.215  0.00  0.00    +0.000 C 
ATOM     13  C   UNL     1       1.152   6.345  20.929  0.00  0.00    +0.000 C 
ATOM     14  C   UNL     1       2.287   5.952  19.980  0.00  0.00    +0.000 C 
ATOM     15  C   UNL     1       2.348   4.437  19.766  0.00  0.00    +0.000 C 
ATOM     16  C   UNL     1       2.497   3.490  20.953  0.00  0.00    +0.000 C 
ATOM     17  C   UNL     1       2.927   2.156  20.307  0.00  0.00    +0.000 C 
ATOM     18  C   UNL     1       3.222   2.480  18.822  0.00  0.00    +0.000 C 
ENDROOT
BRANCH   9  19
ATOM     19  O   UNL     1       1.635  12.270  19.278  0.00  0.00    +0.000 OA
ATOM     20  H   UNL     1       1.952  12.423  20.184  0.00  0.00    +0.000 HD
ENDBRANCH   9  19
BRANCH  18  21
ATOM     21  O   UNL     1       4.277   1.705  18.283  0.00  0.00    +0.000 OA
ATOM     22  H   UNL     1       5.023   2.289  18.072  0.00  0.00    +0.000 HD
ENDBRANCH  18  21
BRANCH   4  23
ATOM     23  C   UNL     1       4.542   6.961  17.834  0.00  0.00    +0.000 C 
BRANCH  23  24
ATOM     24  C   UNL     1       5.506   6.981  16.636  0.00  0.00    +0.000 C 
BRANCH  24  25
ATOM     25  C   UNL     1       6.858   6.354  16.954  0.00  0.00    +0.000 C 
BRANCH  25  26
ATOM     26  O   UNL     1       7.316   5.705  15.772  0.00  0.00    +0.000 OA
BRANCH  26  27
ATOM     27  C   UNL     1       6.257   5.312  14.912  0.00  0.00    +0.000 C 
BRANCH  27  28
ATOM     28  C   UNL     1       6.260   3.798  14.813  0.00  0.00    +0.000 C 
ATOM     29  F   UNL     1       5.720   3.270  15.937  0.00  0.00    +0.000 F 
ENDBRANCH  27  28
ENDBRANCH  26  27
ENDBRANCH  25  26
ENDBRANCH  24  25
ENDBRANCH  23  24
ENDBRANCH   4  23
TORSDOF 8
ENDMDL
MODEL 2
REMARK VINA RESULT:      -6.7      1.463      1.916
REMARK  Name = 
REMARK  9 active torsions:
REMARK  status: ('A' for Active; 'I' for Inactive)
REMARK    1  A    between atoms: C_1  and  C_2
REMARK    2  A    between atoms: C_4  and  C_5
REMARK    3  A    between atoms: C_5  and  C_6
REMARK    4  A    between atoms: C_6  and  C_7
REMARK    5  A    between atoms: C_7  and  O_8
REMARK    6  A    between atoms: O_8  and  C_9
REMARK    7  A    between atoms: C_9  and  C_10
REMARK    8  A    between atoms: C_16  and  O_17
REMARK    9  A    between atoms: C_26  and  O_27
REMARK                            x       y       z     vdW  Elec       q    Type
REMARK                         _______ _______ _______ _____ _____    ______ ____
ROOT
ATOM      1  C   UNL     1       4.901   4.099  19.428  0.00  0.00    +0.000 C 
ATOM      2  C   UNL     1       3.445   3.851  18.951  0.00  0.00    +0.000 C 
ATOM      3  C   UNL     1       3.174   4.477  17.571  0.00  0.00    +0.000 C 
ATOM      4  C   UNL     1       3.055   6.031  17.590  0.00  0.00    +0.000 C 
ATOM      5  C   UNL     1       1.991   6.488  18.658  0.00  0.00    +0.000 C 
ATOM      6  C   UNL     1       1.735   7.994  18.742  0.00  0.00    +0.000 A 
ATOM      7  C   UNL     1       1.735   8.796  17.586  0.00  0.00    +0.000 A 
ATOM      8  C   UNL     1       1.678  10.190  17.673  0.00  0.00    +0.000 A 
ATOM      9  C   UNL     1       1.571  10.788  18.919  0.00  0.00    +0.000 A 
ATOM     10  C   UNL     1       1.418  10.015  20.060  0.00  0.00    +0.000 A 
ATOM     11  C   UNL     1       1.473   8.613  19.980  0.00  0.00    +0.000 A 
ATOM     12  C   UNL     1       1.299   7.829  21.257  0.00  0.00    +0.000 C 
ATOM     13  C   UNL     1       1.231   6.318  21.055  0.00  0.00    +0.000 C 
ATOM     14  C   UNL     1       2.304   5.868  20.060  0.00  0.00    +0.000 C 
ATOM     15  C   UNL     1       2.350   4.344  19.923  0.00  0.00    +0.000 C 
ATOM     16  C   UNL     1       2.570   3.462  21.148  0.00  0.00    +0.000 C 
ATOM     17  C   UNL     1       2.957   2.092  20.549  0.00  0.00    +0.000 C 
ATOM     18  C   UNL     1       3.160   2.336  19.033  0.00  0.00    +0.000 C 
ENDROOT
BRANCH   9  19
ATOM     19  O   UNL     1       1.619  12.143  19.062  0.00  0.00    +0.000 OA
ATOM     20  H   UNL     1       1.619  12.348  20.012  0.00  0.00    +0.000 HD
ENDBRANCH   9  19
BRANCH  18  21
ATOM     21  O   UNL     1       4.177   1.527  18.472  0.00  0.00    +0.000 OA
ATOM     22  H   UNL     1       4.467   0.878  19.134  0.00  0.00    +0.000 HD
ENDBRANCH  18  21
BRANCH   4  23
ATOM     23  C   UNL     1       4.422   6.750  17.726  0.00  0.00    +0.000 C 
BRANCH  23  24
ATOM     24  C   UNL     1       5.271   6.779  16.444  0.00  0.00    +0.000 C 
BRANCH  24  25
ATOM     25  C   UNL     1       6.477   5.850  16.513  0.00  0.00    +0.000 C 
BRANCH  25  26
ATOM     26  O   UNL     1       7.635   6.663  16.672  0.00  0.00    +0.000 OA
BRANCH  26  27
ATOM     27  C   UNL     1       7.777   7.169  17.990  0.00  0.00    +0.000 C 
BRANCH  27  28
ATOM     28  C   UNL     1       8.302   8.589  17.903  0.00  0.00    +0.000 C 
ATOM     29  F   UNL     1       7.264   9.446  17.745  0.00  0.00    +0.000 F 
ENDBRANCH  27  28
ENDBRANCH  26  27
ENDBRANCH  25  26
ENDBRANCH  24  25
ENDBRANCH  23  24
ENDBRANCH   4  23
TORSDOF 8
ENDMDL
MODEL 3
REMARK VINA RESULT:      -6.6      1.328      1.655
REMARK  Name = 
REMARK  9 active torsions:
REMARK  status: ('A' for Active; 'I' for Inactive)
REMARK    1  A    between atoms: C_1  and  C_2
REMARK    2  A    between atoms: C_4  and  C_5
REMARK    3  A    between atoms: C_5  and  C_6
REMARK    4  A    between atoms: C_6  and  C_7
REMARK    5  A    between atoms: C_7  and  O_8
REMARK    6  A    between atoms: O_8  and  C_9
REMARK    7  A    between atoms: C_9  and  C_10
REMARK    8  A    between atoms: C_16  and  O_17
REMARK    9  A    between atoms: C_26  and  O_27
REMARK                            x       y       z     vdW  Elec       q    Type
REMARK                         _______ _______ _______ _____ _____    ______ ____
ROOT
ATOM      1  C   UNL     1       4.473   4.118  19.643  0.00  0.00    +0.000 C 
ATOM      2  C   UNL     1       2.998   3.973  19.180  0.00  0.00    +0.000 C 
ATOM      3  C   UNL     1       2.772   4.563  17.776  0.00  0.00    +0.000 C 
ATOM      4  C   UNL     1       2.784   6.121  17.731  0.00  0.00    +0.000 C 
ATOM      5  C   UNL     1       1.768   6.709  18.783  0.00  0.00    +0.000 C 
ATOM      6  C   UNL     1       1.640   8.234  18.805  0.00  0.00    +0.000 A 
ATOM      7  C   UNL     1       1.700   8.984  17.616  0.00  0.00    +0.000 A 
ATOM      8  C   UNL     1       1.760  10.380  17.646  0.00  0.00    +0.000 A 
ATOM      9  C   UNL     1       1.712  11.037  18.866  0.00  0.00    +0.000 A 
ATOM     10  C   UNL     1       1.502  10.326  20.038  0.00  0.00    +0.000 A 
ATOM     11  C   UNL     1       1.439   8.922  20.017  0.00  0.00    +0.000 A 
ATOM     12  C   UNL     1       1.208   8.209  21.325  0.00  0.00    +0.000 C 
ATOM     13  C   UNL     1       1.013   6.702  21.187  0.00  0.00    +0.000 C 
ATOM     14  C   UNL     1       2.038   6.123  20.208  0.00  0.00    +0.000 C 
ATOM     15  C   UNL     1       1.954   4.596  20.135  0.00  0.00    +0.000 C 
ATOM     16  C   UNL     1       2.108   3.750  21.394  0.00  0.00    +0.000 C 
ATOM     17  C   UNL     1       2.375   2.329  20.851  0.00  0.00    +0.000 C 
ATOM     18  C   UNL     1       2.588   2.492  19.326  0.00  0.00    +0.000 C 
ENDROOT
BRANCH   9  19
ATOM     19  O   UNL     1       1.874  12.387  18.952  0.00  0.00    +0.000 OA
ATOM     20  H   UNL     1       2.690  12.563  19.449  0.00  0.00    +0.000 HD
ENDBRANCH   9  19
BRANCH  18  21
ATOM     21  O   UNL     1       3.530   1.578  18.796  0.00  0.00    +0.000 OA
ATOM     22  H   UNL     1       4.422   1.856  19.060  0.00  0.00    +0.000 HD
ENDBRANCH  18  21
BRANCH   4  23
ATOM     23  C   UNL     1       4.207   6.728  17.833  0.00  0.00    +0.000 C 
BRANCH  23  24
ATOM     24  C   UNL     1       4.972   6.816  16.502  0.00  0.00    +0.000 C 
BRANCH  24  25
ATOM     25  C   UNL     1       5.913   5.638  16.281  0.00  0.00    +0.000 C 
BRANCH  25  26
ATOM     26  O   UNL     1       7.153   5.960  16.903  0.00  0.00    +0.000 OA
BRANCH  26  27
ATOM     27  C   UNL     1       7.551   5.001  17.870  0.00  0.00    +0.000 C 
BRANCH  27  28
ATOM     28  C   UNL     1       7.923   5.734  19.144  0.00  0.00    +0.000 C 
ATOM     29  F   UNL     1       8.398   6.965  18.836  0.00  0.00    +0.000 F 
ENDBRANCH  27  28
ENDBRANCH  26  27
ENDBRANCH  25  26
ENDBRANCH  24  25
ENDBRANCH  23  24
ENDBRANCH   4  23
TORSDOF 8
ENDMDL
MODEL 4
REMARK VINA RESULT:      -6.3      1.926      4.416
REMARK  Name = 
REMARK  9 active torsions:
REMARK  status: ('A' for Active; 'I' for Inactive)
REMARK    1  A    between atoms: C_1  and  C_2
REMARK    2  A    between atoms: C_4  and  C_5
REMARK    3  A    between atoms: C_5  and  C_6
REMARK    4  A    between atoms: C_6  and  C_7
REMARK    5  A    between atoms: C_7  and  O_8
REMARK    6  A    between atoms: O_8  and  C_9
REMARK    7  A    between atoms: C_9  and  C_10
REMARK    8  A    between atoms: C_16  and  O_17
REMARK    9  A    between atoms: C_26  and  O_27
REMARK                            x       y       z     vdW  Elec       q    Type
REMARK                         _______ _______ _______ _____ _____    ______ ____
ROOT
ATOM      1  C   UNL     1       2.971   4.485  17.110  0.00  0.00    +0.000 C 
ATOM      2  C   UNL     1       4.080   5.285  17.847  0.00  0.00    +0.000 C 
ATOM      3  C   UNL     1       3.956   5.170  19.377  0.00  0.00    +0.000 C 
ATOM      4  C   UNL     1       2.770   5.981  19.981  0.00  0.00    +0.000 C 
ATOM      5  C   UNL     1       2.834   7.483  19.511  0.00  0.00    +0.000 C 
ATOM      6  C   UNL     1       1.754   8.406  20.079  0.00  0.00    +0.000 A 
ATOM      7  C   UNL     1       1.298   8.262  21.402  0.00  0.00    +0.000 A 
ATOM      8  C   UNL     1       0.195   8.981  21.869  0.00  0.00    +0.000 A 
ATOM      9  C   UNL     1      -0.430   9.888  21.027  0.00  0.00    +0.000 A 
ATOM     10  C   UNL     1       0.092  10.156  19.771  0.00  0.00    +0.000 A 
ATOM     11  C   UNL     1       1.203   9.438  19.295  0.00  0.00    +0.000 A 
ATOM     12  C   UNL     1       1.724   9.779  17.921  0.00  0.00    +0.000 C 
ATOM     13  C   UNL     1       3.012   9.051  17.546  0.00  0.00    +0.000 C 
ATOM     14  C   UNL     1       2.925   7.577  17.953  0.00  0.00    +0.000 C 
ATOM     15  C   UNL     1       4.148   6.785  17.483  0.00  0.00    +0.000 C 
ATOM     16  C   UNL     1       4.532   6.753  16.007  0.00  0.00    +0.000 C 
ATOM     17  C   UNL     1       5.511   5.564  15.909  0.00  0.00    +0.000 C 
ATOM     18  C   UNL     1       5.448   4.849  17.281  0.00  0.00    +0.000 C 
ENDROOT
BRANCH   9  19
ATOM     19  O   UNL     1      -1.572  10.533  21.400  0.00  0.00    +0.000 OA
ATOM     20  H   UNL     1      -2.302  10.196  20.856  0.00  0.00    +0.000 HD
ENDBRANCH   9  19
BRANCH  18  21
ATOM     21  O   UNL     1       5.611   3.446  17.184  0.00  0.00    +0.000 OA
ATOM     22  H   UNL     1       6.440   3.255  16.715  0.00  0.00    +0.000 HD
ENDBRANCH  18  21
BRANCH   4  23
ATOM     23  C   UNL     1       1.389   5.314  19.750  0.00  0.00    +0.000 C 
BRANCH  23  24
ATOM     24  C   UNL     1       1.166   4.000  20.517  0.00  0.00    +0.000 C 
BRANCH  24  25
ATOM     25  C   UNL     1       0.878   2.820  19.596  0.00  0.00    +0.000 C 
BRANCH  25  26
ATOM     26  O   UNL     1       1.818   1.797  19.907  0.00  0.00    +0.000 OA
BRANCH  26  27
ATOM     27  C   UNL     1       2.883   1.724  18.972  0.00  0.00    +0.000 C 
BRANCH  27  28
ATOM     28  C   UNL     1       4.192   1.739  19.739  0.00  0.00    +0.000 C 
ATOM     29  F   UNL     1       3.983   2.235  20.981  0.00  0.00    +0.000 F 
ENDBRANCH  27  28
ENDBRANCH  26  27
ENDBRANCH  25  26
ENDBRANCH  24  25
ENDBRANCH  23  24
ENDBRANCH   4  23
TORSDOF 8
ENDMDL
MODEL 5
REMARK VINA RESULT:      -6.2      4.632      8.951
REMARK  Name = 
REMARK  9 active torsions:
REMARK  status: ('A' for Active; 'I' for Inactive)
REMARK    1  A    between atoms: C_1  and  C_2
REMARK    2  A    between atoms: C_4  and  C_5
REMARK    3  A    between atoms: C_5  and  C_6
REMARK    4  A    between atoms: C_6  and  C_7
REMARK    5  A    between atoms: C_7  and  O_8
REMARK    6  A    between atoms: O_8  and  C_9
REMARK    7  A    between atoms: C_9  and  C_10
REMARK    8  A    between atoms: C_16  and  O_17
REMARK    9  A    between atoms: C_26  and  O_27
REMARK                            x       y       z     vdW  Elec       q    Type
REMARK                         _______ _______ _______ _____ _____    ______ ____
ROOT
ATOM      1  C   UNL     1      -3.046  12.019  20.167  0.00  0.00    +0.000 C 
ATOM      2  C   UNL     1      -1.688  12.733  20.407  0.00  0.00    +0.000 C 
ATOM      3  C   UNL     1      -0.861  12.856  19.114  0.00  0.00    +0.000 C 
ATOM      4  C   UNL     1      -0.234  11.514  18.631  0.00  0.00    +0.000 C 
ATOM      5  C   UNL     1       0.594  10.844  19.791  0.00  0.00    +0.000 C 
ATOM      6  C   UNL     1       1.312   9.541  19.433  0.00  0.00    +0.000 A 
ATOM      7  C   UNL     1       1.893   9.358  18.165  0.00  0.00    +0.000 A 
ATOM      8  C   UNL     1       2.392   8.113  17.771  0.00  0.00    +0.000 A 
ATOM      9  C   UNL     1       2.358   7.055  18.665  0.00  0.00    +0.000 A 
ATOM     10  C   UNL     1       1.928   7.249  19.969  0.00  0.00    +0.000 A 
ATOM     11  C   UNL     1       1.426   8.498  20.373  0.00  0.00    +0.000 A 
ATOM     12  C   UNL     1       0.975   8.645  21.805  0.00  0.00    +0.000 C 
ATOM     13  C   UNL     1       0.579  10.068  22.189  0.00  0.00    +0.000 C 
ATOM     14  C   UNL     1      -0.274  10.697  21.084  0.00  0.00    +0.000 C 
ATOM     15  C   UNL     1      -0.794  12.080  21.486  0.00  0.00    +0.000 C 
ATOM     16  C   UNL     1      -1.620  12.260  22.756  0.00  0.00    +0.000 C 
ATOM     17  C   UNL     1      -2.271  13.648  22.577  0.00  0.00    +0.000 C 
ATOM     18  C   UNL     1      -1.965  14.074  21.120  0.00  0.00    +0.000 C 
ENDROOT
BRANCH   9  19
ATOM     19  O   UNL     1       2.734   5.798  18.292  0.00  0.00    +0.000 OA
ATOM     20  H   UNL     1       3.703   5.748  18.330  0.00  0.00    +0.000 HD
ENDBRANCH   9  19
BRANCH  18  21
ATOM     21  O   UNL     1      -3.006  14.833  20.533  0.00  0.00    +0.000 OA
ATOM     22  H   UNL     1      -3.526  14.258  19.949  0.00  0.00    +0.000 HD
ENDBRANCH  18  21
BRANCH   4  23
ATOM     23  C   UNL     1      -1.260  10.559  17.967  0.00  0.00    +0.000 C 
BRANCH  23  24
ATOM     24  C   UNL     1      -2.138  11.203  16.880  0.00  0.00    +0.000 C 
BRANCH  24  25
ATOM     25  C   UNL     1      -2.854  10.175  16.013  0.00  0.00    +0.000 C 
BRANCH  25  26
ATOM     26  O   UNL     1      -4.211  10.590  15.892  0.00  0.00    +0.000 OA
BRANCH  26  27
ATOM     27  C   UNL     1      -4.534  11.677  16.744  0.00  0.00    +0.000 C 
BRANCH  27  28
ATOM     28  C   UNL     1      -5.668  11.249  17.655  0.00  0.00    +0.000 C 
ATOM     29  F   UNL     1      -5.280  10.178  18.388  0.00  0.00    +0.000 F 
ENDBRANCH  27  28
ENDBRANCH  26  27
ENDBRANCH  25  26
ENDBRANCH  24  25
ENDBRANCH  23  24
ENDBRANCH   4  23
TORSDOF 8
ENDMDL
MODEL 6
REMARK VINA RESULT:      -6.2      4.387      8.651
REMARK  Name = 
REMARK  9 active torsions:
REMARK  status: ('A' for Active; 'I' for Inactive)
REMARK    1  A    between atoms: C_1  and  C_2
REMARK    2  A    between atoms: C_4  and  C_5
REMARK    3  A    between atoms: C_5  and  C_6
REMARK    4  A    between atoms: C_6  and  C_7
REMARK    5  A    between atoms: C_7  and  O_8
REMARK    6  A    between atoms: O_8  and  C_9
REMARK    7  A    between atoms: C_9  and  C_10
REMARK    8  A    between atoms: C_16  and  O_17
REMARK    9  A    between atoms: C_26  and  O_27
REMARK                            x       y       z     vdW  Elec       q    Type
REMARK                         _______ _______ _______ _____ _____    ______ ____
ROOT
ATOM      1  C   UNL     1      -3.050  12.094  20.270  0.00  0.00    +0.000 C 
ATOM      2  C   UNL     1      -1.677  12.807  20.400  0.00  0.00    +0.000 C 
ATOM      3  C   UNL     1      -0.918  12.849  19.061  0.00  0.00    +0.000 C 
ATOM      4  C   UNL     1      -0.326  11.476  18.622  0.00  0.00    +0.000 C 
ATOM      5  C   UNL     1       0.557  10.864  19.775  0.00  0.00    +0.000 C 
ATOM      6  C   UNL     1       1.246   9.536  19.453  0.00  0.00    +0.000 A 
ATOM      7  C   UNL     1       1.759   9.277  18.169  0.00  0.00    +0.000 A 
ATOM      8  C   UNL     1       2.229   8.008  17.821  0.00  0.00    +0.000 A 
ATOM      9  C   UNL     1       2.233   7.001  18.774  0.00  0.00    +0.000 A 
ATOM     10  C   UNL     1       1.873   7.272  20.085  0.00  0.00    +0.000 A 
ATOM     11  C   UNL     1       1.401   8.546  20.444  0.00  0.00    +0.000 A 
ATOM     12  C   UNL     1       1.027   8.778  21.886  0.00  0.00    +0.000 C 
ATOM     13  C   UNL     1       0.661  10.224  22.210  0.00  0.00    +0.000 C 
ATOM     14  C   UNL     1      -0.244  10.798  21.117  0.00  0.00    +0.000 C 
ATOM     15  C   UNL     1      -0.732  12.207  21.466  0.00  0.00    +0.000 C 
ATOM     16  C   UNL     1      -1.490  12.465  22.765  0.00  0.00    +0.000 C 
ATOM     17  C   UNL     1      -2.140  13.848  22.542  0.00  0.00    +0.000 C 
ATOM     18  C   UNL     1      -1.907  14.189  21.049  0.00  0.00    +0.000 C 
ENDROOT
BRANCH   9  19
ATOM     19  O   UNL     1       2.581   5.722  18.454  0.00  0.00    +0.000 OA
ATOM     20  H   UNL     1       2.422   5.161  19.230  0.00  0.00    +0.000 HD
ENDBRANCH   9  19
BRANCH  18  21
ATOM     21  O   UNL     1      -2.972  14.924  20.475  0.00  0.00    +0.000 OA
ATOM     22  H   UNL     1      -2.639  15.412  19.704  0.00  0.00    +0.000 HD
ENDBRANCH  18  21
BRANCH   4  23
ATOM     23  C   UNL     1      -1.392  10.496  18.067  0.00  0.00    +0.000 C 
BRANCH  23  24
ATOM     24  C   UNL     1      -2.144  10.993  16.821  0.00  0.00    +0.000 C 
BRANCH  24  25
ATOM     25  C   UNL     1      -3.645  10.740  16.896  0.00  0.00    +0.000 C 
BRANCH  25  26
ATOM     26  O   UNL     1      -4.061  10.260  15.622  0.00  0.00    +0.000 OA
BRANCH  26  27
ATOM     27  C   UNL     1      -3.044  10.352  14.637  0.00  0.00    +0.000 C 
BRANCH  27  28
ATOM     28  C   UNL     1      -3.616   9.879  13.314  0.00  0.00    +0.000 C 
ATOM     29  F   UNL     1      -2.606   9.506  12.492  0.00  0.00    +0.000 F 
ENDBRANCH  27  28
ENDBRANCH  26  27
ENDBRANCH  25  26
ENDBRANCH  24  25
ENDBRANCH  23  24
ENDBRANCH   4  23
TORSDOF 8
ENDMDL
MODEL 7
REMARK VINA RESULT:      -6.1      8.782     11.105
REMARK  Name = 
REMARK  9 active torsions:
REMARK  status: ('A' for Active; 'I' for Inactive)
REMARK    1  A    between atoms: C_1  and  C_2
REMARK    2  A    between atoms: C_4  and  C_5
REMARK    3  A    between atoms: C_5  and  C_6
REMARK    4  A    between atoms: C_6  and  C_7
REMARK    5  A    between atoms: C_7  and  O_8
REMARK    6  A    between atoms: O_8  and  C_9
REMARK    7  A    between atoms: C_9  and  C_10
REMARK    8  A    between atoms: C_16  and  O_17
REMARK    9  A    between atoms: C_26  and  O_27
REMARK                            x       y       z     vdW  Elec       q    Type
REMARK                         _______ _______ _______ _____ _____    ______ ____
ROOT
ATOM      1  C   UNL     1       6.960  14.380  22.901  0.00  0.00    +0.000 C 
ATOM      2  C   UNL     1       8.333  13.883  23.430  0.00  0.00    +0.000 C 
ATOM      3  C   UNL     1       9.465  14.882  23.129  0.00  0.00    +0.000 C 
ATOM      4  C   UNL     1       9.895  14.924  21.632  0.00  0.00    +0.000 C 
ATOM      5  C   UNL     1      10.243  13.476  21.120  0.00  0.00    +0.000 C 
ATOM      6  C   UNL     1      10.736  13.380  19.674  0.00  0.00    +0.000 A 
ATOM      7  C   UNL     1      11.566  14.374  19.123  0.00  0.00    +0.000 A 
ATOM      8  C   UNL     1      11.873  14.384  17.760  0.00  0.00    +0.000 A 
ATOM      9  C   UNL     1      11.391  13.370  16.947  0.00  0.00    +0.000 A 
ATOM     10  C   UNL     1      10.698  12.301  17.494  0.00  0.00    +0.000 A 
ATOM     11  C   UNL     1      10.386  12.282  18.864  0.00  0.00    +0.000 A 
ATOM     12  C   UNL     1       9.631  11.090  19.397  0.00  0.00    +0.000 C 
ATOM     13  C   UNL     1       9.461  11.089  20.914  0.00  0.00    +0.000 C 
ATOM     14  C   UNL     1       9.067  12.485  21.404  0.00  0.00    +0.000 C 
ATOM     15  C   UNL     1       8.767  12.496  22.905  0.00  0.00    +0.000 C 
ATOM     16  C   UNL     1       7.705  11.571  23.491  0.00  0.00    +0.000 C 
ATOM     17  C   UNL     1       7.429  12.168  24.888  0.00  0.00    +0.000 C 
ATOM     18  C   UNL     1       8.175  13.525  24.923  0.00  0.00    +0.000 C 
ENDROOT
BRANCH   9  19
ATOM     19  O   UNL     1      11.575  13.395  15.597  0.00  0.00    +0.000 OA
ATOM     20  H   UNL     1      11.934  12.535  15.324  0.00  0.00    +0.000 HD
ENDBRANCH   9  19
BRANCH  18  21
ATOM     21  O   UNL     1       7.500  14.510  25.684  0.00  0.00    +0.000 OA
ATOM     22  H   UNL     1       6.569  14.537  25.411  0.00  0.00    +0.000 HD
ENDBRANCH  18  21
BRANCH   4  23
ATOM     23  C   UNL     1       8.892  15.681  20.725  0.00  0.00    +0.000 C 
BRANCH  23  24
ATOM     24  C   UNL     1       9.354  17.075  20.267  0.00  0.00    +0.000 C 
BRANCH  24  25
ATOM     25  C   UNL     1       9.392  17.216  18.750  0.00  0.00    +0.000 C 
BRANCH  25  26
ATOM     26  O   UNL     1       8.155  16.726  18.244  0.00  0.00    +0.000 OA
BRANCH  26  27
ATOM     27  C   UNL     1       8.307  15.558  17.451  0.00  0.00    +0.000 C 
BRANCH  27  28
ATOM     28  C   UNL     1       7.208  14.582  17.825  0.00  0.00    +0.000 C 
ATOM     29  F   UNL     1       7.562  13.333  17.439  0.00  0.00    +0.000 F 
ENDBRANCH  27  28
ENDBRANCH  26  27
ENDBRANCH  25  26
ENDBRANCH  24  25
ENDBRANCH  23  24
ENDBRANCH   4  23
TORSDOF 8
ENDMDL
MODEL 8
REMARK VINA RESULT:      -6.1      8.949     11.543
REMARK  Name = 
REMARK  9 active torsions:
REMARK  status: ('A' for Active; 'I' for Inactive)
REMARK    1  A    between atoms: C_1  and  C_2
REMARK    2  A    between atoms: C_4  and  C_5
REMARK    3  A    between atoms: C_5  and  C_6
REMARK    4  A    between atoms: C_6  and  C_7
REMARK    5  A    between atoms: C_7  and  O_8
REMARK    6  A    between atoms: O_8  and  C_9
REMARK    7  A    between atoms: C_9  and  C_10
REMARK    8  A    between atoms: C_16  and  O_17
REMARK    9  A    between atoms: C_26  and  O_27
REMARK                            x       y       z     vdW  Elec       q    Type
REMARK                         _______ _______ _______ _____ _____    ______ ____
ROOT
ATOM      1  C   UNL     1       6.904  14.427  22.487  0.00  0.00    +0.000 C 
ATOM      2  C   UNL     1       8.232  13.971  23.149  0.00  0.00    +0.000 C 
ATOM      3  C   UNL     1       9.377  14.967  22.895  0.00  0.00    +0.000 C 
ATOM      4  C   UNL     1       9.929  14.944  21.438  0.00  0.00    +0.000 C 
ATOM      5  C   UNL     1      10.328  13.477  21.024  0.00  0.00    +0.000 C 
ATOM      6  C   UNL     1      10.938  13.320  19.630  0.00  0.00    +0.000 A 
ATOM      7  C   UNL     1      11.803  14.296  19.102  0.00  0.00    +0.000 A 
ATOM      8  C   UNL     1      12.221  14.246  17.769  0.00  0.00    +0.000 A 
ATOM      9  C   UNL     1      11.815  13.189  16.969  0.00  0.00    +0.000 A 
ATOM     10  C   UNL     1      11.087  12.139  17.507  0.00  0.00    +0.000 A 
ATOM     11  C   UNL     1      10.664  12.181  18.847  0.00  0.00    +0.000 A 
ATOM     12  C   UNL     1       9.876  11.007  19.373  0.00  0.00    +0.000 C 
ATOM     13  C   UNL     1       9.583  11.075  20.869  0.00  0.00    +0.000 C 
ATOM     14  C   UNL     1       9.139  12.488  21.258  0.00  0.00    +0.000 C 
ATOM     15  C   UNL     1       8.718  12.566  22.728  0.00  0.00    +0.000 C 
ATOM     16  C   UNL     1       7.618  11.657  23.269  0.00  0.00    +0.000 C 
ATOM     17  C   UNL     1       7.224  12.316  24.608  0.00  0.00    +0.000 C 
ATOM     18  C   UNL     1       7.954  13.681  24.640  0.00  0.00    +0.000 C 
ENDROOT
BRANCH   9  19
ATOM     19  O   UNL     1      12.108  13.153  15.638  0.00  0.00    +0.000 OA
ATOM     20  H   UNL     1      11.303  12.903  15.157  0.00  0.00    +0.000 HD
ENDBRANCH   9  19
BRANCH  18  21
ATOM     21  O   UNL     1       7.213  14.693  25.295  0.00  0.00    +0.000 OA
ATOM     22  H   UNL     1       7.829  15.307  25.727  0.00  0.00    +0.000 HD
ENDBRANCH  18  21
BRANCH   4  23
ATOM     23  C   UNL     1       8.998  15.647  20.416  0.00  0.00    +0.000 C 
BRANCH  23  24
ATOM     24  C   UNL     1       9.422  17.072  20.024  0.00  0.00    +0.000 C 
BRANCH  24  25
ATOM     25  C   UNL     1       8.356  18.114  20.339  0.00  0.00    +0.000 C 
BRANCH  25  26
ATOM     26  O   UNL     1       7.364  18.031  19.321  0.00  0.00    +0.000 OA
BRANCH  26  27
ATOM     27  C   UNL     1       6.071  17.747  19.832  0.00  0.00    +0.000 C 
BRANCH  27  28
ATOM     28  C   UNL     1       5.428  16.697  18.946  0.00  0.00    +0.000 C 
ATOM     29  F   UNL     1       5.858  15.467  19.316  0.00  0.00    +0.000 F 
ENDBRANCH  27  28
ENDBRANCH  26  27
ENDBRANCH  25  26
ENDBRANCH  24  25
ENDBRANCH  23  24
ENDBRANCH   4  23
TORSDOF 8
ENDMDL
MODEL 9
REMARK VINA RESULT:      -5.7      8.824     11.184
REMARK  Name = 
REMARK  9 active torsions:
REMARK  status: ('A' for Active; 'I' for Inactive)
REMARK    1  A    between atoms: C_1  and  C_2
REMARK    2  A    between atoms: C_4  and  C_5
REMARK    3  A    between atoms: C_5  and  C_6
REMARK    4  A    between atoms: C_6  and  C_7
REMARK    5  A    between atoms: C_7  and  O_8
REMARK    6  A    between atoms: O_8  and  C_9
REMARK    7  A    between atoms: C_9  and  C_10
REMARK    8  A    between atoms: C_16  and  O_17
REMARK    9  A    between atoms: C_26  and  O_27
REMARK                            x       y       z     vdW  Elec       q    Type
REMARK                         _______ _______ _______ _____ _____    ______ ____
ROOT
ATOM      1  C   UNL     1       6.178  14.106  22.204  0.00  0.00    +0.000 C 
ATOM      2  C   UNL     1       7.567  14.117  22.897  0.00  0.00    +0.000 C 
ATOM      3  C   UNL     1       8.407  15.341  22.489  0.00  0.00    +0.000 C 
ATOM      4  C   UNL     1       8.972  15.269  21.038  0.00  0.00    +0.000 C 
ATOM      5  C   UNL     1       9.758  13.921  20.821  0.00  0.00    +0.000 C 
ATOM      6  C   UNL     1      10.414  13.746  19.449  0.00  0.00    +0.000 A 
ATOM      7  C   UNL     1      10.995  14.838  18.778  0.00  0.00    +0.000 A 
ATOM      8  C   UNL     1      11.436  14.722  17.457  0.00  0.00    +0.000 A 
ATOM      9  C   UNL     1      11.343  13.497  16.815  0.00  0.00    +0.000 A 
ATOM     10  C   UNL     1      10.914  12.373  17.504  0.00  0.00    +0.000 A 
ATOM     11  C   UNL     1      10.471  12.480  18.833  0.00  0.00    +0.000 A 
ATOM     12  C   UNL     1      10.018  11.221  19.528  0.00  0.00    +0.000 C 
ATOM     13  C   UNL     1       9.689  11.409  21.006  0.00  0.00    +0.000 C 
ATOM     14  C   UNL     1       8.875  12.690  21.208  0.00  0.00    +0.000 C 
ATOM     15  C   UNL     1       8.420  12.851  22.662  0.00  0.00    +0.000 C 
ATOM     16  C   UNL     1       7.595  11.762  23.341  0.00  0.00    +0.000 C 
ATOM     17  C   UNL     1       7.013  12.467  24.586  0.00  0.00    +0.000 C 
ATOM     18  C   UNL     1       7.350  13.969  24.419  0.00  0.00    +0.000 C 
ENDROOT
BRANCH   9  19
ATOM     19  O   UNL     1      11.661  13.360  15.496  0.00  0.00    +0.000 OA
ATOM     20  H   UNL     1      12.310  12.643  15.413  0.00  0.00    +0.000 HD
ENDBRANCH   9  19
BRANCH  18  21
ATOM     21  O   UNL     1       6.352  14.823  24.945  0.00  0.00    +0.000 OA
ATOM     22  H   UNL     1       6.778  15.531  25.455  0.00  0.00    +0.000 HD
ENDBRANCH  18  21
BRANCH   4  23
ATOM     23  C   UNL     1       7.905  15.551  19.949  0.00  0.00    +0.000 C 
BRANCH  23  24
ATOM     24  C   UNL     1       7.604  17.039  19.704  0.00  0.00    +0.000 C 
BRANCH  24  25
ATOM     25  C   UNL     1       6.166  17.415  20.041  0.00  0.00    +0.000 C 
BRANCH  25  26
ATOM     26  O   UNL     1       5.392  17.249  18.858  0.00  0.00    +0.000 OA
BRANCH  26  27
ATOM     27  C   UNL     1       4.347  16.301  19.010  0.00  0.00    +0.000 C 
BRANCH  27  28
ATOM     28  C   UNL     1       4.473  15.271  17.904  0.00  0.00    +0.000 C 
ATOM     29  F   UNL     1       3.743  15.665  16.833  0.00  0.00    +0.000 F 
ENDBRANCH  27  28
ENDBRANCH  26  27
ENDBRANCH  25  26
ENDBRANCH  24  25
ENDBRANCH  23  24
ENDBRANCH   4  23
TORSDOF 8
ENDMDL
