MODEL 1
REMARK VINA RESULT:      -6.1      0.000      0.000
REMARK  Name = 
REMARK  15 active torsions:
REMARK  status: ('A' for Active; 'I' for Inactive)
REMARK    1  A    between atoms: C_1  and  C_2
REMARK    2  A    between atoms: C_2  and  C_3
REMARK    3  A    between atoms: C_3  and  C_4
REMARK    4  A    between atoms: C_4  and  C_5
REMARK    5  A    between atoms: C_5  and  C_6
REMARK    6  A    between atoms: C_6  and  C_7
REMARK    7  A    between atoms: C_7  and  C_8
REMARK    8  A    between atoms: C_8  and  N_9
REMARK    9  A    between atoms: N_9  and  C_10
REMARK   10  A    between atoms: C_13  and  C_14
REMARK   11  A    between atoms: N_16  and  C_17
REMARK   12  A    between atoms: C_17  and  C_18
REMARK   13  A    between atoms: C_18  and  N_19
REMARK   14  A    between atoms: N_19  and  C_20
REMARK   15  A    between atoms: N_19  and  C_21
REMARK                            x       y       z     vdW  Elec       q    Type
REMARK                         _______ _______ _______ _____ _____    ______ ____
ROOT
ATOM      1  C   UNL     1       4.186   3.366  18.944  0.00  0.00    +0.000 A 
ATOM      2  C   UNL     1       3.634   3.198  17.675  0.00  0.00    +0.000 A 
ATOM      3  C   UNL     1       4.263   3.695  16.534  0.00  0.00    +0.000 A 
ATOM      4  C   UNL     1       5.478   4.383  16.635  0.00  0.00    +0.000 A 
ATOM      5  C   UNL     1       6.061   4.527  17.897  0.00  0.00    +0.000 A 
ATOM      6  C   UNL     1       5.420   4.023  19.039  0.00  0.00    +0.000 A 
ENDROOT
BRANCH   4   7
ATOM      7  C   UNL     1       6.075   4.954  15.397  0.00  0.00    +0.000 C 
ATOM      8  O   UNL     1       6.250   6.184  15.312  0.00  0.00    +0.000 OA
ATOM      9  N   UNL     1       6.453   4.095  14.395  0.00  0.00    +0.000 N 
ATOM     10  H   UNL     1       6.399   3.091  14.496  0.00  0.00    +0.000 HD
BRANCH   9  11
ATOM     11  C   UNL     1       7.071   4.596  13.182  0.00  0.00    +0.000 C 
BRANCH  11  12
ATOM     12  C   UNL     1       6.821   3.694  11.957  0.00  0.00    +0.000 C 
BRANCH  12  13
ATOM     13  N   UNL     1       5.661   2.787  12.112  0.00  0.00    +0.000 NA
ATOM     14  C   UNL     1       4.429   3.392  11.593  0.00  0.00    +0.000 C 
ATOM     15  C   UNL     1       5.911   1.523  11.409  0.00  0.00    +0.000 C 
ENDBRANCH  12  13
ENDBRANCH  11  12
ENDBRANCH   9  11
ENDBRANCH   4   7
BRANCH   1  16
ATOM     16  N   UNL     1       3.567   2.861  20.080  0.00  0.00    +0.000 N 
ATOM     17  H   UNL     1       3.831   3.304  20.957  0.00  0.00    +0.000 HD
BRANCH  16  18
ATOM     18  C   UNL     1       2.248   2.253  19.996  0.00  0.00    +0.000 C 
BRANCH  18  19
ATOM     19  C   UNL     1       1.269   3.063  20.838  0.00  0.00    +0.000 C 
BRANCH  19  20
ATOM     20  C   UNL     1       0.913   4.362  20.122  0.00  0.00    +0.000 C 
BRANCH  20  21
ATOM     21  C   UNL     1       1.510   5.562  20.842  0.00  0.00    +0.000 C 
BRANCH  21  22
ATOM     22  C   UNL     1       2.571   6.229  19.974  0.00  0.00    +0.000 C 
BRANCH  22  23
ATOM     23  C   UNL     1       2.123   7.627  19.564  0.00  0.00    +0.000 C 
BRANCH  23  25
ATOM     24  C   UNL     1       3.598   7.356  17.564  0.00  0.00    +0.000 C 
ATOM     25  C   UNL     1       2.240   7.820  18.058  0.00  0.00    +0.000 C 
ENDBRANCH  23  25
ENDBRANCH  22  23
ENDBRANCH  21  22
ENDBRANCH  20  21
ENDBRANCH  19  20
ENDBRANCH  18  19
ENDBRANCH  16  18
ENDBRANCH   1  16
TORSDOF 12
ENDMDL
MODEL 2
REMARK VINA RESULT:      -6.0      4.584      8.963
REMARK  Name = 
REMARK  15 active torsions:
REMARK  status: ('A' for Active; 'I' for Inactive)
REMARK    1  A    between atoms: C_1  and  C_2
REMARK    2  A    between atoms: C_2  and  C_3
REMARK    3  A    between atoms: C_3  and  C_4
REMARK    4  A    between atoms: C_4  and  C_5
REMARK    5  A    between atoms: C_5  and  C_6
REMARK    6  A    between atoms: C_6  and  C_7
REMARK    7  A    between atoms: C_7  and  C_8
REMARK    8  A    between atoms: C_8  and  N_9
REMARK    9  A    between atoms: N_9  and  C_10
REMARK   10  A    between atoms: C_13  and  C_14
REMARK   11  A    between atoms: N_16  and  C_17
REMARK   12  A    between atoms: C_17  and  C_18
REMARK   13  A    between atoms: C_18  and  N_19
REMARK   14  A    between atoms: N_19  and  C_20
REMARK   15  A    between atoms: N_19  and  C_21
REMARK                            x       y       z     vdW  Elec       q    Type
REMARK                         _______ _______ _______ _____ _____    ______ ____
ROOT
ATOM      1  C   UNL     1       2.995   7.192  18.599  0.00  0.00    +0.000 A 
ATOM      2  C   UNL     1       2.313   7.235  19.814  0.00  0.00    +0.000 A 
ATOM      3  C   UNL     1       1.402   8.249  20.104  0.00  0.00    +0.000 A 
ATOM      4  C   UNL     1       1.144   9.262  19.172  0.00  0.00    +0.000 A 
ATOM      5  C   UNL     1       1.793   9.211  17.936  0.00  0.00    +0.000 A 
ATOM      6  C   UNL     1       2.709   8.186  17.653  0.00  0.00    +0.000 A 
ENDROOT
BRANCH   4   7
ATOM      7  C   UNL     1       0.215  10.359  19.556  0.00  0.00    +0.000 C 
ATOM      8  O   UNL     1      -1.011  10.206  19.399  0.00  0.00    +0.000 OA
ATOM      9  N   UNL     1       0.740  11.499  20.111  0.00  0.00    +0.000 N 
ATOM     10  H   UNL     1       1.724  11.591  20.325  0.00  0.00    +0.000 HD
BRANCH   9  11
ATOM     11  C   UNL     1      -0.124  12.585  20.533  0.00  0.00    +0.000 C 
BRANCH  11  12
ATOM     12  C   UNL     1      -0.413  12.576  22.047  0.00  0.00    +0.000 C 
BRANCH  12  13
ATOM     13  N   UNL     1      -1.538  11.695  22.435  0.00  0.00    +0.000 NA
ATOM     14  C   UNL     1      -1.072  10.519  23.178  0.00  0.00    +0.000 C 
ATOM     15  C   UNL     1      -2.498  12.436  23.261  0.00  0.00    +0.000 C 
ENDBRANCH  12  13
ENDBRANCH  11  12
ENDBRANCH   9  11
ENDBRANCH   4   7
BRANCH   1  16
ATOM     16  N   UNL     1       3.894   6.175  18.302  0.00  0.00    +0.000 N 
ATOM     17  H   UNL     1       4.526   6.361  17.527  0.00  0.00    +0.000 HD
BRANCH  16  18
ATOM     18  C   UNL     1       4.342   5.259  19.340  0.00  0.00    +0.000 C 
BRANCH  18  19
ATOM     19  C   UNL     1       4.559   3.880  18.729  0.00  0.00    +0.000 C 
BRANCH  19  20
ATOM     20  C   UNL     1       3.731   3.735  17.456  0.00  0.00    +0.000 C 
BRANCH  20  21
ATOM     21  C   UNL     1       2.553   2.797  17.677  0.00  0.00    +0.000 C 
BRANCH  21  22
ATOM     22  C   UNL     1       1.336   3.576  18.162  0.00  0.00    +0.000 C 
BRANCH  22  23
ATOM     23  C   UNL     1       0.763   2.939  19.422  0.00  0.00    +0.000 C 
BRANCH  23  25
ATOM     24  C   UNL     1       1.963   2.758  21.608  0.00  0.00    +0.000 C 
ATOM     25  C   UNL     1       1.215   3.687  20.668  0.00  0.00    +0.000 C 
ENDBRANCH  23  25
ENDBRANCH  22  23
ENDBRANCH  21  22
ENDBRANCH  20  21
ENDBRANCH  19  20
ENDBRANCH  18  19
ENDBRANCH  16  18
ENDBRANCH   1  16
TORSDOF 12
ENDMDL
MODEL 3
REMARK VINA RESULT:      -5.8      5.097      8.015
REMARK  Name = 
REMARK  15 active torsions:
REMARK  status: ('A' for Active; 'I' for Inactive)
REMARK    1  A    between atoms: C_1  and  C_2
REMARK    2  A    between atoms: C_2  and  C_3
REMARK    3  A    between atoms: C_3  and  C_4
REMARK    4  A    between atoms: C_4  and  C_5
REMARK    5  A    between atoms: C_5  and  C_6
REMARK    6  A    between atoms: C_6  and  C_7
REMARK    7  A    between atoms: C_7  and  C_8
REMARK    8  A    between atoms: C_8  and  N_9
REMARK    9  A    between atoms: N_9  and  C_10
REMARK   10  A    between atoms: C_13  and  C_14
REMARK   11  A    between atoms: N_16  and  C_17
REMARK   12  A    between atoms: C_17  and  C_18
REMARK   13  A    between atoms: C_18  and  N_19
REMARK   14  A    between atoms: N_19  and  C_20
REMARK   15  A    between atoms: N_19  and  C_21
REMARK                            x       y       z     vdW  Elec       q    Type
REMARK                         _______ _______ _______ _____ _____    ______ ____
ROOT
ATOM      1  C   UNL     1       6.715   6.922  17.341  0.00  0.00    +0.000 A 
ATOM      2  C   UNL     1       5.413   7.034  16.858  0.00  0.00    +0.000 A 
ATOM      3  C   UNL     1       4.481   6.011  17.026  0.00  0.00    +0.000 A 
ATOM      4  C   UNL     1       4.833   4.831  17.692  0.00  0.00    +0.000 A 
ATOM      5  C   UNL     1       6.125   4.720  18.214  0.00  0.00    +0.000 A 
ATOM      6  C   UNL     1       7.055   5.756  18.039  0.00  0.00    +0.000 A 
ENDROOT
BRANCH   4   7
ATOM      7  C   UNL     1       3.825   3.741  17.785  0.00  0.00    +0.000 C 
ATOM      8  O   UNL     1       3.200   3.395  16.764  0.00  0.00    +0.000 OA
ATOM      9  N   UNL     1       3.641   3.119  18.994  0.00  0.00    +0.000 N 
ATOM     10  H   UNL     1       4.210   3.332  19.803  0.00  0.00    +0.000 HD
BRANCH   9  11
ATOM     11  C   UNL     1       2.695   2.028  19.132  0.00  0.00    +0.000 C 
BRANCH  11  12
ATOM     12  C   UNL     1       1.231   2.502  19.210  0.00  0.00    +0.000 C 
BRANCH  12  13
ATOM     13  N   UNL     1       0.866   3.102  20.514  0.00  0.00    +0.000 NA
ATOM     14  C   UNL     1       1.614   2.489  21.618  0.00  0.00    +0.000 C 
ATOM     15  C   UNL     1       1.128   4.545  20.497  0.00  0.00    +0.000 C 
ENDBRANCH  12  13
ENDBRANCH  11  12
ENDBRANCH   9  11
ENDBRANCH   4   7
BRANCH   1  16
ATOM     16  N   UNL     1       7.641   7.946  17.187  0.00  0.00    +0.000 N 
ATOM     17  H   UNL     1       7.415   8.638  16.476  0.00  0.00    +0.000 HD
BRANCH  16  18
ATOM     18  C   UNL     1       8.472   8.367  18.304  0.00  0.00    +0.000 C 
BRANCH  18  19
ATOM     19  C   UNL     1       8.695   9.872  18.224  0.00  0.00    +0.000 C 
BRANCH  19  20
ATOM     20  C   UNL     1       9.391  10.367  19.488  0.00  0.00    +0.000 C 
BRANCH  20  21
ATOM     21  C   UNL     1      10.494  11.360  19.150  0.00  0.00    +0.000 C 
BRANCH  21  22
ATOM     22  C   UNL     1      10.192  12.060  17.830  0.00  0.00    +0.000 C 
BRANCH  22  23
ATOM     23  C   UNL     1      11.463  12.666  17.246  0.00  0.00    +0.000 C 
BRANCH  23  25
ATOM     24  C   UNL     1      10.107  14.708  17.741  0.00  0.00    +0.000 C 
ATOM     25  C   UNL     1      11.278  14.149  16.952  0.00  0.00    +0.000 C 
ENDBRANCH  23  25
ENDBRANCH  22  23
ENDBRANCH  21  22
ENDBRANCH  20  21
ENDBRANCH  19  20
ENDBRANCH  18  19
ENDBRANCH  16  18
ENDBRANCH   1  16
TORSDOF 12
ENDMDL
MODEL 4
REMARK VINA RESULT:      -5.8      3.476      8.375
REMARK  Name = 
REMARK  15 active torsions:
REMARK  status: ('A' for Active; 'I' for Inactive)
REMARK    1  A    between atoms: C_1  and  C_2
REMARK    2  A    between atoms: C_2  and  C_3
REMARK    3  A    between atoms: C_3  and  C_4
REMARK    4  A    between atoms: C_4  and  C_5
REMARK    5  A    between atoms: C_5  and  C_6
REMARK    6  A    between atoms: C_6  and  C_7
REMARK    7  A    between atoms: C_7  and  C_8
REMARK    8  A    between atoms: C_8  and  N_9
REMARK    9  A    between atoms: N_9  and  C_10
REMARK   10  A    between atoms: C_13  and  C_14
REMARK   11  A    between atoms: N_16  and  C_17
REMARK   12  A    between atoms: C_17  and  C_18
REMARK   13  A    between atoms: C_18  and  N_19
REMARK   14  A    between atoms: N_19  and  C_20
REMARK   15  A    between atoms: N_19  and  C_21
REMARK                            x       y       z     vdW  Elec       q    Type
REMARK                         _______ _______ _______ _____ _____    ______ ____
ROOT
ATOM      1  C   UNL     1       4.605   4.745  16.975  0.00  0.00    +0.000 A 
ATOM      2  C   UNL     1       5.045   6.067  16.933  0.00  0.00    +0.000 A 
ATOM      3  C   UNL     1       4.304   7.101  17.503  0.00  0.00    +0.000 A 
ATOM      4  C   UNL     1       3.086   6.837  18.140  0.00  0.00    +0.000 A 
ATOM      5  C   UNL     1       2.651   5.511  18.221  0.00  0.00    +0.000 A 
ATOM      6  C   UNL     1       3.403   4.477  17.644  0.00  0.00    +0.000 A 
ENDROOT
BRANCH   4   7
ATOM      7  C   UNL     1       2.300   7.982  18.672  0.00  0.00    +0.000 C 
ATOM      8  O   UNL     1       1.830   7.920  19.825  0.00  0.00    +0.000 OA
ATOM      9  N   UNL     1       2.148   9.096  17.885  0.00  0.00    +0.000 N 
ATOM     10  H   UNL     1       2.604   9.188  16.988  0.00  0.00    +0.000 HD
BRANCH   9  11
ATOM     11  C   UNL     1       1.420  10.253  18.369  0.00  0.00    +0.000 C 
BRANCH  11  12
ATOM     12  C   UNL     1      -0.108  10.050  18.373  0.00  0.00    +0.000 C 
BRANCH  12  13
ATOM     13  N   UNL     1      -0.817  10.870  19.382  0.00  0.00    +0.000 NA
ATOM     14  C   UNL     1      -0.303  10.625  20.735  0.00  0.00    +0.000 C 
ATOM     15  C   UNL     1      -0.677  12.295  19.063  0.00  0.00    +0.000 C 
ENDBRANCH  12  13
ENDBRANCH  11  12
ENDBRANCH   9  11
ENDBRANCH   4   7
BRANCH   1  16
ATOM     16  N   UNL     1       5.348   3.712  16.418  0.00  0.00    +0.000 N 
ATOM     17  H   UNL     1       4.879   2.810  16.373  0.00  0.00    +0.000 HD
BRANCH  16  18
ATOM     18  C   UNL     1       6.380   3.991  15.432  0.00  0.00    +0.000 C 
BRANCH  18  19
ATOM     19  C   UNL     1       5.725   4.234  14.077  0.00  0.00    +0.000 C 
BRANCH  19  20
ATOM     20  C   UNL     1       6.546   3.574  12.973  0.00  0.00    +0.000 C 
BRANCH  20  21
ATOM     21  C   UNL     1       5.901   3.789  11.612  0.00  0.00    +0.000 C 
BRANCH  21  22
ATOM     22  C   UNL     1       4.641   2.942  11.482  0.00  0.00    +0.000 C 
BRANCH  22  23
ATOM     23  C   UNL     1       3.456   3.810  11.074  0.00  0.00    +0.000 C 
BRANCH  23  25
ATOM     24  C   UNL     1       2.314   4.828   9.096  0.00  0.00    +0.000 C 
ATOM     25  C   UNL     1       3.156   3.664   9.588  0.00  0.00    +0.000 C 
ENDBRANCH  23  25
ENDBRANCH  22  23
ENDBRANCH  21  22
ENDBRANCH  20  21
ENDBRANCH  19  20
ENDBRANCH  18  19
ENDBRANCH  16  18
ENDBRANCH   1  16
TORSDOF 12
ENDMDL
MODEL 5
REMARK VINA RESULT:      -5.7      4.530      8.295
REMARK  Name = 
REMARK  15 active torsions:
REMARK  status: ('A' for Active; 'I' for Inactive)
REMARK    1  A    between atoms: C_1  and  C_2
REMARK    2  A    between atoms: C_2  and  C_3
REMARK    3  A    between atoms: C_3  and  C_4
REMARK    4  A    between atoms: C_4  and  C_5
REMARK    5  A    between atoms: C_5  and  C_6
REMARK    6  A    between atoms: C_6  and  C_7
REMARK    7  A    between atoms: C_7  and  C_8
REMARK    8  A    between atoms: C_8  and  N_9
REMARK    9  A    between atoms: N_9  and  C_10
REMARK   10  A    between atoms: C_13  and  C_14
REMARK   11  A    between atoms: N_16  and  C_17
REMARK   12  A    between atoms: C_17  and  C_18
REMARK   13  A    between atoms: C_18  and  N_19
REMARK   14  A    between atoms: N_19  and  C_20
REMARK   15  A    between atoms: N_19  and  C_21
REMARK                            x       y       z     vdW  Elec       q    Type
REMARK                         _______ _______ _______ _____ _____    ______ ____
ROOT
ATOM      1  C   UNL     1       3.389   6.712  18.375  0.00  0.00    +0.000 A 
ATOM      2  C   UNL     1       2.701   6.658  19.587  0.00  0.00    +0.000 A 
ATOM      3  C   UNL     1       1.822   7.668  19.973  0.00  0.00    +0.000 A 
ATOM      4  C   UNL     1       1.603   8.775  19.145  0.00  0.00    +0.000 A 
ATOM      5  C   UNL     1       2.258   8.825  17.911  0.00  0.00    +0.000 A 
ATOM      6  C   UNL     1       3.141   7.803  17.532  0.00  0.00    +0.000 A 
ENDROOT
BRANCH   4   7
ATOM      7  C   UNL     1       0.708   9.860  19.632  0.00  0.00    +0.000 C 
ATOM      8  O   UNL     1       0.097   9.712  20.707  0.00  0.00    +0.000 OA
ATOM      9  N   UNL     1       0.615  11.014  18.895  0.00  0.00    +0.000 N 
ATOM     10  H   UNL     1       1.178  11.175  18.071  0.00  0.00    +0.000 HD
BRANCH   9  11
ATOM     11  C   UNL     1      -0.218  12.114  19.342  0.00  0.00    +0.000 C 
BRANCH  11  12
ATOM     12  C   UNL     1      -1.479  12.311  18.478  0.00  0.00    +0.000 C 
BRANCH  12  13
ATOM     13  N   UNL     1      -2.707  11.741  19.077  0.00  0.00    +0.000 NA
ATOM     14  C   UNL     1      -3.254  12.615  20.121  0.00  0.00    +0.000 C 
ATOM     15  C   UNL     1      -3.725  11.533  18.041  0.00  0.00    +0.000 C 
ENDBRANCH  12  13
ENDBRANCH  11  12
ENDBRANCH   9  11
ENDBRANCH   4   7
BRANCH   1  16
ATOM     16  N   UNL     1       4.256   5.700  17.983  0.00  0.00    +0.000 N 
ATOM     17  H   UNL     1       4.712   5.837  17.084  0.00  0.00    +0.000 HD
BRANCH  16  18
ATOM     18  C   UNL     1       4.942   4.887  18.976  0.00  0.00    +0.000 C 
BRANCH  18  19
ATOM     19  C   UNL     1       4.435   3.453  18.885  0.00  0.00    +0.000 C 
BRANCH  19  20
ATOM     20  C   UNL     1       3.439   3.322  17.737  0.00  0.00    +0.000 C 
BRANCH  20  21
ATOM     21  C   UNL     1       2.705   1.990  17.802  0.00  0.00    +0.000 C 
BRANCH  21  22
ATOM     22  C   UNL     1       1.969   1.852  19.129  0.00  0.00    +0.000 C 
BRANCH  22  23
ATOM     23  C   UNL     1       0.833   2.864  19.216  0.00  0.00    +0.000 C 
BRANCH  23  25
ATOM     24  C   UNL     1       1.702   2.955  21.559  0.00  0.00    +0.000 C 
ATOM     25  C   UNL     1       0.948   3.709  20.478  0.00  0.00    +0.000 C 
ENDBRANCH  23  25
ENDBRANCH  22  23
ENDBRANCH  21  22
ENDBRANCH  20  21
ENDBRANCH  19  20
ENDBRANCH  18  19
ENDBRANCH  16  18
ENDBRANCH   1  16
TORSDOF 12
ENDMDL
MODEL 6
REMARK VINA RESULT:      -5.7      3.260      8.604
REMARK  Name = 
REMARK  15 active torsions:
REMARK  status: ('A' for Active; 'I' for Inactive)
REMARK    1  A    between atoms: C_1  and  C_2
REMARK    2  A    between atoms: C_2  and  C_3
REMARK    3  A    between atoms: C_3  and  C_4
REMARK    4  A    between atoms: C_4  and  C_5
REMARK    5  A    between atoms: C_5  and  C_6
REMARK    6  A    between atoms: C_6  and  C_7
REMARK    7  A    between atoms: C_7  and  C_8
REMARK    8  A    between atoms: C_8  and  N_9
REMARK    9  A    between atoms: N_9  and  C_10
REMARK   10  A    between atoms: C_13  and  C_14
REMARK   11  A    between atoms: N_16  and  C_17
REMARK   12  A    between atoms: C_17  and  C_18
REMARK   13  A    between atoms: C_18  and  N_19
REMARK   14  A    between atoms: N_19  and  C_20
REMARK   15  A    between atoms: N_19  and  C_21
REMARK                            x       y       z     vdW  Elec       q    Type
REMARK                         _______ _______ _______ _____ _____    ______ ____
ROOT
ATOM      1  C   UNL     1       4.848   4.214  17.564  0.00  0.00    +0.000 A 
ATOM      2  C   UNL     1       3.492   4.326  17.259  0.00  0.00    +0.000 A 
ATOM      3  C   UNL     1       2.605   4.986  18.107  0.00  0.00    +0.000 A 
ATOM      4  C   UNL     1       3.057   5.561  19.301  0.00  0.00    +0.000 A 
ATOM      5  C   UNL     1       4.420   5.489  19.601  0.00  0.00    +0.000 A 
ATOM      6  C   UNL     1       5.305   4.822  18.741  0.00  0.00    +0.000 A 
ENDROOT
BRANCH   4   7
ATOM      7  C   UNL     1       2.060   6.195  20.205  0.00  0.00    +0.000 C 
ATOM      8  O   UNL     1       1.298   5.474  20.878  0.00  0.00    +0.000 OA
ATOM      9  N   UNL     1       2.037   7.564  20.300  0.00  0.00    +0.000 N 
ATOM     10  H   UNL     1       2.712   8.149  19.827  0.00  0.00    +0.000 HD
BRANCH   9  11
ATOM     11  C   UNL     1       1.107   8.231  21.192  0.00  0.00    +0.000 C 
BRANCH  11  12
ATOM     12  C   UNL     1       1.105   9.764  21.028  0.00  0.00    +0.000 C 
BRANCH  12  13
ATOM     13  N   UNL     1       0.528  10.486  22.185  0.00  0.00    +0.000 NA
ATOM     14  C   UNL     1      -0.559  11.383  21.775  0.00  0.00    +0.000 C 
ATOM     15  C   UNL     1       0.015   9.530  23.173  0.00  0.00    +0.000 C 
ENDBRANCH  12  13
ENDBRANCH  11  12
ENDBRANCH   9  11
ENDBRANCH   4   7
BRANCH   1  16
ATOM     16  N   UNL     1       5.736   3.568  16.714  0.00  0.00    +0.000 N 
ATOM     17  H   UNL     1       5.392   2.709  16.291  0.00  0.00    +0.000 HD
BRANCH  16  18
ATOM     18  C   UNL     1       6.750   4.321  15.992  0.00  0.00    +0.000 C 
BRANCH  18  19
ATOM     19  C   UNL     1       6.201   4.721  14.628  0.00  0.00    +0.000 C 
BRANCH  19  20
ATOM     20  C   UNL     1       6.128   3.500  13.715  0.00  0.00    +0.000 C 
BRANCH  20  21
ATOM     21  C   UNL     1       6.659   3.825  12.327  0.00  0.00    +0.000 C 
BRANCH  21  22
ATOM     22  C   UNL     1       5.508   4.011  11.347  0.00  0.00    +0.000 C 
BRANCH  22  23
ATOM     23  C   UNL     1       4.622   2.771  11.323  0.00  0.00    +0.000 C 
BRANCH  23  25
ATOM     24  C   UNL     1       3.178   4.079   9.756  0.00  0.00    +0.000 C 
ATOM     25  C   UNL     1       3.192   3.126  10.938  0.00  0.00    +0.000 C 
ENDBRANCH  23  25
ENDBRANCH  22  23
ENDBRANCH  21  22
ENDBRANCH  20  21
ENDBRANCH  19  20
ENDBRANCH  18  19
ENDBRANCH  16  18
ENDBRANCH   1  16
TORSDOF 12
ENDMDL
MODEL 7
REMARK VINA RESULT:      -5.7      3.478      5.178
REMARK  Name = 
REMARK  15 active torsions:
REMARK  status: ('A' for Active; 'I' for Inactive)
REMARK    1  A    between atoms: C_1  and  C_2
REMARK    2  A    between atoms: C_2  and  C_3
REMARK    3  A    between atoms: C_3  and  C_4
REMARK    4  A    between atoms: C_4  and  C_5
REMARK    5  A    between atoms: C_5  and  C_6
REMARK    6  A    between atoms: C_6  and  C_7
REMARK    7  A    between atoms: C_7  and  C_8
REMARK    8  A    between atoms: C_8  and  N_9
REMARK    9  A    between atoms: N_9  and  C_10
REMARK   10  A    between atoms: C_13  and  C_14
REMARK   11  A    between atoms: N_16  and  C_17
REMARK   12  A    between atoms: C_17  and  C_18
REMARK   13  A    between atoms: C_18  and  N_19
REMARK   14  A    between atoms: N_19  and  C_20
REMARK   15  A    between atoms: N_19  and  C_21
REMARK                            x       y       z     vdW  Elec       q    Type
REMARK                         _______ _______ _______ _____ _____    ______ ____
ROOT
ATOM      1  C   UNL     1       4.133   3.645  18.408  0.00  0.00    +0.000 A 
ATOM      2  C   UNL     1       5.025   4.251  19.292  0.00  0.00    +0.000 A 
ATOM      3  C   UNL     1       5.948   5.202  18.860  0.00  0.00    +0.000 A 
ATOM      4  C   UNL     1       6.004   5.578  17.513  0.00  0.00    +0.000 A 
ATOM      5  C   UNL     1       5.092   5.006  16.622  0.00  0.00    +0.000 A 
ATOM      6  C   UNL     1       4.167   4.049  17.067  0.00  0.00    +0.000 A 
ENDROOT
BRANCH   4   7
ATOM      7  C   UNL     1       7.052   6.546  17.090  0.00  0.00    +0.000 C 
ATOM      8  O   UNL     1       7.668   6.355  16.024  0.00  0.00    +0.000 OA
ATOM      9  N   UNL     1       7.282   7.649  17.874  0.00  0.00    +0.000 N 
ATOM     10  H   UNL     1       6.723   7.856  18.690  0.00  0.00    +0.000 HD
BRANCH   9  11
ATOM     11  C   UNL     1       8.269   8.640  17.490  0.00  0.00    +0.000 C 
BRANCH  11  12
ATOM     12  C   UNL     1       8.664   9.581  18.645  0.00  0.00    +0.000 C 
BRANCH  12  13
ATOM     13  N   UNL     1       9.467  10.748  18.215  0.00  0.00    +0.000 NA
ATOM     14  C   UNL     1       8.615  11.847  17.746  0.00  0.00    +0.000 C 
ATOM     15  C   UNL     1      10.300  11.225  19.325  0.00  0.00    +0.000 C 
ENDBRANCH  12  13
ENDBRANCH  11  12
ENDBRANCH   9  11
ENDBRANCH   4   7
BRANCH   1  16
ATOM     16  N   UNL     1       3.204   2.707  18.838  0.00  0.00    +0.000 N 
ATOM     17  H   UNL     1       3.568   1.975  19.443  0.00  0.00    +0.000 HD
BRANCH  16  18
ATOM     18  C   UNL     1       1.800   3.065  18.973  0.00  0.00    +0.000 C 
BRANCH  18  19
ATOM     19  C   UNL     1       1.477   3.276  20.447  0.00  0.00    +0.000 C 
BRANCH  19  20
ATOM     20  C   UNL     1       2.086   4.588  20.933  0.00  0.00    +0.000 C 
BRANCH  20  21
ATOM     21  C   UNL     1       1.322   5.782  20.380  0.00  0.00    +0.000 C 
BRANCH  21  22
ATOM     22  C   UNL     1       2.279   6.923  20.057  0.00  0.00    +0.000 C 
BRANCH  22  23
ATOM     23  C   UNL     1       2.600   6.944  18.567  0.00  0.00    +0.000 C 
BRANCH  23  25
ATOM     24  C   UNL     1       1.567   9.213  18.755  0.00  0.00    +0.000 C 
ATOM     25  C   UNL     1       1.794   8.017  17.848  0.00  0.00    +0.000 C 
ENDBRANCH  23  25
ENDBRANCH  22  23
ENDBRANCH  21  22
ENDBRANCH  20  21
ENDBRANCH  19  20
ENDBRANCH  18  19
ENDBRANCH  16  18
ENDBRANCH   1  16
TORSDOF 12
ENDMDL
MODEL 8
REMARK VINA RESULT:      -5.7      3.711      8.078
REMARK  Name = 
REMARK  15 active torsions:
REMARK  status: ('A' for Active; 'I' for Inactive)
REMARK    1  A    between atoms: C_1  and  C_2
REMARK    2  A    between atoms: C_2  and  C_3
REMARK    3  A    between atoms: C_3  and  C_4
REMARK    4  A    between atoms: C_4  and  C_5
REMARK    5  A    between atoms: C_5  and  C_6
REMARK    6  A    between atoms: C_6  and  C_7
REMARK    7  A    between atoms: C_7  and  C_8
REMARK    8  A    between atoms: C_8  and  N_9
REMARK    9  A    between atoms: N_9  and  C_10
REMARK   10  A    between atoms: C_13  and  C_14
REMARK   11  A    between atoms: N_16  and  C_17
REMARK   12  A    between atoms: C_17  and  C_18
REMARK   13  A    between atoms: C_18  and  N_19
REMARK   14  A    between atoms: N_19  and  C_20
REMARK   15  A    between atoms: N_19  and  C_21
REMARK                            x       y       z     vdW  Elec       q    Type
REMARK                         _______ _______ _______ _____ _____    ______ ____
ROOT
ATOM      1  C   UNL     1       4.144   5.812  18.642  0.00  0.00    +0.000 A 
ATOM      2  C   UNL     1       3.230   6.003  19.676  0.00  0.00    +0.000 A 
ATOM      3  C   UNL     1       2.346   7.081  19.680  0.00  0.00    +0.000 A 
ATOM      4  C   UNL     1       2.354   8.010  18.632  0.00  0.00    +0.000 A 
ATOM      5  C   UNL     1       3.240   7.810  17.570  0.00  0.00    +0.000 A 
ATOM      6  C   UNL     1       4.126   6.722  17.577  0.00  0.00    +0.000 A 
ENDROOT
BRANCH   4   7
ATOM      7  C   UNL     1       1.440   9.181  18.716  0.00  0.00    +0.000 C 
ATOM      8  O   UNL     1       1.406  10.000  17.777  0.00  0.00    +0.000 OA
ATOM      9  N   UNL     1       0.626   9.301  19.814  0.00  0.00    +0.000 N 
ATOM     10  H   UNL     1       0.583   8.592  20.534  0.00  0.00    +0.000 HD
BRANCH   9  11
ATOM     11  C   UNL     1      -0.307  10.405  19.930  0.00  0.00    +0.000 C 
BRANCH  11  12
ATOM     12  C   UNL     1      -0.128  11.219  21.227  0.00  0.00    +0.000 C 
BRANCH  12  13
ATOM     13  N   UNL     1      -1.059  10.828  22.310  0.00  0.00    +0.000 NA
ATOM     14  C   UNL     1      -0.426   9.906  23.260  0.00  0.00    +0.000 C 
ATOM     15  C   UNL     1      -1.524  12.019  23.030  0.00  0.00    +0.000 C 
ENDBRANCH  12  13
ENDBRANCH  11  12
ENDBRANCH   9  11
ENDBRANCH   4   7
BRANCH   1  16
ATOM     16  N   UNL     1       5.017   4.731  18.630  0.00  0.00    +0.000 N 
ATOM     17  H   UNL     1       5.914   4.886  19.083  0.00  0.00    +0.000 HD
BRANCH  16  18
ATOM     18  C   UNL     1       4.506   3.369  18.583  0.00  0.00    +0.000 C 
BRANCH  18  19
ATOM     19  C   UNL     1       3.958   3.087  17.190  0.00  0.00    +0.000 C 
BRANCH  19  20
ATOM     20  C   UNL     1       2.725   2.194  17.283  0.00  0.00    +0.000 C 
BRANCH  20  21
ATOM     21  C   UNL     1       2.130   2.230  18.684  0.00  0.00    +0.000 C 
BRANCH  21  22
ATOM     22  C   UNL     1       0.924   3.160  18.726  0.00  0.00    +0.000 C 
BRANCH  22  23
ATOM     23  C   UNL     1       0.595   3.542  20.164  0.00  0.00    +0.000 C 
BRANCH  23  25
ATOM     24  C   UNL     1       2.313   3.472  21.979  0.00  0.00    +0.000 C 
ATOM     25  C   UNL     1       1.340   2.653  21.151  0.00  0.00    +0.000 C 
ENDBRANCH  23  25
ENDBRANCH  22  23
ENDBRANCH  21  22
ENDBRANCH  20  21
ENDBRANCH  19  20
ENDBRANCH  18  19
ENDBRANCH  16  18
ENDBRANCH   1  16
TORSDOF 12
ENDMDL
MODEL 9
REMARK VINA RESULT:      -5.6      5.444      9.169
REMARK  Name = 
REMARK  15 active torsions:
REMARK  status: ('A' for Active; 'I' for Inactive)
REMARK    1  A    between atoms: C_1  and  C_2
REMARK    2  A    between atoms: C_2  and  C_3
REMARK    3  A    between atoms: C_3  and  C_4
REMARK    4  A    between atoms: C_4  and  C_5
REMARK    5  A    between atoms: C_5  and  C_6
REMARK    6  A    between atoms: C_6  and  C_7
REMARK    7  A    between atoms: C_7  and  C_8
REMARK    8  A    between atoms: C_8  and  N_9
REMARK    9  A    between atoms: N_9  and  C_10
REMARK   10  A    between atoms: C_13  and  C_14
REMARK   11  A    between atoms: N_16  and  C_17
REMARK   12  A    between atoms: C_17  and  C_18
REMARK   13  A    between atoms: C_18  and  N_19
REMARK   14  A    between atoms: N_19  and  C_20
REMARK   15  A    between atoms: N_19  and  C_21
REMARK                            x       y       z     vdW  Elec       q    Type
REMARK                         _______ _______ _______ _____ _____    ______ ____
ROOT
ATOM      1  C   UNL     1       2.332   7.518  19.070  0.00  0.00    +0.000 A 
ATOM      2  C   UNL     1       1.724   7.955  20.245  0.00  0.00    +0.000 A 
ATOM      3  C   UNL     1       0.979   9.133  20.287  0.00  0.00    +0.000 A 
ATOM      4  C   UNL     1       0.821   9.916  19.137  0.00  0.00    +0.000 A 
ATOM      5  C   UNL     1       1.395   9.469  17.943  0.00  0.00    +0.000 A 
ATOM      6  C   UNL     1       2.142   8.283  17.912  0.00  0.00    +0.000 A 
ENDROOT
BRANCH   4   7
ATOM      7  C   UNL     1       0.076  11.199  19.249  0.00  0.00    +0.000 C 
ATOM      8  O   UNL     1      -0.705  11.372  20.204  0.00  0.00    +0.000 OA
ATOM      9  N   UNL     1       0.303  12.173  18.310  0.00  0.00    +0.000 N 
ATOM     10  H   UNL     1       1.002  12.073  17.586  0.00  0.00    +0.000 HD
BRANCH   9  11
ATOM     11  C   UNL     1      -0.372  13.455  18.391  0.00  0.00    +0.000 C 
BRANCH  11  12
ATOM     12  C   UNL     1       0.521  14.576  18.958  0.00  0.00    +0.000 C 
BRANCH  12  13
ATOM     13  N   UNL     1      -0.228  15.628  19.681  0.00  0.00    +0.000 NA
ATOM     14  C   UNL     1      -0.642  16.711  18.782  0.00  0.00    +0.000 C 
ATOM     15  C   UNL     1      -1.417  15.053  20.321  0.00  0.00    +0.000 C 
ENDBRANCH  12  13
ENDBRANCH  11  12
ENDBRANCH   9  11
ENDBRANCH   4   7
BRANCH   1  16
ATOM     16  N   UNL     1       3.063   6.337  19.023  0.00  0.00    +0.000 N 
ATOM     17  H   UNL     1       3.295   5.929  19.925  0.00  0.00    +0.000 HD
BRANCH  16  18
ATOM     18  C   UNL     1       2.950   5.442  17.881  0.00  0.00    +0.000 C 
BRANCH  18  19
ATOM     19  C   UNL     1       4.235   4.634  17.750  0.00  0.00    +0.000 C 
BRANCH  19  20
ATOM     20  C   UNL     1       3.908   3.151  17.604  0.00  0.00    +0.000 C 
BRANCH  20  21
ATOM     21  C   UNL     1       2.403   2.924  17.583  0.00  0.00    +0.000 C 
BRANCH  21  22
ATOM     22  C   UNL     1       1.962   2.161  18.826  0.00  0.00    +0.000 C 
BRANCH  22  23
ATOM     23  C   UNL     1       0.724   2.807  19.436  0.00  0.00    +0.000 C 
BRANCH  23  25
ATOM     24  C   UNL     1       2.181   3.114  21.445  0.00  0.00    +0.000 C 
ATOM     25  C   UNL     1       1.100   3.739  20.581  0.00  0.00    +0.000 C 
ENDBRANCH  23  25
ENDBRANCH  22  23
ENDBRANCH  21  22
ENDBRANCH  20  21
ENDBRANCH  19  20
ENDBRANCH  18  19
ENDBRANCH  16  18
ENDBRANCH   1  16
TORSDOF 12
ENDMDL
