MODEL 1
REMARK VINA RESULT:      -8.5      0.000      0.000
REMARK  Name = 
REMARK  6 active torsions:
REMARK  status: ('A' for Active; 'I' for Inactive)
REMARK    1  A    between atoms: C_1  and  C_2
REMARK    2  A    between atoms: N_4  and  C_5
REMARK    3  A    between atoms: C_7  and  O_8
REMARK    4  A    between atoms: C_9  and  C_10
REMARK    5  A    between atoms: C_10  and  N_11
REMARK    6  A    between atoms: N_14  and  C_15
REMARK                            x       y       z     vdW  Elec       q    Type
REMARK                         _______ _______ _______ _____ _____    ______ ____
ROOT
ATOM      1  C   UNL     1       4.971   5.914  16.858  0.00  0.00    +0.000 C 
ATOM      2  C   UNL     1       6.143   5.165  16.235  0.00  0.00    +0.000 C 
ATOM      3  C   UNL     1       7.212   5.231  17.302  0.00  0.00    +0.000 C 
ATOM      4  C   UNL     1       6.895   6.522  18.060  0.00  0.00    +0.000 C 
ATOM      5  O   UNL     1       5.507   6.838  17.825  0.00  0.00    +0.000 OA
ENDROOT
BRANCH   1   9
ATOM      6  C   UNL     1       3.422   1.381  18.200  0.00  0.00    +0.000 C 
ATOM      7  C   UNL     1       3.257   2.860  18.125  0.00  0.00    +0.000 A 
ATOM      8  C   UNL     1       4.148   3.684  17.566  0.00  0.00    +0.000 A 
ATOM      9  N   UNL     1       3.971   5.052  17.489  0.00  0.00    +0.000 N 
ATOM     10  C   UNL     1       2.809   5.655  17.951  0.00  0.00    +0.000 A 
ATOM     11  O   UNL     1       2.569   6.856  17.861  0.00  0.00    +0.000 OA
ATOM     12  N   UNL     1       1.905   4.813  18.544  0.00  0.00    +0.000 N 
ATOM     13  C   UNL     1       2.032   3.461  18.693  0.00  0.00    +0.000 A 
ATOM     14  O   UNL     1       1.181   2.783  19.259  0.00  0.00    +0.000 OA
ATOM     15  H   UNL     1       1.065   5.235  18.910  0.00  0.00    +0.000 HD
ENDBRANCH   1   9
BRANCH   3  16
ATOM     16  O   UNL     1       7.068   4.089  18.150  0.00  0.00    +0.000 OA
ATOM     17  H   UNL     1       6.120   3.905  18.259  0.00  0.00    +0.000 HD
ENDBRANCH   3  16
BRANCH   4  18
ATOM     18  C   UNL     1       7.743   7.697  17.584  0.00  0.00    +0.000 C 
BRANCH  18  19
ATOM     19  N   UNL     1       8.583   8.236  18.645  0.00  0.00    +0.000 N 
ATOM     20  C   UNL     1       8.804   9.601  18.638  0.00  0.00    +0.000 C 
ATOM     21  O   UNL     1       8.364  10.307  17.737  0.00  0.00    +0.000 OA
ATOM     22  N   UNL     1       9.588  10.005  19.694  0.00  0.00    +0.000 N 
ATOM     23  H   UNL     1       8.452   7.827  19.562  0.00  0.00    +0.000 HD
ATOM     24  H   UNL     1      10.131   9.276  20.134  0.00  0.00    +0.000 HD
BRANCH  22  25
ATOM     25  C   UNL     1       9.991  11.339  19.927  0.00  0.00    +0.000 A 
ATOM     26  C   UNL     1      11.087  11.922  19.283  0.00  0.00    +0.000 A 
ATOM     27  C   UNL     1      11.513  13.208  19.622  0.00  0.00    +0.000 A 
ATOM     28  C   UNL     1      10.834  13.932  20.595  0.00  0.00    +0.000 A 
ATOM     29  C   UNL     1       9.705  13.384  21.203  0.00  0.00    +0.000 A 
ATOM     30  C   UNL     1       9.276  12.097  20.861  0.00  0.00    +0.000 A 
ENDBRANCH  22  25
ENDBRANCH  18  19
ENDBRANCH   4  18
TORSDOF 5
ENDMDL
MODEL 2
REMARK VINA RESULT:      -8.1      4.640      7.233
REMARK  Name = 
REMARK  6 active torsions:
REMARK  status: ('A' for Active; 'I' for Inactive)
REMARK    1  A    between atoms: C_1  and  C_2
REMARK    2  A    between atoms: N_4  and  C_5
REMARK    3  A    between atoms: C_7  and  O_8
REMARK    4  A    between atoms: C_9  and  C_10
REMARK    5  A    between atoms: C_10  and  N_11
REMARK    6  A    between atoms: N_14  and  C_15
REMARK                            x       y       z     vdW  Elec       q    Type
REMARK                         _______ _______ _______ _____ _____    ______ ____
ROOT
ATOM      1  C   UNL     1       5.198   5.587  18.329  0.00  0.00    +0.000 C 
ATOM      2  C   UNL     1       5.506   4.437  19.282  0.00  0.00    +0.000 C 
ATOM      3  C   UNL     1       4.304   3.532  19.145  0.00  0.00    +0.000 C 
ATOM      4  C   UNL     1       3.169   4.485  18.760  0.00  0.00    +0.000 C 
ATOM      5  O   UNL     1       3.766   5.670  18.195  0.00  0.00    +0.000 OA
ENDROOT
BRANCH   1   9
ATOM      6  C   UNL     1       5.109   3.830  13.676  0.00  0.00    +0.000 C 
ATOM      7  C   UNL     1       5.745   4.606  14.779  0.00  0.00    +0.000 A 
ATOM      8  C   UNL     1       5.208   4.753  15.994  0.00  0.00    +0.000 A 
ATOM      9  N   UNL     1       5.820   5.461  17.011  0.00  0.00    +0.000 N 
ATOM     10  C   UNL     1       7.076   6.026  16.840  0.00  0.00    +0.000 A 
ATOM     11  O   UNL     1       7.694   6.618  17.722  0.00  0.00    +0.000 OA
ATOM     12  N   UNL     1       7.616   5.894  15.588  0.00  0.00    +0.000 N 
ATOM     13  C   UNL     1       7.052   5.247  14.525  0.00  0.00    +0.000 A 
ATOM     14  O   UNL     1       7.596   5.196  13.427  0.00  0.00    +0.000 OA
ATOM     15  H   UNL     1       8.517   6.321  15.436  0.00  0.00    +0.000 HD
ENDBRANCH   1   9
BRANCH   3  16
ATOM     16  O   UNL     1       4.566   2.596  18.096  0.00  0.00    +0.000 OA
ATOM     17  H   UNL     1       5.433   2.804  17.708  0.00  0.00    +0.000 HD
ENDBRANCH   3  16
BRANCH   4  18
ATOM     18  C   UNL     1       2.325   4.897  19.962  0.00  0.00    +0.000 C 
BRANCH  18  19
ATOM     19  N   UNL     1       2.588   6.270  20.375  0.00  0.00    +0.000 N 
ATOM     20  C   UNL     1       1.501   7.022  20.779  0.00  0.00    +0.000 C 
ATOM     21  O   UNL     1       0.364   6.567  20.725  0.00  0.00    +0.000 OA
ATOM     22  N   UNL     1       1.864   8.290  21.169  0.00  0.00    +0.000 N 
ATOM     23  H   UNL     1       3.434   6.414  20.912  0.00  0.00    +0.000 HD
ATOM     24  H   UNL     1       2.766   8.603  20.839  0.00  0.00    +0.000 HD
BRANCH  22  25
ATOM     25  C   UNL     1       0.959   9.282  21.611  0.00  0.00    +0.000 A 
ATOM     26  C   UNL     1       0.366   9.254  22.876  0.00  0.00    +0.000 A 
ATOM     27  C   UNL     1      -0.602  10.195  23.231  0.00  0.00    +0.000 A 
ATOM     28  C   UNL     1      -0.972  11.187  22.330  0.00  0.00    +0.000 A 
ATOM     29  C   UNL     1      -0.346  11.260  21.087  0.00  0.00    +0.000 A 
ATOM     30  C   UNL     1       0.627  10.319  20.732  0.00  0.00    +0.000 A 
ENDBRANCH  22  25
ENDBRANCH  18  19
ENDBRANCH   4  18
TORSDOF 5
ENDMDL
MODEL 3
REMARK VINA RESULT:      -8.1      4.923      6.998
REMARK  Name = 
REMARK  6 active torsions:
REMARK  status: ('A' for Active; 'I' for Inactive)
REMARK    1  A    between atoms: C_1  and  C_2
REMARK    2  A    between atoms: N_4  and  C_5
REMARK    3  A    between atoms: C_7  and  O_8
REMARK    4  A    between atoms: C_9  and  C_10
REMARK    5  A    between atoms: C_10  and  N_11
REMARK    6  A    between atoms: N_14  and  C_15
REMARK                            x       y       z     vdW  Elec       q    Type
REMARK                         _______ _______ _______ _____ _____    ______ ____
ROOT
ATOM      1  C   UNL     1       4.905   5.429  16.779  0.00  0.00    +0.000 C 
ATOM      2  C   UNL     1       5.740   5.916  17.957  0.00  0.00    +0.000 C 
ATOM      3  C   UNL     1       5.996   4.657  18.753  0.00  0.00    +0.000 C 
ATOM      4  C   UNL     1       4.788   3.771  18.439  0.00  0.00    +0.000 C 
ATOM      5  O   UNL     1       4.222   4.230  17.193  0.00  0.00    +0.000 OA
ENDROOT
BRANCH   1   9
ATOM      6  C   UNL     1       5.365   3.158  12.377  0.00  0.00    +0.000 C 
ATOM      7  C   UNL     1       5.861   4.070  13.446  0.00  0.00    +0.000 A 
ATOM      8  C   UNL     1       5.189   4.338  14.570  0.00  0.00    +0.000 A 
ATOM      9  N   UNL     1       5.672   5.173  15.560  0.00  0.00    +0.000 N 
ATOM     10  C   UNL     1       6.930   5.751  15.464  0.00  0.00    +0.000 A 
ATOM     11  O   UNL     1       7.436   6.455  16.334  0.00  0.00    +0.000 OA
ATOM     12  N   UNL     1       7.609   5.494  14.302  0.00  0.00    +0.000 N 
ATOM     13  C   UNL     1       7.178   4.716  13.265  0.00  0.00    +0.000 A 
ATOM     14  O   UNL     1       7.843   4.557  12.247  0.00  0.00    +0.000 OA
ATOM     15  H   UNL     1       8.515   5.927  14.202  0.00  0.00    +0.000 HD
ENDBRANCH   1   9
BRANCH   3  16
ATOM     16  O   UNL     1       7.206   4.063  18.275  0.00  0.00    +0.000 OA
ATOM     17  H   UNL     1       7.019   3.141  18.030  0.00  0.00    +0.000 HD
ENDBRANCH   3  16
BRANCH   4  18
ATOM     18  C   UNL     1       3.711   3.856  19.516  0.00  0.00    +0.000 C 
BRANCH  18  19
ATOM     19  N   UNL     1       3.625   5.185  20.107  0.00  0.00    +0.000 N 
ATOM     20  C   UNL     1       2.540   5.962  19.746  0.00  0.00    +0.000 C 
ATOM     21  O   UNL     1       1.729   5.567  18.915  0.00  0.00    +0.000 OA
ATOM     22  N   UNL     1       2.544   7.184  20.377  0.00  0.00    +0.000 N 
ATOM     23  H   UNL     1       3.898   5.254  21.079  0.00  0.00    +0.000 HD
ATOM     24  H   UNL     1       3.435   7.473  20.755  0.00  0.00    +0.000 HD
BRANCH  22  25
ATOM     25  C   UNL     1       1.569   8.188  20.184  0.00  0.00    +0.000 A 
ATOM     26  C   UNL     1       1.485   8.945  19.012  0.00  0.00    +0.000 A 
ATOM     27  C   UNL     1       0.574   9.998  18.906  0.00  0.00    +0.000 A 
ATOM     28  C   UNL     1      -0.277  10.291  19.965  0.00  0.00    +0.000 A 
ATOM     29  C   UNL     1      -0.242   9.507  21.117  0.00  0.00    +0.000 A 
ATOM     30  C   UNL     1       0.668   8.450  21.222  0.00  0.00    +0.000 A 
ENDBRANCH  22  25
ENDBRANCH  18  19
ENDBRANCH   4  18
TORSDOF 5
ENDMDL
MODEL 4
REMARK VINA RESULT:      -8.0      1.037      1.821
REMARK  Name = 
REMARK  6 active torsions:
REMARK  status: ('A' for Active; 'I' for Inactive)
REMARK    1  A    between atoms: C_1  and  C_2
REMARK    2  A    between atoms: N_4  and  C_5
REMARK    3  A    between atoms: C_7  and  O_8
REMARK    4  A    between atoms: C_9  and  C_10
REMARK    5  A    between atoms: C_10  and  N_11
REMARK    6  A    between atoms: N_14  and  C_15
REMARK                            x       y       z     vdW  Elec       q    Type
REMARK                         _______ _______ _______ _____ _____    ______ ____
ROOT
ATOM      1  C   UNL     1       5.238   6.020  16.769  0.00  0.00    +0.000 C 
ATOM      2  C   UNL     1       6.475   5.260  16.301  0.00  0.00    +0.000 C 
ATOM      3  C   UNL     1       7.421   5.370  17.474  0.00  0.00    +0.000 C 
ATOM      4  C   UNL     1       7.019   6.683  18.149  0.00  0.00    +0.000 C 
ATOM      5  O   UNL     1       5.663   6.980  17.755  0.00  0.00    +0.000 OA
ENDROOT
BRANCH   1   9
ATOM      6  C   UNL     1       1.772   5.155  20.231  0.00  0.00    +0.000 C 
ATOM      7  C   UNL     1       2.519   4.788  18.994  0.00  0.00    +0.000 A 
ATOM      8  C   UNL     1       3.485   5.536  18.455  0.00  0.00    +0.000 A 
ATOM      9  N   UNL     1       4.180   5.172  17.317  0.00  0.00    +0.000 N 
ATOM     10  C   UNL     1       3.943   3.958  16.687  0.00  0.00    +0.000 A 
ATOM     11  O   UNL     1       4.565   3.553  15.708  0.00  0.00    +0.000 OA
ATOM     12  N   UNL     1       2.937   3.200  17.227  0.00  0.00    +0.000 N 
ATOM     13  C   UNL     1       2.182   3.516  18.321  0.00  0.00    +0.000 A 
ATOM     14  O   UNL     1       1.281   2.788  18.726  0.00  0.00    +0.000 OA
ATOM     15  H   UNL     1       2.732   2.326  16.768  0.00  0.00    +0.000 HD
ENDBRANCH   1   9
BRANCH   3  16
ATOM     16  O   UNL     1       7.192   4.256  18.341  0.00  0.00    +0.000 OA
ATOM     17  H   UNL     1       6.394   4.436  18.867  0.00  0.00    +0.000 HD
ENDBRANCH   3  16
BRANCH   4  18
ATOM     18  C   UNL     1       7.908   7.848  17.728  0.00  0.00    +0.000 C 
BRANCH  18  19
ATOM     19  N   UNL     1       8.689   8.376  18.839  0.00  0.00    +0.000 N 
ATOM     20  C   UNL     1       8.919   9.739  18.852  0.00  0.00    +0.000 C 
ATOM     21  O   UNL     1       8.536  10.453  17.932  0.00  0.00    +0.000 OA
ATOM     22  N   UNL     1       9.643  10.132  19.954  0.00  0.00    +0.000 N 
ATOM     23  H   UNL     1       8.502   7.963  19.744  0.00  0.00    +0.000 HD
ATOM     24  H   UNL     1      10.154   9.397  20.421  0.00  0.00    +0.000 HD
BRANCH  22  25
ATOM     25  C   UNL     1      10.041  11.462  20.218  0.00  0.00    +0.000 A 
ATOM     26  C   UNL     1       9.259  12.351  20.961  0.00  0.00    +0.000 A 
ATOM     27  C   UNL     1       9.641  13.687  21.108  0.00  0.00    +0.000 A 
ATOM     28  C   UNL     1      10.821  14.140  20.529  0.00  0.00    +0.000 A 
ATOM     29  C   UNL     1      11.637  13.249  19.835  0.00  0.00    +0.000 A 
ATOM     30  C   UNL     1      11.256  11.910  19.690  0.00  0.00    +0.000 A 
ENDBRANCH  22  25
ENDBRANCH  18  19
ENDBRANCH   4  18
TORSDOF 5
ENDMDL
MODEL 5
REMARK VINA RESULT:      -8.0      1.114      1.583
REMARK  Name = 
REMARK  6 active torsions:
REMARK  status: ('A' for Active; 'I' for Inactive)
REMARK    1  A    between atoms: C_1  and  C_2
REMARK    2  A    between atoms: N_4  and  C_5
REMARK    3  A    between atoms: C_7  and  O_8
REMARK    4  A    between atoms: C_9  and  C_10
REMARK    5  A    between atoms: C_10  and  N_11
REMARK    6  A    between atoms: N_14  and  C_15
REMARK                            x       y       z     vdW  Elec       q    Type
REMARK                         _______ _______ _______ _____ _____    ______ ____
ROOT
ATOM      1  C   UNL     1       4.820   5.749  16.914  0.00  0.00    +0.000 C 
ATOM      2  C   UNL     1       6.001   4.885  16.485  0.00  0.00    +0.000 C 
ATOM      3  C   UNL     1       6.994   5.059  17.610  0.00  0.00    +0.000 C 
ATOM      4  C   UNL     1       6.680   6.450  18.165  0.00  0.00    +0.000 C 
ATOM      5  O   UNL     1       5.327   6.777  17.787  0.00  0.00    +0.000 OA
ENDROOT
BRANCH   1   9
ATOM      6  C   UNL     1       1.555   5.326  20.643  0.00  0.00    +0.000 C 
ATOM      7  C   UNL     1       2.182   4.843  19.380  0.00  0.00    +0.000 A 
ATOM      8  C   UNL     1       3.161   5.486  18.738  0.00  0.00    +0.000 A 
ATOM      9  N   UNL     1       3.743   5.014  17.577  0.00  0.00    +0.000 N 
ATOM     10  C   UNL     1       3.372   3.794  17.030  0.00  0.00    +0.000 A 
ATOM     11  O   UNL     1       3.890   3.296  16.034  0.00  0.00    +0.000 OA
ATOM     12  N   UNL     1       2.352   3.145  17.676  0.00  0.00    +0.000 N 
ATOM     13  C   UNL     1       1.703   3.571  18.800  0.00  0.00    +0.000 A 
ATOM     14  O   UNL     1       0.782   2.936  19.303  0.00  0.00    +0.000 OA
ATOM     15  H   UNL     1       2.050   2.268  17.278  0.00  0.00    +0.000 HD
ENDBRANCH   1   9
BRANCH   3  16
ATOM     16  O   UNL     1       6.743   4.047  18.589  0.00  0.00    +0.000 OA
ATOM     17  H   UNL     1       6.694   3.188  18.137  0.00  0.00    +0.000 HD
ENDBRANCH   3  16
BRANCH   4  18
ATOM     18  C   UNL     1       7.609   7.521  17.602  0.00  0.00    +0.000 C 
BRANCH  18  19
ATOM     19  N   UNL     1       8.504   8.063  18.616  0.00  0.00    +0.000 N 
ATOM     20  C   UNL     1       8.687   9.433  18.625  0.00  0.00    +0.000 C 
ATOM     21  O   UNL     1       8.168  10.144  17.771  0.00  0.00    +0.000 OA
ATOM     22  N   UNL     1       9.529   9.838  19.634  0.00  0.00    +0.000 N 
ATOM     23  H   UNL     1       8.447   7.632  19.531  0.00  0.00    +0.000 HD
ATOM     24  H   UNL     1      10.120   9.116  20.021  0.00  0.00    +0.000 HD
BRANCH  22  25
ATOM     25  C   UNL     1       9.911  11.179  19.869  0.00  0.00    +0.000 A 
ATOM     26  C   UNL     1      10.889  11.830  19.112  0.00  0.00    +0.000 A 
ATOM     27  C   UNL     1      11.309  13.119  19.446  0.00  0.00    +0.000 A 
ATOM     28  C   UNL     1      10.740  13.777  20.531  0.00  0.00    +0.000 A 
ATOM     29  C   UNL     1       9.724  13.160  21.258  0.00  0.00    +0.000 A 
ATOM     30  C   UNL     1       9.299  11.870  20.921  0.00  0.00    +0.000 A 
ENDBRANCH  22  25
ENDBRANCH  18  19
ENDBRANCH   4  18
TORSDOF 5
ENDMDL
MODEL 6
REMARK VINA RESULT:      -8.0      4.886      7.306
REMARK  Name = 
REMARK  6 active torsions:
REMARK  status: ('A' for Active; 'I' for Inactive)
REMARK    1  A    between atoms: C_1  and  C_2
REMARK    2  A    between atoms: N_4  and  C_5
REMARK    3  A    between atoms: C_7  and  O_8
REMARK    4  A    between atoms: C_9  and  C_10
REMARK    5  A    between atoms: C_10  and  N_11
REMARK    6  A    between atoms: N_14  and  C_15
REMARK                            x       y       z     vdW  Elec       q    Type
REMARK                         _______ _______ _______ _____ _____    ______ ____
ROOT
ATOM      1  C   UNL     1       4.968   4.731  19.192  0.00  0.00    +0.000 C 
ATOM      2  C   UNL     1       4.553   3.321  19.597  0.00  0.00    +0.000 C 
ATOM      3  C   UNL     1       3.129   3.216  19.103  0.00  0.00    +0.000 C 
ATOM      4  C   UNL     1       2.621   4.659  19.136  0.00  0.00    +0.000 C 
ATOM      5  O   UNL     1       3.772   5.529  19.101  0.00  0.00    +0.000 OA
ENDROOT
BRANCH   1   9
ATOM      6  C   UNL     1       5.073   4.516  14.223  0.00  0.00    +0.000 C 
ATOM      7  C   UNL     1       5.731   4.699  15.547  0.00  0.00    +0.000 A 
ATOM      8  C   UNL     1       5.086   4.649  16.716  0.00  0.00    +0.000 A 
ATOM      9  N   UNL     1       5.716   4.803  17.936  0.00  0.00    +0.000 N 
ATOM     10  C   UNL     1       7.091   4.969  18.021  0.00  0.00    +0.000 A 
ATOM     11  O   UNL     1       7.715   5.055  19.075  0.00  0.00    +0.000 OA
ATOM     12  N   UNL     1       7.750   5.042  16.821  0.00  0.00    +0.000 N 
ATOM     13  C   UNL     1       7.189   4.942  15.580  0.00  0.00    +0.000 A 
ATOM     14  O   UNL     1       7.852   5.041  14.553  0.00  0.00    +0.000 OA
ATOM     15  H   UNL     1       8.748   5.189  16.861  0.00  0.00    +0.000 HD
ENDBRANCH   1   9
BRANCH   3  16
ATOM     16  O   UNL     1       3.155   2.712  17.765  0.00  0.00    +0.000 OA
ATOM     17  H   UNL     1       2.740   3.370  17.181  0.00  0.00    +0.000 HD
ENDBRANCH   3  16
BRANCH   4  18
ATOM     18  C   UNL     1       1.826   4.965  20.401  0.00  0.00    +0.000 C 
BRANCH  18  19
ATOM     19  N   UNL     1       2.161   6.268  20.962  0.00  0.00    +0.000 N 
ATOM     20  C   UNL     1       1.132   7.183  21.079  0.00  0.00    +0.000 C 
ATOM     21  O   UNL     1       0.007   6.925  20.666  0.00  0.00    +0.000 OA
ATOM     22  N   UNL     1       1.552   8.367  21.641  0.00  0.00    +0.000 N 
ATOM     23  H   UNL     1       2.819   6.260  21.731  0.00  0.00    +0.000 HD
ATOM     24  H   UNL     1       2.548   8.531  21.610  0.00  0.00    +0.000 HD
BRANCH  22  25
ATOM     25  C   UNL     1       0.721   9.488  21.863  0.00  0.00    +0.000 A 
ATOM     26  C   UNL     1       0.814  10.659  21.106  0.00  0.00    +0.000 A 
ATOM     27  C   UNL     1       0.045  11.780  21.429  0.00  0.00    +0.000 A 
ATOM     28  C   UNL     1      -0.839  11.732  22.500  0.00  0.00    +0.000 A 
ATOM     29  C   UNL     1      -0.983  10.551  23.225  0.00  0.00    +0.000 A 
ATOM     30  C   UNL     1      -0.215   9.427  22.900  0.00  0.00    +0.000 A 
ENDBRANCH  22  25
ENDBRANCH  18  19
ENDBRANCH   4  18
TORSDOF 5
ENDMDL
MODEL 7
REMARK VINA RESULT:      -7.9      3.044     10.329
REMARK  Name = 
REMARK  6 active torsions:
REMARK  status: ('A' for Active; 'I' for Inactive)
REMARK    1  A    between atoms: C_1  and  C_2
REMARK    2  A    between atoms: N_4  and  C_5
REMARK    3  A    between atoms: C_7  and  O_8
REMARK    4  A    between atoms: C_9  and  C_10
REMARK    5  A    between atoms: C_10  and  N_11
REMARK    6  A    between atoms: N_14  and  C_15
REMARK                            x       y       z     vdW  Elec       q    Type
REMARK                         _______ _______ _______ _____ _____    ______ ____
ROOT
ATOM      1  C   UNL     1       9.159  12.956  19.478  0.00  0.00    +0.000 C 
ATOM      2  C   UNL     1      10.269  12.321  20.308  0.00  0.00    +0.000 C 
ATOM      3  C   UNL     1      10.898  11.330  19.357  0.00  0.00    +0.000 C 
ATOM      4  C   UNL     1       9.756  10.950  18.413  0.00  0.00    +0.000 C 
ATOM      5  O   UNL     1       8.777  12.008  18.463  0.00  0.00    +0.000 OA
ENDROOT
BRANCH   1   9
ATOM      6  C   UNL     1      12.333  16.754  18.984  0.00  0.00    +0.000 C 
ATOM      7  C   UNL     1      11.069  16.042  18.644  0.00  0.00    +0.000 A 
ATOM      8  C   UNL     1      10.705  14.871  19.175  0.00  0.00    +0.000 A 
ATOM      9  N   UNL     1       9.520  14.233  18.862  0.00  0.00    +0.000 N 
ATOM     10  C   UNL     1       8.599  14.809  17.998  0.00  0.00    +0.000 A 
ATOM     11  O   UNL     1       7.507  14.318  17.724  0.00  0.00    +0.000 OA
ATOM     12  N   UNL     1       8.982  15.998  17.436  0.00  0.00    +0.000 N 
ATOM     13  C   UNL     1      10.153  16.664  17.665  0.00  0.00    +0.000 A 
ATOM     14  O   UNL     1      10.427  17.717  17.100  0.00  0.00    +0.000 OA
ATOM     15  H   UNL     1       8.337  16.420  16.784  0.00  0.00    +0.000 HD
ENDBRANCH   1   9
BRANCH   3  16
ATOM     16  O   UNL     1      11.949  11.993  18.650  0.00  0.00    +0.000 OA
ATOM     17  H   UNL     1      12.343  11.362  18.023  0.00  0.00    +0.000 HD
ENDBRANCH   3  16
BRANCH   4  18
ATOM     18  C   UNL     1       9.076   9.646  18.822  0.00  0.00    +0.000 C 
BRANCH  18  19
ATOM     19  N   UNL     1       8.130   9.179  17.817  0.00  0.00    +0.000 N 
ATOM     20  C   UNL     1       7.747   7.853  17.884  0.00  0.00    +0.000 C 
ATOM     21  O   UNL     1       8.237   7.096  18.715  0.00  0.00    +0.000 OA
ATOM     22  N   UNL     1       6.836   7.525  16.906  0.00  0.00    +0.000 N 
ATOM     23  H   UNL     1       7.392   9.827  17.571  0.00  0.00    +0.000 HD
ATOM     24  H   UNL     1       6.799   8.158  16.120  0.00  0.00    +0.000 HD
BRANCH  22  25
ATOM     25  C   UNL     1       6.286   6.237  16.724  0.00  0.00    +0.000 A 
ATOM     26  C   UNL     1       6.894   5.262  15.927  0.00  0.00    +0.000 A 
ATOM     27  C   UNL     1       6.262   4.039  15.689  0.00  0.00    +0.000 A 
ATOM     28  C   UNL     1       5.025   3.772  16.264  0.00  0.00    +0.000 A 
ATOM     29  C   UNL     1       4.437   4.713  17.106  0.00  0.00    +0.000 A 
ATOM     30  C   UNL     1       5.071   5.937  17.348  0.00  0.00    +0.000 A 
ENDBRANCH  22  25
ENDBRANCH  18  19
ENDBRANCH   4  18
TORSDOF 5
ENDMDL
MODEL 8
REMARK VINA RESULT:      -7.9      1.712      2.494
REMARK  Name = 
REMARK  6 active torsions:
REMARK  status: ('A' for Active; 'I' for Inactive)
REMARK    1  A    between atoms: C_1  and  C_2
REMARK    2  A    between atoms: N_4  and  C_5
REMARK    3  A    between atoms: C_7  and  O_8
REMARK    4  A    between atoms: C_9  and  C_10
REMARK    5  A    between atoms: C_10  and  N_11
REMARK    6  A    between atoms: N_14  and  C_15
REMARK                            x       y       z     vdW  Elec       q    Type
REMARK                         _______ _______ _______ _____ _____    ______ ____
ROOT
ATOM      1  C   UNL     1       4.750   4.508  17.448  0.00  0.00    +0.000 C 
ATOM      2  C   UNL     1       6.111   3.989  17.898  0.00  0.00    +0.000 C 
ATOM      3  C   UNL     1       6.722   5.172  18.612  0.00  0.00    +0.000 C 
ATOM      4  C   UNL     1       6.078   6.383  17.933  0.00  0.00    +0.000 C 
ATOM      5  O   UNL     1       4.849   5.940  17.321  0.00  0.00    +0.000 OA
ENDROOT
BRANCH   1   9
ATOM      6  C   UNL     1       1.436   5.822  20.917  0.00  0.00    +0.000 C 
ATOM      7  C   UNL     1       2.061   4.824  20.004  0.00  0.00    +0.000 A 
ATOM      8  C   UNL     1       3.065   5.102  19.168  0.00  0.00    +0.000 A 
ATOM      9  N   UNL     1       3.645   4.159  18.340  0.00  0.00    +0.000 N 
ATOM     10  C   UNL     1       3.243   2.831  18.371  0.00  0.00    +0.000 A 
ATOM     11  O   UNL     1       3.756   1.937  17.702  0.00  0.00    +0.000 OA
ATOM     12  N   UNL     1       2.199   2.550  19.212  0.00  0.00    +0.000 N 
ATOM     13  C   UNL     1       1.551   3.437  20.025  0.00  0.00    +0.000 A 
ATOM     14  O   UNL     1       0.606   3.104  20.733  0.00  0.00    +0.000 OA
ATOM     15  H   UNL     1       1.875   1.594  19.229  0.00  0.00    +0.000 HD
ENDBRANCH   1   9
BRANCH   3  16
ATOM     16  O   UNL     1       6.354   5.102  19.992  0.00  0.00    +0.000 OA
ATOM     17  H   UNL     1       6.914   4.435  20.425  0.00  0.00    +0.000 HD
ENDBRANCH   3  16
BRANCH   4  18
ATOM     18  C   UNL     1       6.968   6.981  16.847  0.00  0.00    +0.000 C 
BRANCH  18  19
ATOM     19  N   UNL     1       7.221   8.399  17.061  0.00  0.00    +0.000 N 
ATOM     20  C   UNL     1       8.209   8.730  17.969  0.00  0.00    +0.000 C 
ATOM     21  O   UNL     1       8.793   7.863  18.610  0.00  0.00    +0.000 OA
ATOM     22  N   UNL     1       8.382  10.090  18.076  0.00  0.00    +0.000 N 
ATOM     23  H   UNL     1       7.186   8.983  16.234  0.00  0.00    +0.000 HD
ATOM     24  H   UNL     1       7.612  10.652  17.742  0.00  0.00    +0.000 HD
BRANCH  22  25
ATOM     25  C   UNL     1       9.308  10.715  18.942  0.00  0.00    +0.000 A 
ATOM     26  C   UNL     1       9.047  10.931  20.298  0.00  0.00    +0.000 A 
ATOM     27  C   UNL     1       9.946  11.646  21.092  0.00  0.00    +0.000 A 
ATOM     28  C   UNL     1      11.125  12.134  20.542  0.00  0.00    +0.000 A 
ATOM     29  C   UNL     1      11.423  11.874  19.205  0.00  0.00    +0.000 A 
ATOM     30  C   UNL     1      10.524  11.155  18.410  0.00  0.00    +0.000 A 
ENDBRANCH  22  25
ENDBRANCH  18  19
ENDBRANCH   4  18
TORSDOF 5
ENDMDL
MODEL 9
REMARK VINA RESULT:      -7.8      4.874      7.664
REMARK  Name = 
REMARK  6 active torsions:
REMARK  status: ('A' for Active; 'I' for Inactive)
REMARK    1  A    between atoms: C_1  and  C_2
REMARK    2  A    between atoms: N_4  and  C_5
REMARK    3  A    between atoms: C_7  and  O_8
REMARK    4  A    between atoms: C_9  and  C_10
REMARK    5  A    between atoms: C_10  and  N_11
REMARK    6  A    between atoms: N_14  and  C_15
REMARK                            x       y       z     vdW  Elec       q    Type
REMARK                         _______ _______ _______ _____ _____    ______ ____
ROOT
ATOM      1  C   UNL     1       4.491   4.700  19.313  0.00  0.00    +0.000 C 
ATOM      2  C   UNL     1       3.377   3.667  19.191  0.00  0.00    +0.000 C 
ATOM      3  C   UNL     1       2.181   4.486  18.765  0.00  0.00    +0.000 C 
ATOM      4  C   UNL     1       2.456   5.872  19.354  0.00  0.00    +0.000 C 
ATOM      5  O   UNL     1       3.877   5.975  19.583  0.00  0.00    +0.000 OA
ENDROOT
BRANCH   1   9
ATOM      6  C   UNL     1       5.156   4.226  14.406  0.00  0.00    +0.000 C 
ATOM      7  C   UNL     1       5.641   4.565  15.774  0.00  0.00    +0.000 A 
ATOM      8  C   UNL     1       4.884   4.497  16.873  0.00  0.00    +0.000 A 
ATOM      9  N   UNL     1       5.355   4.799  18.137  0.00  0.00    +0.000 N 
ATOM     10  C   UNL     1       6.683   5.146  18.346  0.00  0.00    +0.000 A 
ATOM     11  O   UNL     1       7.173   5.370  19.450  0.00  0.00    +0.000 OA
ATOM     12  N   UNL     1       7.453   5.237  17.217  0.00  0.00    +0.000 N 
ATOM     13  C   UNL     1       7.045   4.996  15.935  0.00  0.00    +0.000 A 
ATOM     14  O   UNL     1       7.798   5.124  14.975  0.00  0.00    +0.000 OA
ATOM     15  H   UNL     1       8.414   5.514  17.346  0.00  0.00    +0.000 HD
ENDBRANCH   1   9
BRANCH   3  16
ATOM     16  O   UNL     1       2.154   4.531  17.337  0.00  0.00    +0.000 OA
ATOM     17  H   UNL     1       1.642   5.312  17.064  0.00  0.00    +0.000 HD
ENDBRANCH   3  16
BRANCH   4  18
ATOM     18  C   UNL     1       1.737   6.091  20.681  0.00  0.00    +0.000 C 
BRANCH  18  19
ATOM     19  N   UNL     1       1.866   7.462  21.157  0.00  0.00    +0.000 N 
ATOM     20  C   UNL     1       0.701   8.198  21.272  0.00  0.00    +0.000 C 
ATOM     21  O   UNL     1      -0.378   7.731  20.923  0.00  0.00    +0.000 OA
ATOM     22  N   UNL     1       0.934   9.466  21.751  0.00  0.00    +0.000 N 
ATOM     23  H   UNL     1       2.542   7.611  21.896  0.00  0.00    +0.000 HD
ATOM     24  H   UNL     1       1.886   9.793  21.668  0.00  0.00    +0.000 HD
BRANCH  22  25
ATOM     25  C   UNL     1      -0.068  10.443  21.951  0.00  0.00    +0.000 A 
ATOM     26  C   UNL     1      -0.783  10.558  23.146  0.00  0.00    +0.000 A 
ATOM     27  C   UNL     1      -1.836  11.469  23.263  0.00  0.00    +0.000 A 
ATOM     28  C   UNL     1      -2.170  12.287  22.190  0.00  0.00    +0.000 A 
ATOM     29  C   UNL     1      -1.426  12.222  21.013  0.00  0.00    +0.000 A 
ATOM     30  C   UNL     1      -0.369  11.313  20.897  0.00  0.00    +0.000 A 
ENDBRANCH  22  25
ENDBRANCH  18  19
ENDBRANCH   4  18
TORSDOF 5
ENDMDL
