MODEL 1
REMARK VINA RESULT:      -7.9      0.000      0.000
REMARK  Name = 
REMARK  17 active torsions:
REMARK  status: ('A' for Active; 'I' for Inactive)
REMARK    1  A    between atoms: C_1  and  O_2
REMARK    2  A    between atoms: O_2  and  C_3
REMARK    3  A    between atoms: C_5  and  O_6
REMARK    4  A    between atoms: O_6  and  C_7
REMARK    5  A    between atoms: C_9  and  N_10
REMARK    6  A    between atoms: N_10  and  C_11
REMARK    7  A    between atoms: N_10  and  C_20
REMARK    8  A    between atoms: C_11  and  C_12
REMARK    9  A    between atoms: C_12  and  N_13
REMARK   10  A    between atoms: C_12  and  C_17
REMARK   11  A    between atoms: N_13  and  C_14
REMARK   12  A    between atoms: C_14  and  C_15
REMARK   13  A    between atoms: C_14  and  C_16
REMARK   14  A    between atoms: C_17  and  C_18
REMARK   15  A    between atoms: C_17  and  C_19
REMARK   16  A    between atoms: C_26  and  C_27
REMARK   17  A    between atoms: N_30  and  C_31
REMARK                            x       y       z     vdW  Elec       q    Type
REMARK                         _______ _______ _______ _____ _____    ______ ____
ROOT
ATOM      1  N   UNL     1      -0.513  11.039  19.107  0.00  0.00    +0.000 N 
ENDROOT
BRANCH   1   2
ATOM      2  C   UNL     1       0.418   9.982  19.378  0.00  0.00    +0.000 A 
ATOM      3  C   UNL     1       0.353   9.287  20.596  0.00  0.00    +0.000 A 
ATOM      4  C   UNL     1       1.077   8.107  20.793  0.00  0.00    +0.000 A 
ATOM      5  C   UNL     1       1.953   7.635  19.835  0.00  0.00    +0.000 A 
ATOM      6  N   UNL     1       2.519   6.436  20.029  0.00  0.00    +0.000 NA
ATOM      7  C   UNL     1       3.412   6.044  19.091  0.00  0.00    +0.000 A 
ATOM      8  C   UNL     1       3.795   6.827  18.020  0.00  0.00    +0.000 A 
ATOM      9  N   UNL     1       3.157   8.014  17.767  0.00  0.00    +0.000 NA
ATOM     10  C   UNL     1       2.206   8.401  18.674  0.00  0.00    +0.000 A 
ATOM     11  C   UNL     1       1.388   9.530  18.460  0.00  0.00    +0.000 A 
BRANCH   8  12
ATOM     12  C   UNL     1       4.913   6.412  17.195  0.00  0.00    +0.000 A 
ATOM     13  C   UNL     1       6.251   6.891  17.207  0.00  0.00    +0.000 A 
ATOM     14  N   UNL     1       7.038   6.277  16.327  0.00  0.00    +0.000 NA
ATOM     15  N   UNL     1       6.214   5.402  15.730  0.00  0.00    +0.000 N 
ATOM     16  C   UNL     1       6.748   4.495  14.740  0.00  0.00    +0.000 C 
ATOM     17  C   UNL     1       4.920   5.478  16.178  0.00  0.00    +0.000 A 
ENDBRANCH   8  12
ENDBRANCH   1   2
BRANCH   1  22
ATOM     18  C   UNL     1      -2.881  10.161  16.313  0.00  0.00    +0.000 A 
ATOM     19  C   UNL     1      -4.064  10.725  16.775  0.00  0.00    +0.000 A 
ATOM     20  C   UNL     1      -4.061  11.530  17.907  0.00  0.00    +0.000 A 
ATOM     21  C   UNL     1      -2.873  11.688  18.629  0.00  0.00    +0.000 A 
ATOM     22  C   UNL     1      -1.677  11.021  18.275  0.00  0.00    +0.000 A 
ATOM     23  C   UNL     1      -1.700  10.365  17.033  0.00  0.00    +0.000 A 
BRANCH  18  25
ATOM     24  C   UNL     1      -3.647  10.089  14.057  0.00  0.00    +0.000 C 
ATOM     25  O   UNL     1      -2.997   9.448  15.149  0.00  0.00    +0.000 OA
ENDBRANCH  18  25
BRANCH  20  26
ATOM     26  O   UNL     1      -5.273  12.089  18.209  0.00  0.00    +0.000 OA
ATOM     27  C   UNL     1      -6.424  11.258  18.123  0.00  0.00    +0.000 C 
ENDBRANCH  20  26
ENDBRANCH   1  22
BRANCH   1  28
ATOM     28  C   UNL     1      -0.334  12.264  19.984  0.00  0.00    +0.000 C 
BRANCH  28  29
ATOM     29  C   UNL     1       0.093  13.584  19.220  0.00  0.00    +0.000 C 
BRANCH  29  30
ATOM     30  C   UNL     1       1.644  13.837  19.244  0.00  0.00    +0.000 C 
ATOM     31  C   UNL     1       2.314  13.394  20.555  0.00  0.00    +0.000 C 
ATOM     32  C   UNL     1       2.378  13.117  18.097  0.00  0.00    +0.000 C 
ENDBRANCH  29  30
BRANCH  29  33
ATOM     33  N   UNL     1      -0.698  14.787  19.574  0.00  0.00    +0.000 NA
ATOM     34  H   UNL     1      -1.161  14.624  20.471  0.00  0.00    +0.000 HD
BRANCH  33  35
ATOM     35  C   UNL     1      -0.062  16.110  19.542  0.00  0.00    +0.000 C 
ATOM     36  C   UNL     1      -0.455  16.798  18.228  0.00  0.00    +0.000 C 
ATOM     37  C   UNL     1      -0.479  17.036  20.665  0.00  0.00    +0.000 C 
ENDBRANCH  33  35
ENDBRANCH  29  33
ENDBRANCH  28  29
ENDBRANCH   1  28
TORSDOF 10
ENDMDL
MODEL 2
REMARK VINA RESULT:      -7.6      1.377      1.998
REMARK  Name = 
REMARK  17 active torsions:
REMARK  status: ('A' for Active; 'I' for Inactive)
REMARK    1  A    between atoms: C_1  and  O_2
REMARK    2  A    between atoms: O_2  and  C_3
REMARK    3  A    between atoms: C_5  and  O_6
REMARK    4  A    between atoms: O_6  and  C_7
REMARK    5  A    between atoms: C_9  and  N_10
REMARK    6  A    between atoms: N_10  and  C_11
REMARK    7  A    between atoms: N_10  and  C_20
REMARK    8  A    between atoms: C_11  and  C_12
REMARK    9  A    between atoms: C_12  and  N_13
REMARK   10  A    between atoms: C_12  and  C_17
REMARK   11  A    between atoms: N_13  and  C_14
REMARK   12  A    between atoms: C_14  and  C_15
REMARK   13  A    between atoms: C_14  and  C_16
REMARK   14  A    between atoms: C_17  and  C_18
REMARK   15  A    between atoms: C_17  and  C_19
REMARK   16  A    between atoms: C_26  and  C_27
REMARK   17  A    between atoms: N_30  and  C_31
REMARK                            x       y       z     vdW  Elec       q    Type
REMARK                         _______ _______ _______ _____ _____    ______ ____
ROOT
ATOM      1  N   UNL     1      -0.037  11.037  18.769  0.00  0.00    +0.000 N 
ENDROOT
BRANCH   1   2
ATOM      2  C   UNL     1       0.818   9.929  19.079  0.00  0.00    +0.000 A 
ATOM      3  C   UNL     1       0.675   9.253  20.300  0.00  0.00    +0.000 A 
ATOM      4  C   UNL     1       1.318   8.034  20.530  0.00  0.00    +0.000 A 
ATOM      5  C   UNL     1       2.192   7.497  19.604  0.00  0.00    +0.000 A 
ATOM      6  N   UNL     1       2.676   6.268  19.827  0.00  0.00    +0.000 NA
ATOM      7  C   UNL     1       3.571   5.811  18.920  0.00  0.00    +0.000 A 
ATOM      8  C   UNL     1       4.032   6.556  17.853  0.00  0.00    +0.000 A 
ATOM      9  N   UNL     1       3.477   7.777  17.569  0.00  0.00    +0.000 NA
ATOM     10  C   UNL     1       2.526   8.233  18.443  0.00  0.00    +0.000 A 
ATOM     11  C   UNL     1       1.785   9.407  18.194  0.00  0.00    +0.000 A 
BRANCH   8  12
ATOM     12  C   UNL     1       5.146   6.063  17.066  0.00  0.00    +0.000 A 
ATOM     13  C   UNL     1       6.485   5.822  17.477  0.00  0.00    +0.000 A 
ATOM     14  N   UNL     1       7.258   5.349  16.503  0.00  0.00    +0.000 NA
ATOM     15  N   UNL     1       6.429   5.288  15.449  0.00  0.00    +0.000 N 
ATOM     16  C   UNL     1       6.914   4.746  14.201  0.00  0.00    +0.000 C 
ATOM     17  C   UNL     1       5.167   5.752  15.721  0.00  0.00    +0.000 A 
ENDBRANCH   8  12
ENDBRANCH   1   2
BRANCH   1  22
ATOM     18  C   UNL     1      -3.025  10.186  16.639  0.00  0.00    +0.000 A 
ATOM     19  C   UNL     1      -4.055  10.747  17.385  0.00  0.00    +0.000 A 
ATOM     20  C   UNL     1      -3.770  11.542  18.487  0.00  0.00    +0.000 A 
ATOM     21  C   UNL     1      -2.440  11.693  18.894  0.00  0.00    +0.000 A 
ATOM     22  C   UNL     1      -1.371  11.028  18.251  0.00  0.00    +0.000 A 
ATOM     23  C   UNL     1      -1.702  10.383  17.048  0.00  0.00    +0.000 A 
BRANCH  18  25
ATOM     24  C   UNL     1      -3.304  10.131  14.273  0.00  0.00    +0.000 C 
ATOM     25  O   UNL     1      -3.427   9.484  15.535  0.00  0.00    +0.000 OA
ENDBRANCH  18  25
BRANCH  20  26
ATOM     26  O   UNL     1      -4.868  12.099  19.085  0.00  0.00    +0.000 OA
ATOM     27  C   UNL     1      -6.104  11.404  18.975  0.00  0.00    +0.000 C 
ENDBRANCH  20  26
ENDBRANCH   1  22
BRANCH   1  28
ATOM     28  C   UNL     1       0.486  12.377  19.251  0.00  0.00    +0.000 C 
BRANCH  28  29
ATOM     29  C   UNL     1       0.984  12.406  20.754  0.00  0.00    +0.000 C 
BRANCH  29  30
ATOM     30  C   UNL     1      -0.081  12.997  21.747  0.00  0.00    +0.000 C 
ATOM     31  C   UNL     1      -1.037  14.004  21.087  0.00  0.00    +0.000 C 
ATOM     32  C   UNL     1      -0.954  11.905  22.395  0.00  0.00    +0.000 C 
ENDBRANCH  29  30
BRANCH  29  33
ATOM     33  N   UNL     1       2.339  12.979  20.946  0.00  0.00    +0.000 NA
ATOM     34  H   UNL     1       2.941  12.662  20.183  0.00  0.00    +0.000 HD
BRANCH  33  35
ATOM     35  C   UNL     1       2.492  14.421  21.175  0.00  0.00    +0.000 C 
ATOM     36  C   UNL     1       3.791  14.647  21.959  0.00  0.00    +0.000 C 
ATOM     37  C   UNL     1       2.591  15.251  19.911  0.00  0.00    +0.000 C 
ENDBRANCH  33  35
ENDBRANCH  29  33
ENDBRANCH  28  29
ENDBRANCH   1  28
TORSDOF 10
ENDMDL
MODEL 3
REMARK VINA RESULT:      -7.6      0.948      2.256
REMARK  Name = 
REMARK  17 active torsions:
REMARK  status: ('A' for Active; 'I' for Inactive)
REMARK    1  A    between atoms: C_1  and  O_2
REMARK    2  A    between atoms: O_2  and  C_3
REMARK    3  A    between atoms: C_5  and  O_6
REMARK    4  A    between atoms: O_6  and  C_7
REMARK    5  A    between atoms: C_9  and  N_10
REMARK    6  A    between atoms: N_10  and  C_11
REMARK    7  A    between atoms: N_10  and  C_20
REMARK    8  A    between atoms: C_11  and  C_12
REMARK    9  A    between atoms: C_12  and  N_13
REMARK   10  A    between atoms: C_12  and  C_17
REMARK   11  A    between atoms: N_13  and  C_14
REMARK   12  A    between atoms: C_14  and  C_15
REMARK   13  A    between atoms: C_14  and  C_16
REMARK   14  A    between atoms: C_17  and  C_18
REMARK   15  A    between atoms: C_17  and  C_19
REMARK   16  A    between atoms: C_26  and  C_27
REMARK   17  A    between atoms: N_30  and  C_31
REMARK                            x       y       z     vdW  Elec       q    Type
REMARK                         _______ _______ _______ _____ _____    ______ ____
ROOT
ATOM      1  N   UNL     1      -0.107  10.700  19.107  0.00  0.00    +0.000 N 
ENDROOT
BRANCH   1   2
ATOM      2  C   UNL     1       0.772   9.607  19.404  0.00  0.00    +0.000 A 
ATOM      3  C   UNL     1       0.754   9.021  20.679  0.00  0.00    +0.000 A 
ATOM      4  C   UNL     1       1.415   7.814  20.928  0.00  0.00    +0.000 A 
ATOM      5  C   UNL     1       2.186   7.205  19.956  0.00  0.00    +0.000 A 
ATOM      6  N   UNL     1       2.688   5.990  20.215  0.00  0.00    +0.000 NA
ATOM      7  C   UNL     1       3.482   5.461  19.255  0.00  0.00    +0.000 A 
ATOM      8  C   UNL     1       3.832   6.124  18.096  0.00  0.00    +0.000 A 
ATOM      9  N   UNL     1       3.254   7.328  17.785  0.00  0.00    +0.000 NA
ATOM     10  C   UNL     1       2.400   7.854  18.718  0.00  0.00    +0.000 A 
ATOM     11  C   UNL     1       1.641   9.015  18.464  0.00  0.00    +0.000 A 
BRANCH   8  12
ATOM     12  C   UNL     1       4.858   5.566  17.236  0.00  0.00    +0.000 A 
ATOM     13  C   UNL     1       5.798   4.541  17.524  0.00  0.00    +0.000 A 
ATOM     14  N   UNL     1       6.593   4.251  16.498  0.00  0.00    +0.000 NA
ATOM     15  N   UNL     1       6.181   5.093  15.537  0.00  0.00    +0.000 N 
ATOM     16  C   UNL     1       6.786   5.018  14.227  0.00  0.00    +0.000 C 
ATOM     17  C   UNL     1       5.179   5.936  15.944  0.00  0.00    +0.000 A 
ENDBRANCH   8  12
ENDBRANCH   1   2
BRANCH   1  22
ATOM     18  C   UNL     1      -3.695  11.512  18.298  0.00  0.00    +0.000 A 
ATOM     19  C   UNL     1      -3.844  10.879  17.069  0.00  0.00    +0.000 A 
ATOM     20  C   UNL     1      -2.841  10.052  16.580  0.00  0.00    +0.000 A 
ATOM     21  C   UNL     1      -1.641   9.941  17.293  0.00  0.00    +0.000 A 
ATOM     22  C   UNL     1      -1.391  10.675  18.475  0.00  0.00    +0.000 A 
ATOM     23  C   UNL     1      -2.500  11.354  19.006  0.00  0.00    +0.000 A 
BRANCH  18  25
ATOM     24  C   UNL     1      -4.785  12.698  20.055  0.00  0.00    +0.000 C 
ATOM     25  O   UNL     1      -4.780  12.240  18.706  0.00  0.00    +0.000 OA
ENDBRANCH  18  25
BRANCH  20  26
ATOM     26  O   UNL     1      -3.144   9.426  15.402  0.00  0.00    +0.000 OA
ATOM     27  C   UNL     1      -3.021  10.180  14.202  0.00  0.00    +0.000 C 
ENDBRANCH  20  26
ENDBRANCH   1  22
BRANCH   1  28
ATOM     28  C   UNL     1       0.307  12.018  19.733  0.00  0.00    +0.000 C 
BRANCH  28  29
ATOM     29  C   UNL     1       0.863  13.101  18.720  0.00  0.00    +0.000 C 
BRANCH  29  30
ATOM     30  C   UNL     1       2.422  13.289  18.812  0.00  0.00    +0.000 C 
ATOM     31  C   UNL     1       2.947  14.451  17.952  0.00  0.00    +0.000 C 
ATOM     32  C   UNL     1       2.902  13.543  20.254  0.00  0.00    +0.000 C 
ENDBRANCH  29  30
BRANCH  29  33
ATOM     33  N   UNL     1       0.122  14.386  18.718  0.00  0.00    +0.000 NA
ATOM     34  H   UNL     1      -0.695  14.293  18.110  0.00  0.00    +0.000 HD
BRANCH  33  35
ATOM     35  C   UNL     1      -0.237  15.019  19.992  0.00  0.00    +0.000 C 
ATOM     36  C   UNL     1       0.181  16.494  19.929  0.00  0.00    +0.000 C 
ATOM     37  C   UNL     1      -1.718  14.996  20.310  0.00  0.00    +0.000 C 
ENDBRANCH  33  35
ENDBRANCH  29  33
ENDBRANCH  28  29
ENDBRANCH   1  28
TORSDOF 10
ENDMDL
MODEL 4
REMARK VINA RESULT:      -7.6      1.062      1.165
REMARK  Name = 
REMARK  17 active torsions:
REMARK  status: ('A' for Active; 'I' for Inactive)
REMARK    1  A    between atoms: C_1  and  O_2
REMARK    2  A    between atoms: O_2  and  C_3
REMARK    3  A    between atoms: C_5  and  O_6
REMARK    4  A    between atoms: O_6  and  C_7
REMARK    5  A    between atoms: C_9  and  N_10
REMARK    6  A    between atoms: N_10  and  C_11
REMARK    7  A    between atoms: N_10  and  C_20
REMARK    8  A    between atoms: C_11  and  C_12
REMARK    9  A    between atoms: C_12  and  N_13
REMARK   10  A    between atoms: C_12  and  C_17
REMARK   11  A    between atoms: N_13  and  C_14
REMARK   12  A    between atoms: C_14  and  C_15
REMARK   13  A    between atoms: C_14  and  C_16
REMARK   14  A    between atoms: C_17  and  C_18
REMARK   15  A    between atoms: C_17  and  C_19
REMARK   16  A    between atoms: C_26  and  C_27
REMARK   17  A    between atoms: N_30  and  C_31
REMARK                            x       y       z     vdW  Elec       q    Type
REMARK                         _______ _______ _______ _____ _____    ______ ____
ROOT
ATOM      1  N   UNL     1      -0.145  10.825  19.218  0.00  0.00    +0.000 N 
ENDROOT
BRANCH   1   2
ATOM      2  C   UNL     1       0.690   9.698  19.515  0.00  0.00    +0.000 A 
ATOM      3  C   UNL     1       0.579   9.051  20.756  0.00  0.00    +0.000 A 
ATOM      4  C   UNL     1       1.196   7.818  20.985  0.00  0.00    +0.000 A 
ATOM      5  C   UNL     1       2.013   7.237  20.034  0.00  0.00    +0.000 A 
ATOM      6  N   UNL     1       2.471   5.999  20.264  0.00  0.00    +0.000 NA
ATOM      7  C   UNL     1       3.312   5.496  19.330  0.00  0.00    +0.000 A 
ATOM      8  C   UNL     1       3.749   6.205  18.229  0.00  0.00    +0.000 A 
ATOM      9  N   UNL     1       3.217   7.437  17.942  0.00  0.00    +0.000 NA
ATOM     10  C   UNL     1       2.318   7.938  18.846  0.00  0.00    +0.000 A 
ATOM     11  C   UNL     1       1.603   9.129  18.602  0.00  0.00    +0.000 A 
BRANCH   8  12
ATOM     12  C   UNL     1       4.814   5.664  17.407  0.00  0.00    +0.000 A 
ATOM     13  C   UNL     1       5.888   4.817  17.791  0.00  0.00    +0.000 A 
ATOM     14  N   UNL     1       6.685   4.485  16.778  0.00  0.00    +0.000 NA
ATOM     15  N   UNL     1       6.139   5.122  15.730  0.00  0.00    +0.000 N 
ATOM     16  C   UNL     1       6.711   4.937  14.417  0.00  0.00    +0.000 C 
ATOM     17  C   UNL     1       5.046   5.882  16.063  0.00  0.00    +0.000 A 
ENDBRANCH   8  12
ENDBRANCH   1   2
BRANCH   1  22
ATOM     18  C   UNL     1      -2.654  10.134  16.495  0.00  0.00    +0.000 A 
ATOM     19  C   UNL     1      -3.799  10.714  17.030  0.00  0.00    +0.000 A 
ATOM     20  C   UNL     1      -3.723  11.472  18.192  0.00  0.00    +0.000 A 
ATOM     21  C   UNL     1      -2.501  11.564  18.868  0.00  0.00    +0.000 A 
ATOM     22  C   UNL     1      -1.343  10.876  18.437  0.00  0.00    +0.000 A 
ATOM     23  C   UNL     1      -1.439  10.272  17.172  0.00  0.00    +0.000 A 
BRANCH  18  25
ATOM     24  C   UNL     1      -3.624  10.129  14.318  0.00  0.00    +0.000 C 
ATOM     25  O   UNL     1      -2.842   9.474  15.311  0.00  0.00    +0.000 OA
ENDBRANCH  18  25
BRANCH  20  26
ATOM     26  O   UNL     1      -4.903  12.054  18.568  0.00  0.00    +0.000 OA
ATOM     27  C   UNL     1      -5.003  12.545  19.899  0.00  0.00    +0.000 C 
ENDBRANCH  20  26
ENDBRANCH   1  22
BRANCH   1  28
ATOM     28  C   UNL     1       0.193  12.073  20.010  0.00  0.00    +0.000 C 
BRANCH  28  29
ATOM     29  C   UNL     1       0.460  13.371  19.143  0.00  0.00    +0.000 C 
BRANCH  29  30
ATOM     30  C   UNL     1       1.988  13.698  18.973  0.00  0.00    +0.000 C 
ATOM     31  C   UNL     1       2.767  13.674  20.299  0.00  0.00    +0.000 C 
ATOM     32  C   UNL     1       2.698  12.720  18.016  0.00  0.00    +0.000 C 
ENDBRANCH  29  30
BRANCH  29  33
ATOM     33  N   UNL     1      -0.346  14.554  19.533  0.00  0.00    +0.000 NA
ATOM     34  H   UNL     1      -0.991  14.777  18.772  0.00  0.00    +0.000 HD
BRANCH  33  35
ATOM     35  C   UNL     1      -1.034  14.567  20.830  0.00  0.00    +0.000 C 
ATOM     36  C   UNL     1      -0.221  15.439  21.795  0.00  0.00    +0.000 C 
ATOM     37  C   UNL     1      -2.435  15.143  20.792  0.00  0.00    +0.000 C 
ENDBRANCH  33  35
ENDBRANCH  29  33
ENDBRANCH  28  29
ENDBRANCH   1  28
TORSDOF 10
ENDMDL
MODEL 5
REMARK VINA RESULT:      -7.5      4.066     10.497
REMARK  Name = 
REMARK  17 active torsions:
REMARK  status: ('A' for Active; 'I' for Inactive)
REMARK    1  A    between atoms: C_1  and  O_2
REMARK    2  A    between atoms: O_2  and  C_3
REMARK    3  A    between atoms: C_5  and  O_6
REMARK    4  A    between atoms: O_6  and  C_7
REMARK    5  A    between atoms: C_9  and  N_10
REMARK    6  A    between atoms: N_10  and  C_11
REMARK    7  A    between atoms: N_10  and  C_20
REMARK    8  A    between atoms: C_11  and  C_12
REMARK    9  A    between atoms: C_12  and  N_13
REMARK   10  A    between atoms: C_12  and  C_17
REMARK   11  A    between atoms: N_13  and  C_14
REMARK   12  A    between atoms: C_14  and  C_15
REMARK   13  A    between atoms: C_14  and  C_16
REMARK   14  A    between atoms: C_17  and  C_18
REMARK   15  A    between atoms: C_17  and  C_19
REMARK   16  A    between atoms: C_26  and  C_27
REMARK   17  A    between atoms: N_30  and  C_31
REMARK                            x       y       z     vdW  Elec       q    Type
REMARK                         _______ _______ _______ _____ _____    ______ ____
ROOT
ATOM      1  N   UNL     1       3.190   6.427  19.081  0.00  0.00    +0.000 N 
ENDROOT
BRANCH   1   2
ATOM      2  C   UNL     1       2.479   7.668  18.992  0.00  0.00    +0.000 A 
ATOM      3  C   UNL     1       2.467   8.384  17.784  0.00  0.00    +0.000 A 
ATOM      4  C   UNL     1       1.596   9.461  17.592  0.00  0.00    +0.000 A 
ATOM      5  C   UNL     1       0.785   9.919  18.613  0.00  0.00    +0.000 A 
ATOM      6  N   UNL     1      -0.116  10.869  18.328  0.00  0.00    +0.000 NA
ATOM      7  C   UNL     1      -0.847  11.323  19.373  0.00  0.00    +0.000 A 
ATOM      8  C   UNL     1      -0.663  10.908  20.677  0.00  0.00    +0.000 A 
ATOM      9  N   UNL     1       0.193   9.876  20.961  0.00  0.00    +0.000 NA
ATOM     10  C   UNL     1       0.900   9.361  19.907  0.00  0.00    +0.000 A 
ATOM     11  C   UNL     1       1.711   8.215  20.041  0.00  0.00    +0.000 A 
BRANCH   8  12
ATOM     12  C   UNL     1      -1.341  11.608  21.751  0.00  0.00    +0.000 A 
ATOM     13  C   UNL     1      -1.610  11.159  23.072  0.00  0.00    +0.000 A 
ATOM     14  N   UNL     1      -2.238  12.064  23.819  0.00  0.00    +0.000 NA
ATOM     15  N   UNL     1      -2.389  13.104  22.985  0.00  0.00    +0.000 N 
ATOM     16  C   UNL     1      -2.987  14.323  23.480  0.00  0.00    +0.000 C 
ATOM     17  C   UNL     1      -1.915  12.864  21.720  0.00  0.00    +0.000 A 
ENDBRANCH   8  12
ENDBRANCH   1   2
BRANCH   1  22
ATOM     18  C   UNL     1       6.651   5.144  18.331  0.00  0.00    +0.000 A 
ATOM     19  C   UNL     1       6.545   4.860  16.974  0.00  0.00    +0.000 A 
ATOM     20  C   UNL     1       5.411   5.236  16.266  0.00  0.00    +0.000 A 
ATOM     21  C   UNL     1       4.339   5.818  16.953  0.00  0.00    +0.000 A 
ATOM     22  C   UNL     1       4.347   5.998  18.355  0.00  0.00    +0.000 A 
ATOM     23  C   UNL     1       5.579   5.759  18.985  0.00  0.00    +0.000 A 
BRANCH  18  25
ATOM     24  C   UNL     1       8.248   5.511  20.062  0.00  0.00    +0.000 C 
ATOM     25  O   UNL     1       7.844   4.791  18.903  0.00  0.00    +0.000 OA
ENDBRANCH  18  25
BRANCH  20  26
ATOM     26  O   UNL     1       5.465   4.971  14.924  0.00  0.00    +0.000 OA
ATOM     27  C   UNL     1       6.102   3.768  14.513  0.00  0.00    +0.000 C 
ENDBRANCH  20  26
ENDBRANCH   1  22
BRANCH   1  28
ATOM     28  C   UNL     1       2.765   5.550  20.244  0.00  0.00    +0.000 C 
BRANCH  28  29
ATOM     29  C   UNL     1       2.538   4.023  19.890  0.00  0.00    +0.000 C 
BRANCH  29  30
ATOM     30  C   UNL     1       1.124   3.492  20.325  0.00  0.00    +0.000 C 
ATOM     31  C   UNL     1       0.426   2.657  19.240  0.00  0.00    +0.000 C 
ATOM     32  C   UNL     1       1.187   2.620  21.595  0.00  0.00    +0.000 C 
ENDBRANCH  29  30
BRANCH  29  33
ATOM     33  N   UNL     1       3.646   3.123  20.293  0.00  0.00    +0.000 NA
ATOM     34  H   UNL     1       3.308   2.492  21.023  0.00  0.00    +0.000 HD
BRANCH  33  35
ATOM     35  C   UNL     1       4.396   2.389  19.267  0.00  0.00    +0.000 C 
ATOM     36  C   UNL     1       4.732   0.999  19.821  0.00  0.00    +0.000 C 
ATOM     37  C   UNL     1       3.642   2.175  17.970  0.00  0.00    +0.000 C 
ENDBRANCH  33  35
ENDBRANCH  29  33
ENDBRANCH  28  29
ENDBRANCH   1  28
TORSDOF 10
ENDMDL
MODEL 6
REMARK VINA RESULT:      -7.5      1.390      2.099
REMARK  Name = 
REMARK  17 active torsions:
REMARK  status: ('A' for Active; 'I' for Inactive)
REMARK    1  A    between atoms: C_1  and  O_2
REMARK    2  A    between atoms: O_2  and  C_3
REMARK    3  A    between atoms: C_5  and  O_6
REMARK    4  A    between atoms: O_6  and  C_7
REMARK    5  A    between atoms: C_9  and  N_10
REMARK    6  A    between atoms: N_10  and  C_11
REMARK    7  A    between atoms: N_10  and  C_20
REMARK    8  A    between atoms: C_11  and  C_12
REMARK    9  A    between atoms: C_12  and  N_13
REMARK   10  A    between atoms: C_12  and  C_17
REMARK   11  A    between atoms: N_13  and  C_14
REMARK   12  A    between atoms: C_14  and  C_15
REMARK   13  A    between atoms: C_14  and  C_16
REMARK   14  A    between atoms: C_17  and  C_18
REMARK   15  A    between atoms: C_17  and  C_19
REMARK   16  A    between atoms: C_26  and  C_27
REMARK   17  A    between atoms: N_30  and  C_31
REMARK                            x       y       z     vdW  Elec       q    Type
REMARK                         _______ _______ _______ _____ _____    ______ ____
ROOT
ATOM      1  N   UNL     1      -0.022  11.000  18.886  0.00  0.00    +0.000 N 
ENDROOT
BRANCH   1   2
ATOM      2  C   UNL     1       0.797   9.865  19.200  0.00  0.00    +0.000 A 
ATOM      3  C   UNL     1       0.807   9.348  20.505  0.00  0.00    +0.000 A 
ATOM      4  C   UNL     1       1.397   8.113  20.787  0.00  0.00    +0.000 A 
ATOM      5  C   UNL     1       2.073   7.401  19.813  0.00  0.00    +0.000 A 
ATOM      6  N   UNL     1       2.505   6.169  20.114  0.00  0.00    +0.000 NA
ATOM      7  C   UNL     1       3.209   5.536  19.147  0.00  0.00    +0.000 A 
ATOM      8  C   UNL     1       3.541   6.112  17.938  0.00  0.00    +0.000 A 
ATOM      9  N   UNL     1       3.029   7.336  17.589  0.00  0.00    +0.000 NA
ATOM     10  C   UNL     1       2.264   7.968  18.533  0.00  0.00    +0.000 A 
ATOM     11  C   UNL     1       1.572   9.165  18.252  0.00  0.00    +0.000 A 
BRANCH   8  12
ATOM     12  C   UNL     1       4.479   5.440  17.059  0.00  0.00    +0.000 A 
ATOM     13  C   UNL     1       4.681   4.045  16.876  0.00  0.00    +0.000 A 
ATOM     14  N   UNL     1       5.615   3.762  15.972  0.00  0.00    +0.000 NA
ATOM     15  N   UNL     1       6.035   4.972  15.569  0.00  0.00    +0.000 N 
ATOM     16  C   UNL     1       7.024   5.061  14.520  0.00  0.00    +0.000 C 
ATOM     17  C   UNL     1       5.423   6.009  16.226  0.00  0.00    +0.000 A 
ENDBRANCH   8  12
ENDBRANCH   1   2
BRANCH   1  22
ATOM     18  C   UNL     1      -2.963  10.215  16.667  0.00  0.00    +0.000 A 
ATOM     19  C   UNL     1      -3.995  10.843  17.356  0.00  0.00    +0.000 A 
ATOM     20  C   UNL     1      -3.716  11.658  18.446  0.00  0.00    +0.000 A 
ATOM     21  C   UNL     1      -2.396  11.763  18.899  0.00  0.00    +0.000 A 
ATOM     22  C   UNL     1      -1.334  11.032  18.317  0.00  0.00    +0.000 A 
ATOM     23  C   UNL     1      -1.649  10.367  17.120  0.00  0.00    +0.000 A 
BRANCH  18  25
ATOM     24  C   UNL     1      -3.200  10.121  14.297  0.00  0.00    +0.000 C 
ATOM     25  O   UNL     1      -3.355   9.499  15.568  0.00  0.00    +0.000 OA
ENDBRANCH  18  25
BRANCH  20  26
ATOM     26  O   UNL     1      -4.809  12.280  18.984  0.00  0.00    +0.000 OA
ATOM     27  C   UNL     1      -5.916  11.468  19.354  0.00  0.00    +0.000 C 
ENDBRANCH  20  26
ENDBRANCH   1  22
BRANCH   1  28
ATOM     28  C   UNL     1       0.510  12.316  19.421  0.00  0.00    +0.000 C 
BRANCH  28  29
ATOM     29  C   UNL     1       0.682  12.384  20.994  0.00  0.00    +0.000 C 
BRANCH  29  30
ATOM     30  C   UNL     1      -0.684  12.527  21.759  0.00  0.00    +0.000 C 
ATOM     31  C   UNL     1      -0.944  11.390  22.761  0.00  0.00    +0.000 C 
ATOM     32  C   UNL     1      -0.786  13.850  22.542  0.00  0.00    +0.000 C 
ENDBRANCH  29  30
BRANCH  29  33
ATOM     33  N   UNL     1       1.713  13.341  21.463  0.00  0.00    +0.000 NA
ATOM     34  H   UNL     1       2.506  12.813  21.836  0.00  0.00    +0.000 HD
BRANCH  33  35
ATOM     35  C   UNL     1       2.166  14.415  20.572  0.00  0.00    +0.000 C 
ATOM     36  C   UNL     1       1.900  15.757  21.266  0.00  0.00    +0.000 C 
ATOM     37  C   UNL     1       3.645  14.377  20.242  0.00  0.00    +0.000 C 
ENDBRANCH  33  35
ENDBRANCH  29  33
ENDBRANCH  28  29
ENDBRANCH   1  28
TORSDOF 10
ENDMDL
MODEL 7
REMARK VINA RESULT:      -7.4      0.821      1.791
REMARK  Name = 
REMARK  17 active torsions:
REMARK  status: ('A' for Active; 'I' for Inactive)
REMARK    1  A    between atoms: C_1  and  O_2
REMARK    2  A    between atoms: O_2  and  C_3
REMARK    3  A    between atoms: C_5  and  O_6
REMARK    4  A    between atoms: O_6  and  C_7
REMARK    5  A    between atoms: C_9  and  N_10
REMARK    6  A    between atoms: N_10  and  C_11
REMARK    7  A    between atoms: N_10  and  C_20
REMARK    8  A    between atoms: C_11  and  C_12
REMARK    9  A    between atoms: C_12  and  N_13
REMARK   10  A    between atoms: C_12  and  C_17
REMARK   11  A    between atoms: N_13  and  C_14
REMARK   12  A    between atoms: C_14  and  C_15
REMARK   13  A    between atoms: C_14  and  C_16
REMARK   14  A    between atoms: C_17  and  C_18
REMARK   15  A    between atoms: C_17  and  C_19
REMARK   16  A    between atoms: C_26  and  C_27
REMARK   17  A    between atoms: N_30  and  C_31
REMARK                            x       y       z     vdW  Elec       q    Type
REMARK                         _______ _______ _______ _____ _____    ______ ____
ROOT
ATOM      1  N   UNL     1      -0.702  10.942  19.585  0.00  0.00    +0.000 N 
ENDROOT
BRANCH   1   2
ATOM      2  C   UNL     1       0.239   9.880  19.790  0.00  0.00    +0.000 A 
ATOM      3  C   UNL     1       0.263   9.192  21.013  0.00  0.00    +0.000 A 
ATOM      4  C   UNL     1       0.992   8.008  21.161  0.00  0.00    +0.000 A 
ATOM      5  C   UNL     1       1.789   7.524  20.141  0.00  0.00    +0.000 A 
ATOM      6  N   UNL     1       2.359   6.322  20.298  0.00  0.00    +0.000 NA
ATOM      7  C   UNL     1       3.174   5.918  19.296  0.00  0.00    +0.000 A 
ATOM      8  C   UNL     1       3.479   6.692  18.195  0.00  0.00    +0.000 A 
ATOM      9  N   UNL     1       2.832   7.883  17.984  0.00  0.00    +0.000 NA
ATOM     10  C   UNL     1       1.957   8.282  18.959  0.00  0.00    +0.000 A 
ATOM     11  C   UNL     1       1.133   9.415  18.802  0.00  0.00    +0.000 A 
BRANCH   8  12
ATOM     12  C   UNL     1       4.528   6.264  17.289  0.00  0.00    +0.000 A 
ATOM     13  C   UNL     1       5.724   6.942  16.933  0.00  0.00    +0.000 A 
ATOM     14  N   UNL     1       6.486   6.257  16.084  0.00  0.00    +0.000 NA
ATOM     15  N   UNL     1       5.784   5.133  15.874  0.00  0.00    +0.000 N 
ATOM     16  C   UNL     1       6.344   4.098  15.036  0.00  0.00    +0.000 C 
ATOM     17  C   UNL     1       4.580   5.110  16.532  0.00  0.00    +0.000 A 
ENDBRANCH   8  12
ENDBRANCH   1   2
BRANCH   1  22
ATOM     18  C   UNL     1      -2.605  10.514  16.363  0.00  0.00    +0.000 A 
ATOM     19  C   UNL     1      -3.856  11.003  16.722  0.00  0.00    +0.000 A 
ATOM     20  C   UNL     1      -4.040  11.623  17.951  0.00  0.00    +0.000 A 
ATOM     21  C   UNL     1      -2.976  11.664  18.860  0.00  0.00    +0.000 A 
ATOM     22  C   UNL     1      -1.728  11.057  18.594  0.00  0.00    +0.000 A 
ATOM     23  C   UNL     1      -1.550  10.601  17.277  0.00  0.00    +0.000 A 
BRANCH  18  25
ATOM     24  C   UNL     1      -3.708  10.049  14.302  0.00  0.00    +0.000 C 
ATOM     25  O   UNL     1      -2.531   9.991  15.100  0.00  0.00    +0.000 OA
ENDBRANCH  18  25
BRANCH  20  26
ATOM     26  O   UNL     1      -5.295  12.132  18.149  0.00  0.00    +0.000 OA
ATOM     27  C   UNL     1      -6.389  11.225  18.111  0.00  0.00    +0.000 C 
ENDBRANCH  20  26
ENDBRANCH   1  22
BRANCH   1  28
ATOM     28  C   UNL     1      -0.727  11.973  20.698  0.00  0.00    +0.000 C 
BRANCH  28  29
ATOM     29  C   UNL     1      -0.016  13.347  20.361  0.00  0.00    +0.000 C 
BRANCH  29  30
ATOM     30  C   UNL     1      -0.959  14.592  20.542  0.00  0.00    +0.000 C 
ATOM     31  C   UNL     1      -0.828  15.261  21.919  0.00  0.00    +0.000 C 
ATOM     32  C   UNL     1      -0.706  15.683  19.484  0.00  0.00    +0.000 C 
ENDBRANCH  29  30
BRANCH  29  33
ATOM     33  N   UNL     1       0.726  13.362  19.076  0.00  0.00    +0.000 NA
ATOM     34  H   UNL     1       0.362  14.122  18.496  0.00  0.00    +0.000 HD
BRANCH  33  35
ATOM     35  C   UNL     1       2.193  13.361  19.085  0.00  0.00    +0.000 C 
ATOM     36  C   UNL     1       2.677  12.412  17.980  0.00  0.00    +0.000 C 
ATOM     37  C   UNL     1       2.826  14.710  18.814  0.00  0.00    +0.000 C 
ENDBRANCH  33  35
ENDBRANCH  29  33
ENDBRANCH  28  29
ENDBRANCH   1  28
TORSDOF 10
ENDMDL
MODEL 8
REMARK VINA RESULT:      -7.3      1.353      2.339
REMARK  Name = 
REMARK  17 active torsions:
REMARK  status: ('A' for Active; 'I' for Inactive)
REMARK    1  A    between atoms: C_1  and  O_2
REMARK    2  A    between atoms: O_2  and  C_3
REMARK    3  A    between atoms: C_5  and  O_6
REMARK    4  A    between atoms: O_6  and  C_7
REMARK    5  A    between atoms: C_9  and  N_10
REMARK    6  A    between atoms: N_10  and  C_11
REMARK    7  A    between atoms: N_10  and  C_20
REMARK    8  A    between atoms: C_11  and  C_12
REMARK    9  A    between atoms: C_12  and  N_13
REMARK   10  A    between atoms: C_12  and  C_17
REMARK   11  A    between atoms: N_13  and  C_14
REMARK   12  A    between atoms: C_14  and  C_15
REMARK   13  A    between atoms: C_14  and  C_16
REMARK   14  A    between atoms: C_17  and  C_18
REMARK   15  A    between atoms: C_17  and  C_19
REMARK   16  A    between atoms: C_26  and  C_27
REMARK   17  A    between atoms: N_30  and  C_31
REMARK                            x       y       z     vdW  Elec       q    Type
REMARK                         _______ _______ _______ _____ _____    ______ ____
ROOT
ATOM      1  N   UNL     1       0.028  10.828  18.841  0.00  0.00    +0.000 N 
ENDROOT
BRANCH   1   2
ATOM      2  C   UNL     1       0.855   9.704  19.171  0.00  0.00    +0.000 A 
ATOM      3  C   UNL     1       0.722   9.079  20.421  0.00  0.00    +0.000 A 
ATOM      4  C   UNL     1       1.332   7.849  20.681  0.00  0.00    +0.000 A 
ATOM      5  C   UNL     1       2.163   7.249  19.754  0.00  0.00    +0.000 A 
ATOM      6  N   UNL     1       2.614   6.014  20.011  0.00  0.00    +0.000 NA
ATOM      7  C   UNL     1       3.469   5.494  19.100  0.00  0.00    +0.000 A 
ATOM      8  C   UNL     1       3.925   6.183  17.995  0.00  0.00    +0.000 A 
ATOM      9  N   UNL     1       3.402   7.411  17.679  0.00  0.00    +0.000 NA
ATOM     10  C   UNL     1       2.490   7.930  18.558  0.00  0.00    +0.000 A 
ATOM     11  C   UNL     1       1.781   9.118  18.283  0.00  0.00    +0.000 A 
BRANCH   8  12
ATOM     12  C   UNL     1       5.002   5.625  17.199  0.00  0.00    +0.000 A 
ATOM     13  C   UNL     1       6.034   4.736  17.602  0.00  0.00    +0.000 A 
ATOM     14  N   UNL     1       6.857   4.400  16.612  0.00  0.00    +0.000 NA
ATOM     15  N   UNL     1       6.371   5.078  15.560  0.00  0.00    +0.000 N 
ATOM     16  C   UNL     1       6.985   4.904  14.264  0.00  0.00    +0.000 C 
ATOM     17  C   UNL     1       5.292   5.866  15.871  0.00  0.00    +0.000 A 
ENDBRANCH   8  12
ENDBRANCH   1   2
BRANCH   1  22
ATOM     18  C   UNL     1      -2.949  10.072  16.661  0.00  0.00    +0.000 A 
ATOM     19  C   UNL     1      -3.983  10.602  17.423  0.00  0.00    +0.000 A 
ATOM     20  C   UNL     1      -3.704  11.349  18.561  0.00  0.00    +0.000 A 
ATOM     21  C   UNL     1      -2.375  11.480  18.982  0.00  0.00    +0.000 A 
ATOM     22  C   UNL     1      -1.303  10.842  18.316  0.00  0.00    +0.000 A 
ATOM     23  C   UNL     1      -1.628  10.250  17.084  0.00  0.00    +0.000 A 
BRANCH  18  25
ATOM     24  C   UNL     1      -3.698  10.222  14.403  0.00  0.00    +0.000 C 
ATOM     25  O   UNL     1      -3.346   9.419  15.525  0.00  0.00    +0.000 OA
ENDBRANCH  18  25
BRANCH  20  26
ATOM     26  O   UNL     1      -4.804  11.881  19.176  0.00  0.00    +0.000 OA
ATOM     27  C   UNL     1      -4.723  13.226  19.628  0.00  0.00    +0.000 C 
ENDBRANCH  20  26
ENDBRANCH   1  22
BRANCH   1  28
ATOM     28  C   UNL     1       0.579  12.162  19.307  0.00  0.00    +0.000 C 
BRANCH  28  29
ATOM     29  C   UNL     1      -0.120  12.769  20.592  0.00  0.00    +0.000 C 
BRANCH  29  30
ATOM     30  C   UNL     1       0.019  14.332  20.691  0.00  0.00    +0.000 C 
ATOM     31  C   UNL     1       1.154  14.899  19.823  0.00  0.00    +0.000 C 
ATOM     32  C   UNL     1      -1.272  15.067  20.280  0.00  0.00    +0.000 C 
ENDBRANCH  29  30
BRANCH  29  33
ATOM     33  N   UNL     1       0.207  12.076  21.862  0.00  0.00    +0.000 NA
ATOM     34  H   UNL     1       0.979  12.569  22.316  0.00  0.00    +0.000 HD
BRANCH  33  35
ATOM     35  C   UNL     1      -0.863  11.773  22.820  0.00  0.00    +0.000 C 
ATOM     36  C   UNL     1      -2.208  12.089  22.153  0.00  0.00    +0.000 C 
ATOM     37  C   UNL     1      -0.921  10.325  23.261  0.00  0.00    +0.000 C 
ENDBRANCH  33  35
ENDBRANCH  29  33
ENDBRANCH  28  29
ENDBRANCH   1  28
TORSDOF 10
ENDMDL
MODEL 9
REMARK VINA RESULT:      -7.3      1.298      2.687
REMARK  Name = 
REMARK  17 active torsions:
REMARK  status: ('A' for Active; 'I' for Inactive)
REMARK    1  A    between atoms: C_1  and  O_2
REMARK    2  A    between atoms: O_2  and  C_3
REMARK    3  A    between atoms: C_5  and  O_6
REMARK    4  A    between atoms: O_6  and  C_7
REMARK    5  A    between atoms: C_9  and  N_10
REMARK    6  A    between atoms: N_10  and  C_11
REMARK    7  A    between atoms: N_10  and  C_20
REMARK    8  A    between atoms: C_11  and  C_12
REMARK    9  A    between atoms: C_12  and  N_13
REMARK   10  A    between atoms: C_12  and  C_17
REMARK   11  A    between atoms: N_13  and  C_14
REMARK   12  A    between atoms: C_14  and  C_15
REMARK   13  A    between atoms: C_14  and  C_16
REMARK   14  A    between atoms: C_17  and  C_18
REMARK   15  A    between atoms: C_17  and  C_19
REMARK   16  A    between atoms: C_26  and  C_27
REMARK   17  A    between atoms: N_30  and  C_31
REMARK                            x       y       z     vdW  Elec       q    Type
REMARK                         _______ _______ _______ _____ _____    ______ ____
ROOT
ATOM      1  N   UNL     1      -0.795  11.411  18.553  0.00  0.00    +0.000 N 
ENDROOT
BRANCH   1   2
ATOM      2  C   UNL     1       0.105  10.388  19.001  0.00  0.00    +0.000 A 
ATOM      3  C   UNL     1       0.005   9.891  20.310  0.00  0.00    +0.000 A 
ATOM      4  C   UNL     1       0.697   8.740  20.699  0.00  0.00    +0.000 A 
ATOM      5  C   UNL     1       1.575   8.106  19.841  0.00  0.00    +0.000 A 
ATOM      6  N   UNL     1       2.108   6.939  20.228  0.00  0.00    +0.000 NA
ATOM      7  C   UNL     1       3.004   6.386  19.377  0.00  0.00    +0.000 A 
ATOM      8  C   UNL     1       3.420   6.985  18.205  0.00  0.00    +0.000 A 
ATOM      9  N   UNL     1       2.816   8.133  17.761  0.00  0.00    +0.000 NA
ATOM     10  C   UNL     1       1.863   8.677  18.580  0.00  0.00    +0.000 A 
ATOM     11  C   UNL     1       1.076   9.777  18.180  0.00  0.00    +0.000 A 
BRANCH   8  12
ATOM     12  C   UNL     1       4.539   6.423  17.474  0.00  0.00    +0.000 A 
ATOM     13  C   UNL     1       4.956   6.693  16.143  0.00  0.00    +0.000 A 
ATOM     14  N   UNL     1       6.043   6.015  15.783  0.00  0.00    +0.000 NA
ATOM     15  N   UNL     1       6.335   5.292  16.875  0.00  0.00    +0.000 N 
ATOM     16  C   UNL     1       7.519   4.464  16.877  0.00  0.00    +0.000 C 
ATOM     17  C   UNL     1       5.436   5.461  17.898  0.00  0.00    +0.000 A 
ENDBRANCH   8  12
ENDBRANCH   1   2
BRANCH   1  22
ATOM     18  C   UNL     1      -4.518  11.828  18.161  0.00  0.00    +0.000 A 
ATOM     19  C   UNL     1      -4.718  11.290  16.895  0.00  0.00    +0.000 A 
ATOM     20  C   UNL     1      -3.679  10.642  16.237  0.00  0.00    +0.000 A 
ATOM     21  C   UNL     1      -2.408  10.623  16.822  0.00  0.00    +0.000 A 
ATOM     22  C   UNL     1      -2.125  11.278  18.043  0.00  0.00    +0.000 A 
ATOM     23  C   UNL     1      -3.246  11.762  18.738  0.00  0.00    +0.000 A 
BRANCH  18  25
ATOM     24  C   UNL     1      -6.862  11.677  18.567  0.00  0.00    +0.000 C 
ATOM     25  O   UNL     1      -5.633  12.375  18.737  0.00  0.00    +0.000 OA
ENDBRANCH  18  25
BRANCH  20  26
ATOM     26  O   UNL     1      -4.027  10.087  15.036  0.00  0.00    +0.000 OA
ATOM     27  C   UNL     1      -3.068  10.128  13.986  0.00  0.00    +0.000 C 
ENDBRANCH  20  26
ENDBRANCH   1  22
BRANCH   1  28
ATOM     28  C   UNL     1      -0.332  12.822  18.859  0.00  0.00    +0.000 C 
BRANCH  28  29
ATOM     29  C   UNL     1       0.332  13.021  20.283  0.00  0.00    +0.000 C 
BRANCH  29  30
ATOM     30  C   UNL     1      -0.683  13.527  21.372  0.00  0.00    +0.000 C 
ATOM     31  C   UNL     1      -1.158  12.419  22.326  0.00  0.00    +0.000 C 
ATOM     32  C   UNL     1      -0.098  14.654  22.246  0.00  0.00    +0.000 C 
ENDBRANCH  29  30
BRANCH  29  33
ATOM     33  N   UNL     1       1.603  13.785  20.274  0.00  0.00    +0.000 NA
ATOM     34  H   UNL     1       2.347  13.190  20.645  0.00  0.00    +0.000 HD
BRANCH  33  35
ATOM     35  C   UNL     1       2.032  14.464  19.045  0.00  0.00    +0.000 C 
ATOM     36  C   UNL     1       2.489  15.881  19.416  0.00  0.00    +0.000 C 
ATOM     37  C   UNL     1       3.194  13.800  18.333  0.00  0.00    +0.000 C 
ENDBRANCH  33  35
ENDBRANCH  29  33
ENDBRANCH  28  29
ENDBRANCH   1  28
TORSDOF 10
ENDMDL
