MODEL 1
REMARK VINA RESULT:      -7.1      0.000      0.000
REMARK  Name = 
REMARK  8 active torsions:
REMARK  status: ('A' for Active; 'I' for Inactive)
REMARK    1  A    between atoms: C_2  and  C_3
REMARK    2  A    between atoms: C_3  and  C_4
REMARK    3  A    between atoms: C_4  and  C_5
REMARK    4  A    between atoms: C_5  and  C_6
REMARK    5  A    between atoms: C_13  and  C_15
REMARK    6  A    between atoms: C_15  and  C_16
REMARK    7  A    between atoms: N_19  and  C_20
REMARK    8  A    between atoms: N_23  and  C_24
REMARK                            x       y       z     vdW  Elec       q    Type
REMARK                         _______ _______ _______ _____ _____    ______ ____
ROOT
ATOM      1  C   UNL     1       2.673   5.480  19.267  0.00  0.00    +0.000 C 
ATOM      2  C   UNL     1       4.176   5.297  18.863  0.00  0.00    +0.000 C 
ATOM      3  C   UNL     1       4.582   5.965  17.552  0.00  0.00    +0.000 C 
ATOM      4  C   UNL     1       4.157   7.422  17.506  0.00  0.00    +0.000 C 
ATOM      5  C   UNL     1       2.696   7.603  17.888  0.00  0.00    +0.000 C 
ATOM      6  N   UNL     1       2.374   6.979  19.183  0.00  0.00    +0.000 N 
ATOM      7  C   UNL     1       1.646   7.660  20.169  0.00  0.00    +0.000 C 
ATOM      8  O   UNL     1       1.156   7.123  21.162  0.00  0.00    +0.000 OA
ENDROOT
BRANCH   1   9
ATOM      9  C   UNL     1       2.523   4.860  20.713  0.00  0.00    +0.000 C 
BRANCH   9  11
ATOM     10  C   UNL     1       1.648   2.659  21.559  0.00  0.00    +0.000 C 
ATOM     11  C   UNL     1       1.436   3.826  20.933  0.00  0.00    +0.000 C 
ENDBRANCH   9  11
ENDBRANCH   1   9
BRANCH   1  12
ATOM     12  C   UNL     1       1.769   4.684  18.255  0.00  0.00    +0.000 C 
BRANCH  12  13
ATOM     13  C   UNL     1       2.456   3.594  17.472  0.00  0.00    +0.000 C 
ATOM     14  C   UNL     1       2.360   2.284  17.732  0.00  0.00    +0.000 C 
ENDBRANCH  12  13
ENDBRANCH   1  12
BRANCH   7  15
ATOM     15  C   UNL     1       1.400   9.152  19.987  0.00  0.00    +0.000 C 
BRANCH  15  16
ATOM     16  C   UNL     1      -0.004   9.541  20.437  0.00  0.00    +0.000 C 
ATOM     17  C   UNL     1       0.050  10.377  21.725  0.00  0.00    +0.000 C 
ATOM     18  O   UNL     1       0.616  10.062  22.758  0.00  0.00    +0.000 OA
ATOM     19  N   UNL     1      -0.631  11.548  21.519  0.00  0.00    +0.000 N 
ATOM     20  C   UNL     1      -0.830  12.570  22.511  0.00  0.00    +0.000 C 
ATOM     21  C   UNL     1      -1.034  11.655  20.220  0.00  0.00    +0.000 C 
ATOM     22  O   UNL     1      -1.629  12.602  19.727  0.00  0.00    +0.000 OA
ATOM     23  N   UNL     1      -0.641  10.508  19.549  0.00  0.00    +0.000 N 
ATOM     24  C   UNL     1      -0.987  10.218  18.178  0.00  0.00    +0.000 C 
ENDBRANCH  15  16
ENDBRANCH   7  15
TORSDOF 6
ENDMDL
MODEL 2
REMARK VINA RESULT:      -6.7      2.355      4.382
REMARK  Name = 
REMARK  8 active torsions:
REMARK  status: ('A' for Active; 'I' for Inactive)
REMARK    1  A    between atoms: C_2  and  C_3
REMARK    2  A    between atoms: C_3  and  C_4
REMARK    3  A    between atoms: C_4  and  C_5
REMARK    4  A    between atoms: C_5  and  C_6
REMARK    5  A    between atoms: C_13  and  C_15
REMARK    6  A    between atoms: C_15  and  C_16
REMARK    7  A    between atoms: N_19  and  C_20
REMARK    8  A    between atoms: N_23  and  C_24
REMARK                            x       y       z     vdW  Elec       q    Type
REMARK                         _______ _______ _______ _____ _____    ______ ____
ROOT
ATOM      1  C   UNL     1       4.554   4.572  17.627  0.00  0.00    +0.000 C 
ATOM      2  C   UNL     1       4.075   3.183  17.083  0.00  0.00    +0.000 C 
ATOM      3  C   UNL     1       3.128   2.417  18.004  0.00  0.00    +0.000 C 
ATOM      4  C   UNL     1       1.963   3.279  18.458  0.00  0.00    +0.000 C 
ATOM      5  C   UNL     1       2.424   4.625  18.996  0.00  0.00    +0.000 C 
ATOM      6  N   UNL     1       3.295   5.339  18.046  0.00  0.00    +0.000 N 
ATOM      7  C   UNL     1       3.097   6.692  17.736  0.00  0.00    +0.000 C 
ATOM      8  O   UNL     1       3.915   7.392  17.139  0.00  0.00    +0.000 OA
ENDROOT
BRANCH   1   9
ATOM      9  C   UNL     1       5.375   5.248  16.458  0.00  0.00    +0.000 C 
BRANCH   9  11
ATOM     10  C   UNL     1       6.271   4.281  14.316  0.00  0.00    +0.000 C 
ATOM     11  C   UNL     1       6.315   4.372  15.653  0.00  0.00    +0.000 C 
ENDBRANCH   9  11
ENDBRANCH   1   9
BRANCH   1  12
ATOM     12  C   UNL     1       5.493   4.343  18.868  0.00  0.00    +0.000 C 
BRANCH  12  13
ATOM     13  C   UNL     1       6.324   5.526  19.295  0.00  0.00    +0.000 C 
ATOM     14  C   UNL     1       7.661   5.587  19.236  0.00  0.00    +0.000 C 
ENDBRANCH  12  13
ENDBRANCH   1  12
BRANCH   7  15
ATOM     15  C   UNL     1       1.812   7.361  18.204  0.00  0.00    +0.000 C 
BRANCH  15  16
ATOM     16  C   UNL     1       2.107   8.565  19.093  0.00  0.00    +0.000 C 
ATOM     17  C   UNL     1       1.732   9.872  18.380  0.00  0.00    +0.000 C 
ATOM     18  O   UNL     1       2.115  10.218  17.275  0.00  0.00    +0.000 OA
ATOM     19  N   UNL     1       0.879  10.584  19.182  0.00  0.00    +0.000 N 
ATOM     20  C   UNL     1       0.342  11.880  18.867  0.00  0.00    +0.000 C 
ATOM     21  C   UNL     1       0.541   9.865  20.292  0.00  0.00    +0.000 C 
ATOM     22  O   UNL     1      -0.230  10.220  21.171  0.00  0.00    +0.000 OA
ATOM     23  N   UNL     1       1.215   8.656  20.245  0.00  0.00    +0.000 N 
ATOM     24  C   UNL     1       1.186   7.676  21.305  0.00  0.00    +0.000 C 
ENDBRANCH  15  16
ENDBRANCH   7  15
TORSDOF 6
ENDMDL
MODEL 3
REMARK VINA RESULT:      -6.6      2.746      7.509
REMARK  Name = 
REMARK  8 active torsions:
REMARK  status: ('A' for Active; 'I' for Inactive)
REMARK    1  A    between atoms: C_2  and  C_3
REMARK    2  A    between atoms: C_3  and  C_4
REMARK    3  A    between atoms: C_4  and  C_5
REMARK    4  A    between atoms: C_5  and  C_6
REMARK    5  A    between atoms: C_13  and  C_15
REMARK    6  A    between atoms: C_15  and  C_16
REMARK    7  A    between atoms: N_19  and  C_20
REMARK    8  A    between atoms: N_23  and  C_24
REMARK                            x       y       z     vdW  Elec       q    Type
REMARK                         _______ _______ _______ _____ _____    ______ ____
ROOT
ATOM      1  C   UNL     1       0.706  10.284  19.459  0.00  0.00    +0.000 C 
ATOM      2  C   UNL     1       0.902  11.067  20.801  0.00  0.00    +0.000 C 
ATOM      3  C   UNL     1       0.473  10.317  22.060  0.00  0.00    +0.000 C 
ATOM      4  C   UNL     1       1.081   8.927  22.122  0.00  0.00    +0.000 C 
ATOM      5  C   UNL     1       0.884   8.159  20.824  0.00  0.00    +0.000 C 
ATOM      6  N   UNL     1       1.360   8.912  19.650  0.00  0.00    +0.000 N 
ATOM      7  C   UNL     1       2.172   8.320  18.673  0.00  0.00    +0.000 C 
ATOM      8  O   UNL     1       2.408   8.820  17.573  0.00  0.00    +0.000 OA
ENDROOT
BRANCH   1   9
ATOM      9  C   UNL     1       1.361  11.171  18.327  0.00  0.00    +0.000 C 
BRANCH   9  11
ATOM     10  C   UNL     1       2.634  13.339  18.236  0.00  0.00    +0.000 C 
ATOM     11  C   UNL     1       1.543  12.652  18.601  0.00  0.00    +0.000 C 
ENDBRANCH   9  11
ENDBRANCH   1   9
BRANCH   1  12
ATOM     12  C   UNL     1      -0.834  10.122  19.178  0.00  0.00    +0.000 C 
BRANCH  12  13
ATOM     13  C   UNL     1      -1.237  10.064  17.726  0.00  0.00    +0.000 C 
ATOM     14  C   UNL     1      -2.309  10.672  17.202  0.00  0.00    +0.000 C 
ENDBRANCH  12  13
ENDBRANCH   1  12
BRANCH   7  15
ATOM     15  C   UNL     1       2.771   6.950  18.961  0.00  0.00    +0.000 C 
BRANCH  15  16
ATOM     16  C   UNL     1       3.091   6.203  17.671  0.00  0.00    +0.000 C 
ATOM     17  C   UNL     1       4.607   6.175  17.422  0.00  0.00    +0.000 C 
ATOM     18  O   UNL     1       5.344   7.147  17.394  0.00  0.00    +0.000 OA
ATOM     19  N   UNL     1       5.002   4.875  17.250  0.00  0.00    +0.000 N 
ATOM     20  C   UNL     1       6.346   4.454  16.958  0.00  0.00    +0.000 C 
ATOM     21  C   UNL     1       3.964   4.017  17.472  0.00  0.00    +0.000 C 
ATOM     22  O   UNL     1       4.018   2.797  17.430  0.00  0.00    +0.000 OA
ATOM     23  N   UNL     1       2.837   4.769  17.763  0.00  0.00    +0.000 N 
ATOM     24  C   UNL     1       1.521   4.207  17.950  0.00  0.00    +0.000 C 
ENDBRANCH  15  16
ENDBRANCH   7  15
TORSDOF 6
ENDMDL
MODEL 4
REMARK VINA RESULT:      -6.4      1.078      1.087
REMARK  Name = 
REMARK  8 active torsions:
REMARK  status: ('A' for Active; 'I' for Inactive)
REMARK    1  A    between atoms: C_2  and  C_3
REMARK    2  A    between atoms: C_3  and  C_4
REMARK    3  A    between atoms: C_4  and  C_5
REMARK    4  A    between atoms: C_5  and  C_6
REMARK    5  A    between atoms: C_13  and  C_15
REMARK    6  A    between atoms: C_15  and  C_16
REMARK    7  A    between atoms: N_19  and  C_20
REMARK    8  A    between atoms: N_23  and  C_24
REMARK                            x       y       z     vdW  Elec       q    Type
REMARK                         _______ _______ _______ _____ _____    ______ ____
ROOT
ATOM      1  C   UNL     1       2.442   5.433  19.309  0.00  0.00    +0.000 C 
ATOM      2  C   UNL     1       3.942   5.009  19.152  0.00  0.00    +0.000 C 
ATOM      3  C   UNL     1       4.609   5.453  17.851  0.00  0.00    +0.000 C 
ATOM      4  C   UNL     1       4.409   6.936  17.594  0.00  0.00    +0.000 C 
ATOM      5  C   UNL     1       2.953   7.350  17.736  0.00  0.00    +0.000 C 
ATOM      6  N   UNL     1       2.378   6.937  19.029  0.00  0.00    +0.000 N 
ATOM      7  C   UNL     1       1.633   7.822  19.822  0.00  0.00    +0.000 C 
ATOM      8  O   UNL     1       0.945   7.478  20.783  0.00  0.00    +0.000 OA
ENDROOT
BRANCH   1   9
ATOM      9  C   UNL     1       2.016   5.020  20.775  0.00  0.00    +0.000 C 
BRANCH   9  11
ATOM     10  C   UNL     1       1.977   2.751  21.859  0.00  0.00    +0.000 C 
ATOM     11  C   UNL     1       2.670   3.796  21.386  0.00  0.00    +0.000 C 
ENDBRANCH   9  11
ENDBRANCH   1   9
BRANCH   1  12
ATOM     12  C   UNL     1       1.572   4.643  18.264  0.00  0.00    +0.000 C 
BRANCH  12  13
ATOM     13  C   UNL     1       1.787   3.151  18.219  0.00  0.00    +0.000 C 
ATOM     14  C   UNL     1       0.898   2.234  18.622  0.00  0.00    +0.000 C 
ENDBRANCH  12  13
ENDBRANCH   1  12
BRANCH   7  15
ATOM     15  C   UNL     1       1.632   9.299  19.452  0.00  0.00    +0.000 C 
BRANCH  15  16
ATOM     16  C   UNL     1       0.305   9.959  19.811  0.00  0.00    +0.000 C 
ATOM     17  C   UNL     1       0.535  11.211  20.672  0.00  0.00    +0.000 C 
ATOM     18  O   UNL     1       1.179  11.257  21.706  0.00  0.00    +0.000 OA
ATOM     19  N   UNL     1      -0.090  12.275  20.078  0.00  0.00    +0.000 N 
ATOM     20  C   UNL     1      -0.128  13.610  20.612  0.00  0.00    +0.000 C 
ATOM     21  C   UNL     1      -0.610  11.921  18.867  0.00  0.00    +0.000 C 
ATOM     22  O   UNL     1      -1.191  12.664  18.090  0.00  0.00    +0.000 OA
ATOM     23  N   UNL     1      -0.356  10.575  18.664  0.00  0.00    +0.000 N 
ATOM     24  C   UNL     1      -0.850   9.822  17.537  0.00  0.00    +0.000 C 
ENDBRANCH  15  16
ENDBRANCH   7  15
TORSDOF 6
ENDMDL
MODEL 5
REMARK VINA RESULT:      -6.1      2.463      3.563
REMARK  Name = 
REMARK  8 active torsions:
REMARK  status: ('A' for Active; 'I' for Inactive)
REMARK    1  A    between atoms: C_2  and  C_3
REMARK    2  A    between atoms: C_3  and  C_4
REMARK    3  A    between atoms: C_4  and  C_5
REMARK    4  A    between atoms: C_5  and  C_6
REMARK    5  A    between atoms: C_13  and  C_15
REMARK    6  A    between atoms: C_15  and  C_16
REMARK    7  A    between atoms: N_19  and  C_20
REMARK    8  A    between atoms: N_23  and  C_24
REMARK                            x       y       z     vdW  Elec       q    Type
REMARK                         _______ _______ _______ _____ _____    ______ ____
ROOT
ATOM      1  C   UNL     1       4.978   4.712  16.706  0.00  0.00    +0.000 C 
ATOM      2  C   UNL     1       6.264   4.089  17.350  0.00  0.00    +0.000 C 
ATOM      3  C   UNL     1       7.468   5.025  17.432  0.00  0.00    +0.000 C 
ATOM      4  C   UNL     1       7.105   6.356  18.066  0.00  0.00    +0.000 C 
ATOM      5  C   UNL     1       5.863   6.969  17.438  0.00  0.00    +0.000 C 
ATOM      6  N   UNL     1       4.721   6.037  17.430  0.00  0.00    +0.000 N 
ATOM      7  C   UNL     1       3.444   6.431  17.851  0.00  0.00    +0.000 C 
ATOM      8  O   UNL     1       2.418   5.779  17.655  0.00  0.00    +0.000 OA
ENDROOT
BRANCH   1   9
ATOM      9  C   UNL     1       3.832   3.637  16.877  0.00  0.00    +0.000 C 
BRANCH   9  11
ATOM     10  C   UNL     1       3.251   2.695  19.135  0.00  0.00    +0.000 C 
ATOM     11  C   UNL     1       3.965   2.630  18.002  0.00  0.00    +0.000 C 
ENDBRANCH   9  11
ENDBRANCH   1   9
BRANCH   1  12
ATOM     12  C   UNL     1       5.241   4.965  15.176  0.00  0.00    +0.000 C 
BRANCH  12  13
ATOM     13  C   UNL     1       6.063   3.919  14.465  0.00  0.00    +0.000 C 
ATOM     14  C   UNL     1       5.991   3.646  13.156  0.00  0.00    +0.000 C 
ENDBRANCH  12  13
ENDBRANCH   1  12
BRANCH   7  15
ATOM     15  C   UNL     1       3.296   7.772  18.558  0.00  0.00    +0.000 C 
BRANCH  15  16
ATOM     16  C   UNL     1       1.838   8.063  18.896  0.00  0.00    +0.000 C 
ATOM     17  C   UNL     1       1.546   7.739  20.369  0.00  0.00    +0.000 C 
ATOM     18  O   UNL     1       1.775   6.679  20.926  0.00  0.00    +0.000 OA
ATOM     19  N   UNL     1       1.000   8.846  20.964  0.00  0.00    +0.000 N 
ATOM     20  C   UNL     1       0.561   8.914  22.331  0.00  0.00    +0.000 C 
ATOM     21  C   UNL     1       0.998   9.908  20.107  0.00  0.00    +0.000 C 
ATOM     22  O   UNL     1       0.609  11.038  20.363  0.00  0.00    +0.000 OA
ATOM     23  N   UNL     1       1.525   9.488  18.896  0.00  0.00    +0.000 N 
ATOM     24  C   UNL     1       1.583  10.313  17.713  0.00  0.00    +0.000 C 
ENDBRANCH  15  16
ENDBRANCH   7  15
TORSDOF 6
ENDMDL
MODEL 6
REMARK VINA RESULT:      -6.1      2.460      4.480
REMARK  Name = 
REMARK  8 active torsions:
REMARK  status: ('A' for Active; 'I' for Inactive)
REMARK    1  A    between atoms: C_2  and  C_3
REMARK    2  A    between atoms: C_3  and  C_4
REMARK    3  A    between atoms: C_4  and  C_5
REMARK    4  A    between atoms: C_5  and  C_6
REMARK    5  A    between atoms: C_13  and  C_15
REMARK    6  A    between atoms: C_15  and  C_16
REMARK    7  A    between atoms: N_19  and  C_20
REMARK    8  A    between atoms: N_23  and  C_24
REMARK                            x       y       z     vdW  Elec       q    Type
REMARK                         _______ _______ _______ _____ _____    ______ ____
ROOT
ATOM      1  C   UNL     1       5.188   5.442  17.786  0.00  0.00    +0.000 C 
ATOM      2  C   UNL     1       5.072   3.880  17.848  0.00  0.00    +0.000 C 
ATOM      3  C   UNL     1       4.605   3.316  19.188  0.00  0.00    +0.000 C 
ATOM      4  C   UNL     1       3.339   3.998  19.675  0.00  0.00    +0.000 C 
ATOM      5  C   UNL     1       3.450   5.514  19.626  0.00  0.00    +0.000 C 
ATOM      6  N   UNL     1       3.857   6.002  18.296  0.00  0.00    +0.000 N 
ATOM      7  C   UNL     1       3.192   7.062  17.664  0.00  0.00    +0.000 C 
ATOM      8  O   UNL     1       3.620   7.656  16.675  0.00  0.00    +0.000 OA
ENDROOT
BRANCH   1   9
ATOM      9  C   UNL     1       5.518   5.803  16.283  0.00  0.00    +0.000 C 
BRANCH   9  11
ATOM     10  C   UNL     1       5.606   4.354  14.228  0.00  0.00    +0.000 C 
ATOM     11  C   UNL     1       6.124   4.721  15.409  0.00  0.00    +0.000 C 
ENDBRANCH   9  11
ENDBRANCH   1   9
BRANCH   1  12
ATOM     12  C   UNL     1       6.370   5.907  18.713  0.00  0.00    +0.000 C 
BRANCH  12  13
ATOM     13  C   UNL     1       7.575   6.480  18.009  0.00  0.00    +0.000 C 
ATOM     14  C   UNL     1       7.898   7.779  17.975  0.00  0.00    +0.000 C 
ENDBRANCH  12  13
ENDBRANCH   1  12
BRANCH   7  15
ATOM     15  C   UNL     1       1.876   7.548  18.257  0.00  0.00    +0.000 C 
BRANCH  15  16
ATOM     16  C   UNL     1       2.084   8.777  19.134  0.00  0.00    +0.000 C 
ATOM     17  C   UNL     1       1.680  10.055  18.384  0.00  0.00    +0.000 C 
ATOM     18  O   UNL     1       2.089  10.400  17.289  0.00  0.00    +0.000 OA
ATOM     19  N   UNL     1       0.768  10.742  19.142  0.00  0.00    +0.000 N 
ATOM     20  C   UNL     1       0.187  12.008  18.785  0.00  0.00    +0.000 C 
ATOM     21  C   UNL     1       0.420  10.027  20.251  0.00  0.00    +0.000 C 
ATOM     22  O   UNL     1      -0.398  10.362  21.095  0.00  0.00    +0.000 OA
ATOM     23  N   UNL     1       1.147   8.847  20.251  0.00  0.00    +0.000 N 
ATOM     24  C   UNL     1       1.121   7.885  21.326  0.00  0.00    +0.000 C 
ENDBRANCH  15  16
ENDBRANCH   7  15
TORSDOF 6
ENDMDL
MODEL 7
REMARK VINA RESULT:      -6.0      4.354      6.731
REMARK  Name = 
REMARK  8 active torsions:
REMARK  status: ('A' for Active; 'I' for Inactive)
REMARK    1  A    between atoms: C_2  and  C_3
REMARK    2  A    between atoms: C_3  and  C_4
REMARK    3  A    between atoms: C_4  and  C_5
REMARK    4  A    between atoms: C_5  and  C_6
REMARK    5  A    between atoms: C_13  and  C_15
REMARK    6  A    between atoms: C_15  and  C_16
REMARK    7  A    between atoms: N_19  and  C_20
REMARK    8  A    between atoms: N_23  and  C_24
REMARK                            x       y       z     vdW  Elec       q    Type
REMARK                         _______ _______ _______ _____ _____    ______ ____
ROOT
ATOM      1  C   UNL     1       5.773   6.268  17.217  0.00  0.00    +0.000 C 
ATOM      2  C   UNL     1       5.376   6.339  15.703  0.00  0.00    +0.000 C 
ATOM      3  C   UNL     1       6.094   5.342  14.796  0.00  0.00    +0.000 C 
ATOM      4  C   UNL     1       6.011   3.926  15.338  0.00  0.00    +0.000 C 
ATOM      5  C   UNL     1       6.405   3.851  16.805  0.00  0.00    +0.000 C 
ATOM      6  N   UNL     1       5.645   4.801  17.638  0.00  0.00    +0.000 N 
ATOM      7  C   UNL     1       5.047   4.410  18.844  0.00  0.00    +0.000 C 
ATOM      8  O   UNL     1       4.604   5.194  19.683  0.00  0.00    +0.000 OA
ENDROOT
BRANCH   1   9
ATOM      9  C   UNL     1       4.800   7.255  17.978  0.00  0.00    +0.000 C 
BRANCH   9  11
ATOM     10  C   UNL     1       2.363   7.851  18.160  0.00  0.00    +0.000 C 
ATOM     11  C   UNL     1       3.404   7.448  17.418  0.00  0.00    +0.000 C 
ENDBRANCH   9  11
ENDBRANCH   1   9
BRANCH   1  12
ATOM     12  C   UNL     1       7.258   6.759  17.383  0.00  0.00    +0.000 C 
BRANCH  12  13
ATOM     13  C   UNL     1       7.461   8.253  17.408  0.00  0.00    +0.000 C 
ATOM     14  C   UNL     1       8.355   8.894  18.170  0.00  0.00    +0.000 C 
ENDBRANCH  12  13
ENDBRANCH   1  12
BRANCH   7  15
ATOM     15  C   UNL     1       4.977   2.924  19.169  0.00  0.00    +0.000 C 
BRANCH  15  16
ATOM     16  C   UNL     1       3.541   2.413  19.117  0.00  0.00    +0.000 C 
ATOM     17  C   UNL     1       2.705   3.025  20.251  0.00  0.00    +0.000 C 
ATOM     18  O   UNL     1       2.985   3.001  21.437  0.00  0.00    +0.000 OA
ATOM     19  N   UNL     1       1.595   3.618  19.711  0.00  0.00    +0.000 N 
ATOM     20  C   UNL     1       0.555   4.264  20.466  0.00  0.00    +0.000 C 
ATOM     21  C   UNL     1       1.641   3.585  18.347  0.00  0.00    +0.000 C 
ATOM     22  O   UNL     1       0.813   4.067  17.588  0.00  0.00    +0.000 OA
ATOM     23  N   UNL     1       2.795   2.920  17.969  0.00  0.00    +0.000 N 
ATOM     24  C   UNL     1       3.130   2.600  16.602  0.00  0.00    +0.000 C 
ENDBRANCH  15  16
ENDBRANCH   7  15
TORSDOF 6
ENDMDL
MODEL 8
REMARK VINA RESULT:      -6.0      2.319      7.307
REMARK  Name = 
REMARK  8 active torsions:
REMARK  status: ('A' for Active; 'I' for Inactive)
REMARK    1  A    between atoms: C_2  and  C_3
REMARK    2  A    between atoms: C_3  and  C_4
REMARK    3  A    between atoms: C_4  and  C_5
REMARK    4  A    between atoms: C_5  and  C_6
REMARK    5  A    between atoms: C_13  and  C_15
REMARK    6  A    between atoms: C_15  and  C_16
REMARK    7  A    between atoms: N_19  and  C_20
REMARK    8  A    between atoms: N_23  and  C_24
REMARK                            x       y       z     vdW  Elec       q    Type
REMARK                         _______ _______ _______ _____ _____    ______ ____
ROOT
ATOM      1  C   UNL     1       0.586  10.024  20.282  0.00  0.00    +0.000 C 
ATOM      2  C   UNL     1      -0.943  10.280  20.052  0.00  0.00    +0.000 C 
ATOM      3  C   UNL     1      -1.317  10.775  18.657  0.00  0.00    +0.000 C 
ATOM      4  C   UNL     1      -0.720   9.899  17.570  0.00  0.00    +0.000 C 
ATOM      5  C   UNL     1       0.767   9.656  17.783  0.00  0.00    +0.000 C 
ATOM      6  N   UNL     1       1.061   9.134  19.130  0.00  0.00    +0.000 N 
ATOM      7  C   UNL     1       1.905   8.032  19.326  0.00  0.00    +0.000 C 
ATOM      8  O   UNL     1       2.364   7.698  20.418  0.00  0.00    +0.000 OA
ENDROOT
BRANCH   1   9
ATOM      9  C   UNL     1       0.716   9.369  21.714  0.00  0.00    +0.000 C 
BRANCH   9  11
ATOM     10  C   UNL     1      -0.956  10.359  23.312  0.00  0.00    +0.000 C 
ATOM     11  C   UNL     1      -0.523   9.317  22.587  0.00  0.00    +0.000 C 
ENDBRANCH   9  11
ENDBRANCH   1   9
BRANCH   1  12
ATOM     12  C   UNL     1       1.346  11.401  20.260  0.00  0.00    +0.000 C 
BRANCH  12  13
ATOM     13  C   UNL     1       0.623  12.565  20.889  0.00  0.00    +0.000 C 
ATOM     14  C   UNL     1       1.191  13.729  21.230  0.00  0.00    +0.000 C 
ENDBRANCH  12  13
ENDBRANCH   1  12
BRANCH   7  15
ATOM     15  C   UNL     1       2.323   7.214  18.111  0.00  0.00    +0.000 C 
BRANCH  15  16
ATOM     16  C   UNL     1       3.276   6.090  18.501  0.00  0.00    +0.000 C 
ATOM     17  C   UNL     1       2.530   4.749  18.581  0.00  0.00    +0.000 C 
ATOM     18  O   UNL     1       1.527   4.529  19.238  0.00  0.00    +0.000 OA
ATOM     19  N   UNL     1       3.169   3.840  17.780  0.00  0.00    +0.000 N 
ATOM     20  C   UNL     1       2.785   2.463  17.628  0.00  0.00    +0.000 C 
ATOM     21  C   UNL     1       4.179   4.434  17.080  0.00  0.00    +0.000 C 
ATOM     22  O   UNL     1       4.902   3.888  16.260  0.00  0.00    +0.000 OA
ATOM     23  N   UNL     1       4.238   5.767  17.452  0.00  0.00    +0.000 N 
ATOM     24  C   UNL     1       5.253   6.687  16.996  0.00  0.00    +0.000 C 
ENDBRANCH  15  16
ENDBRANCH   7  15
TORSDOF 6
ENDMDL
MODEL 9
REMARK VINA RESULT:      -5.9      2.378      7.225
REMARK  Name = 
REMARK  8 active torsions:
REMARK  status: ('A' for Active; 'I' for Inactive)
REMARK    1  A    between atoms: C_2  and  C_3
REMARK    2  A    between atoms: C_3  and  C_4
REMARK    3  A    between atoms: C_4  and  C_5
REMARK    4  A    between atoms: C_5  and  C_6
REMARK    5  A    between atoms: C_13  and  C_15
REMARK    6  A    between atoms: C_15  and  C_16
REMARK    7  A    between atoms: N_19  and  C_20
REMARK    8  A    between atoms: N_23  and  C_24
REMARK                            x       y       z     vdW  Elec       q    Type
REMARK                         _______ _______ _______ _____ _____    ______ ____
ROOT
ATOM      1  C   UNL     1       0.733  10.968  19.534  0.00  0.00    +0.000 C 
ATOM      2  C   UNL     1       1.005  11.299  21.041  0.00  0.00    +0.000 C 
ATOM      3  C   UNL     1       0.228  10.449  22.043  0.00  0.00    +0.000 C 
ATOM      4  C   UNL     1       0.371   8.965  21.754  0.00  0.00    +0.000 C 
ATOM      5  C   UNL     1       0.098   8.638  20.294  0.00  0.00    +0.000 C 
ATOM      6  N   UNL     1       0.911   9.456  19.376  0.00  0.00    +0.000 N 
ATOM      7  C   UNL     1       1.609   8.885  18.302  0.00  0.00    +0.000 C 
ATOM      8  O   UNL     1       2.109   9.531  17.381  0.00  0.00    +0.000 OA
ENDROOT
BRANCH   1   9
ATOM      9  C   UNL     1       1.752  11.840  18.697  0.00  0.00    +0.000 C 
BRANCH   9  11
ATOM     10  C   UNL     1       1.922  14.349  18.702  0.00  0.00    +0.000 C 
ATOM     11  C   UNL     1       2.194  13.169  19.278  0.00  0.00    +0.000 C 
ENDBRANCH   9  11
ENDBRANCH   1   9
BRANCH   1  12
ATOM     12  C   UNL     1      -0.740  11.388  19.174  0.00  0.00    +0.000 C 
BRANCH  12  13
ATOM     13  C   UNL     1      -1.270  10.875  17.858  0.00  0.00    +0.000 C 
ATOM     14  C   UNL     1      -2.306  10.039  17.721  0.00  0.00    +0.000 C 
ENDBRANCH  12  13
ENDBRANCH   1  12
BRANCH   7  15
ATOM     15  C   UNL     1       1.723   7.369  18.236  0.00  0.00    +0.000 C 
BRANCH  15  16
ATOM     16  C   UNL     1       2.940   6.871  19.008  0.00  0.00    +0.000 C 
ATOM     17  C   UNL     1       2.573   5.661  19.881  0.00  0.00    +0.000 C 
ATOM     18  O   UNL     1       1.666   5.617  20.695  0.00  0.00    +0.000 OA
ATOM     19  N   UNL     1       3.422   4.628  19.584  0.00  0.00    +0.000 N 
ATOM     20  C   UNL     1       3.411   3.341  20.226  0.00  0.00    +0.000 C 
ATOM     21  C   UNL     1       4.237   4.953  18.538  0.00  0.00    +0.000 C 
ATOM     22  O   UNL     1       5.072   4.224  18.024  0.00  0.00    +0.000 OA
ATOM     23  N   UNL     1       3.947   6.251  18.151  0.00  0.00    +0.000 N 
ATOM     24  C   UNL     1       4.682   6.975  17.142  0.00  0.00    +0.000 C 
ENDBRANCH  15  16
ENDBRANCH   7  15
TORSDOF 6
ENDMDL
