MODEL 1
REMARK VINA RESULT:      -6.6      0.000      0.000
REMARK  Name = 
REMARK  7 active torsions:
REMARK  status: ('A' for Active; 'I' for Inactive)
REMARK    1  A    between atoms: N_2  and  N_3
REMARK    2  A    between atoms: N_3  and  C_4
REMARK    3  A    between atoms: C_4  and  C_5
REMARK    4  A    between atoms: C_7  and  O_9
REMARK    5  A    between atoms: O_9  and  C_10
REMARK    6  A    between atoms: C_10  and  C_11
REMARK    7  A    between atoms: C_14  and  N_15
REMARK                            x       y       z     vdW  Elec       q    Type
REMARK                         _______ _______ _______ _____ _____    ______ ____
ROOT
ATOM      1  C   UNL     1       4.130   7.066  17.675  0.00  0.00    +0.000 C 
ENDROOT
BRANCH   1   2
ATOM      2  C   UNL     1       3.263   5.997  18.292  0.00  0.00    +0.000 A 
ATOM      3  C   UNL     1       2.889   4.863  17.553  0.00  0.00    +0.000 A 
ATOM      4  C   UNL     1       2.110   3.863  18.138  0.00  0.00    +0.000 A 
ATOM      5  C   UNL     1       1.688   4.006  19.465  0.00  0.00    +0.000 A 
ATOM      6  C   UNL     1       2.025   5.148  20.202  0.00  0.00    +0.000 A 
ATOM      7  C   UNL     1       2.807   6.140  19.610  0.00  0.00    +0.000 A 
BRANCH   5   8
ATOM      8  N   UNL     1       0.898   2.942  20.095  0.00  0.00    +0.000 N 
ATOM      9  O   UNL     1       0.178   2.248  19.365  0.00  0.00    +0.000 OA
ATOM     10  O   UNL     1       1.005   2.792  21.324  0.00  0.00    +0.000 OA
ENDBRANCH   5   8
ENDBRANCH   1   2
BRANCH   1  11
ATOM     11  O   UNL     1       5.407   6.503  17.368  0.00  0.00    +0.000 OA
BRANCH  11  13
ATOM     12  N   UNL     1       6.428   5.120  15.829  0.00  0.00    +0.000 N 
ATOM     13  C   UNL     1       5.669   6.268  16.050  0.00  0.00    +0.000 C 
ATOM     14  O   UNL     1       5.295   7.015  15.149  0.00  0.00    +0.000 OA
BRANCH  12  16
ATOM     15  O   UNL     1       8.104   4.414  17.083  0.00  0.00    +0.000 OA
ATOM     16  N   UNL     1       6.878   4.391  16.937  0.00  0.00    +0.000 NA
ENDBRANCH  12  16
BRANCH  12  17
ATOM     17  C   UNL     1       6.830   4.759  14.472  0.00  0.00    +0.000 C 
BRANCH  17  18
ATOM     18  C   UNL     1       5.945   3.711  13.802  0.00  0.00    +0.000 C 
ATOM     19 CL   UNL     1       6.343   3.504  12.077  0.00  0.00    +0.000 Cl
ENDBRANCH  17  18
ENDBRANCH  12  17
ENDBRANCH  11  13
ENDBRANCH   1  11
TORSDOF 7
ENDMDL
MODEL 2
REMARK VINA RESULT:      -6.5      2.943      3.542
REMARK  Name = 
REMARK  7 active torsions:
REMARK  status: ('A' for Active; 'I' for Inactive)
REMARK    1  A    between atoms: N_2  and  N_3
REMARK    2  A    between atoms: N_3  and  C_4
REMARK    3  A    between atoms: C_4  and  C_5
REMARK    4  A    between atoms: C_7  and  O_9
REMARK    5  A    between atoms: O_9  and  C_10
REMARK    6  A    between atoms: C_10  and  C_11
REMARK    7  A    between atoms: C_14  and  N_15
REMARK                            x       y       z     vdW  Elec       q    Type
REMARK                         _______ _______ _______ _____ _____    ______ ____
ROOT
ATOM      1  C   UNL     1       5.155   4.780  16.334  0.00  0.00    +0.000 C 
ENDROOT
BRANCH   1   2
ATOM      2  C   UNL     1       4.043   4.233  17.194  0.00  0.00    +0.000 A 
ATOM      3  C   UNL     1       3.949   2.856  17.453  0.00  0.00    +0.000 A 
ATOM      4  C   UNL     1       2.934   2.358  18.273  0.00  0.00    +0.000 A 
ATOM      5  C   UNL     1       1.998   3.241  18.824  0.00  0.00    +0.000 A 
ATOM      6  C   UNL     1       2.060   4.612  18.546  0.00  0.00    +0.000 A 
ATOM      7  C   UNL     1       3.080   5.100  17.728  0.00  0.00    +0.000 A 
BRANCH   5   8
ATOM      8  N   UNL     1       0.951   2.727  19.715  0.00  0.00    +0.000 N 
ATOM      9  O   UNL     1       1.128   2.834  20.935  0.00  0.00    +0.000 OA
ATOM     10  O   UNL     1      -0.058   2.223  19.192  0.00  0.00    +0.000 OA
ENDBRANCH   5   8
ENDBRANCH   1   2
BRANCH   1  11
ATOM     11  O   UNL     1       6.393   4.629  17.031  0.00  0.00    +0.000 OA
BRANCH  11  13
ATOM     12  N   UNL     1       7.471   6.170  18.368  0.00  0.00    +0.000 N 
ATOM     13  C   UNL     1       7.205   5.725  17.074  0.00  0.00    +0.000 C 
ATOM     14  O   UNL     1       7.634   6.281  16.066  0.00  0.00    +0.000 OA
BRANCH  12  16
ATOM     15  O   UNL     1       7.627   5.237  20.364  0.00  0.00    +0.000 OA
ATOM     16  N   UNL     1       6.855   5.515  19.442  0.00  0.00    +0.000 NA
ENDBRANCH  12  16
BRANCH  12  17
ATOM     17  C   UNL     1       8.288   7.363  18.578  0.00  0.00    +0.000 C 
BRANCH  17  18
ATOM     18  C   UNL     1       7.825   8.596  17.804  0.00  0.00    +0.000 C 
ATOM     19 CL   UNL     1       8.782  10.042  18.216  0.00  0.00    +0.000 Cl
ENDBRANCH  17  18
ENDBRANCH  12  17
ENDBRANCH  11  13
ENDBRANCH   1  11
TORSDOF 7
ENDMDL
MODEL 3
REMARK VINA RESULT:      -6.4      2.346      5.774
REMARK  Name = 
REMARK  7 active torsions:
REMARK  status: ('A' for Active; 'I' for Inactive)
REMARK    1  A    between atoms: N_2  and  N_3
REMARK    2  A    between atoms: N_3  and  C_4
REMARK    3  A    between atoms: C_4  and  C_5
REMARK    4  A    between atoms: C_7  and  O_9
REMARK    5  A    between atoms: O_9  and  C_10
REMARK    6  A    between atoms: C_10  and  C_11
REMARK    7  A    between atoms: C_14  and  N_15
REMARK                            x       y       z     vdW  Elec       q    Type
REMARK                         _______ _______ _______ _____ _____    ______ ____
ROOT
ATOM      1  C   UNL     1       2.618   6.615  19.019  0.00  0.00    +0.000 C 
ENDROOT
BRANCH   1   2
ATOM      2  C   UNL     1       3.908   6.056  18.474  0.00  0.00    +0.000 A 
ATOM      3  C   UNL     1       4.163   6.057  17.093  0.00  0.00    +0.000 A 
ATOM      4  C   UNL     1       5.371   5.563  16.596  0.00  0.00    +0.000 A 
ATOM      5  C   UNL     1       6.323   5.049  17.485  0.00  0.00    +0.000 A 
ATOM      6  C   UNL     1       6.067   5.010  18.861  0.00  0.00    +0.000 A 
ATOM      7  C   UNL     1       4.858   5.509  19.348  0.00  0.00    +0.000 A 
BRANCH   5   8
ATOM      8  N   UNL     1       7.608   4.561  16.971  0.00  0.00    +0.000 N 
ATOM      9  O   UNL     1       8.414   4.092  17.785  0.00  0.00    +0.000 OA
ATOM     10  O   UNL     1       7.809   4.637  15.747  0.00  0.00    +0.000 OA
ENDBRANCH   5   8
ENDBRANCH   1   2
BRANCH   1  11
ATOM     11  O   UNL     1       1.958   5.598  19.775  0.00  0.00    +0.000 OA
BRANCH  11  13
ATOM     12  N   UNL     1       2.021   3.293  19.866  0.00  0.00    +0.000 N 
ATOM     13  C   UNL     1       1.697   4.428  19.123  0.00  0.00    +0.000 C 
ATOM     14  O   UNL     1       1.249   4.383  17.980  0.00  0.00    +0.000 OA
BRANCH  12  16
ATOM     15  O   UNL     1       2.017   2.882  22.036  0.00  0.00    +0.000 OA
ATOM     16  N   UNL     1       2.613   3.461  21.123  0.00  0.00    +0.000 NA
ENDBRANCH  12  16
BRANCH  12  17
ATOM     17  C   UNL     1       1.844   1.964  19.285  0.00  0.00    +0.000 C 
BRANCH  17  18
ATOM     18  C   UNL     1       3.119   1.338  18.724  0.00  0.00    +0.000 C 
ATOM     19 CL   UNL     1       3.871   2.361  17.473  0.00  0.00    +0.000 Cl
ENDBRANCH  17  18
ENDBRANCH  12  17
ENDBRANCH  11  13
ENDBRANCH   1  11
TORSDOF 7
ENDMDL
MODEL 4
REMARK VINA RESULT:      -6.4      0.468      1.198
REMARK  Name = 
REMARK  7 active torsions:
REMARK  status: ('A' for Active; 'I' for Inactive)
REMARK    1  A    between atoms: N_2  and  N_3
REMARK    2  A    between atoms: N_3  and  C_4
REMARK    3  A    between atoms: C_4  and  C_5
REMARK    4  A    between atoms: C_7  and  O_9
REMARK    5  A    between atoms: O_9  and  C_10
REMARK    6  A    between atoms: C_10  and  C_11
REMARK    7  A    between atoms: C_14  and  N_15
REMARK                            x       y       z     vdW  Elec       q    Type
REMARK                         _______ _______ _______ _____ _____    ______ ____
ROOT
ATOM      1  C   UNL     1       3.874   7.066  17.571  0.00  0.00    +0.000 C 
ENDROOT
BRANCH   1   2
ATOM      2  C   UNL     1       3.263   5.960  18.394  0.00  0.00    +0.000 A 
ATOM      3  C   UNL     1       2.781   6.213  19.689  0.00  0.00    +0.000 A 
ATOM      4  C   UNL     1       2.191   5.192  20.436  0.00  0.00    +0.000 A 
ATOM      5  C   UNL     1       2.098   3.905  19.892  0.00  0.00    +0.000 A 
ATOM      6  C   UNL     1       2.606   3.631  18.616  0.00  0.00    +0.000 A 
ATOM      7  C   UNL     1       3.191   4.659  17.876  0.00  0.00    +0.000 A 
BRANCH   5   8
ATOM      8  N   UNL     1       1.447   2.837  20.659  0.00  0.00    +0.000 N 
ATOM      9  O   UNL     1       0.880   1.935  20.027  0.00  0.00    +0.000 OA
ATOM     10  O   UNL     1       1.511   2.893  21.899  0.00  0.00    +0.000 OA
ENDBRANCH   5   8
ENDBRANCH   1   2
BRANCH   1  11
ATOM     11  O   UNL     1       5.245   6.749  17.320  0.00  0.00    +0.000 OA
BRANCH  11  13
ATOM     12  N   UNL     1       6.432   5.289  15.984  0.00  0.00    +0.000 N 
ATOM     13  C   UNL     1       5.560   6.375  16.046  0.00  0.00    +0.000 C 
ATOM     14  O   UNL     1       5.137   6.960  15.052  0.00  0.00    +0.000 OA
BRANCH  12  16
ATOM     15  O   UNL     1       8.058   4.275  17.084  0.00  0.00    +0.000 OA
ATOM     16  N   UNL     1       6.925   4.757  17.182  0.00  0.00    +0.000 NA
ENDBRANCH  12  16
BRANCH  12  17
ATOM     17  C   UNL     1       6.901   4.801  14.690  0.00  0.00    +0.000 C 
BRANCH  17  18
ATOM     18  C   UNL     1       5.911   3.903  13.950  0.00  0.00    +0.000 C 
ATOM     19 CL   UNL     1       6.467   3.508  12.304  0.00  0.00    +0.000 Cl
ENDBRANCH  17  18
ENDBRANCH  12  17
ENDBRANCH  11  13
ENDBRANCH   1  11
TORSDOF 7
ENDMDL
MODEL 5
REMARK VINA RESULT:      -6.3      3.387      6.692
REMARK  Name = 
REMARK  7 active torsions:
REMARK  status: ('A' for Active; 'I' for Inactive)
REMARK    1  A    between atoms: N_2  and  N_3
REMARK    2  A    between atoms: N_3  and  C_4
REMARK    3  A    between atoms: C_4  and  C_5
REMARK    4  A    between atoms: C_7  and  O_9
REMARK    5  A    between atoms: O_9  and  C_10
REMARK    6  A    between atoms: C_10  and  C_11
REMARK    7  A    between atoms: C_14  and  N_15
REMARK                            x       y       z     vdW  Elec       q    Type
REMARK                         _______ _______ _______ _____ _____    ______ ____
ROOT
ATOM      1  C   UNL     1       4.817   5.625  19.119  0.00  0.00    +0.000 C 
ENDROOT
BRANCH   1   2
ATOM      2  C   UNL     1       5.442   5.446  17.758  0.00  0.00    +0.000 A 
ATOM      3  C   UNL     1       6.614   4.690  17.601  0.00  0.00    +0.000 A 
ATOM      4  C   UNL     1       7.173   4.505  16.335  0.00  0.00    +0.000 A 
ATOM      5  C   UNL     1       6.564   5.094  15.220  0.00  0.00    +0.000 A 
ATOM      6  C   UNL     1       5.414   5.880  15.367  0.00  0.00    +0.000 A 
ATOM      7  C   UNL     1       4.862   6.056  16.636  0.00  0.00    +0.000 A 
BRANCH   5   8
ATOM      8  N   UNL     1       7.128   4.873  13.883  0.00  0.00    +0.000 N 
ATOM      9  O   UNL     1       6.593   4.017  13.166  0.00  0.00    +0.000 OA
ATOM     10  O   UNL     1       8.103   5.564  13.544  0.00  0.00    +0.000 OA
ENDBRANCH   5   8
ENDBRANCH   1   2
BRANCH   1  11
ATOM     11  O   UNL     1       3.430   5.927  18.952  0.00  0.00    +0.000 OA
BRANCH  11  13
ATOM     12  N   UNL     1       1.743   4.353  18.969  0.00  0.00    +0.000 N 
ATOM     13  C   UNL     1       2.555   5.208  19.713  0.00  0.00    +0.000 C 
ATOM     14  O   UNL     1       2.473   5.327  20.933  0.00  0.00    +0.000 OA
BRANCH  12  16
ATOM     15  O   UNL     1       2.184   3.275  17.093  0.00  0.00    +0.000 OA
ATOM     16  N   UNL     1       1.858   4.364  17.574  0.00  0.00    +0.000 NA
ENDBRANCH  12  16
BRANCH  12  17
ATOM     17  C   UNL     1       0.721   3.551  19.637  0.00  0.00    +0.000 C 
BRANCH  17  18
ATOM     18  C   UNL     1       1.227   2.235  20.226  0.00  0.00    +0.000 C 
ATOM     19 CL   UNL     1       1.490   2.348  21.985  0.00  0.00    +0.000 Cl
ENDBRANCH  17  18
ENDBRANCH  12  17
ENDBRANCH  11  13
ENDBRANCH   1  11
TORSDOF 7
ENDMDL
MODEL 6
REMARK VINA RESULT:      -6.3      1.566      2.271
REMARK  Name = 
REMARK  7 active torsions:
REMARK  status: ('A' for Active; 'I' for Inactive)
REMARK    1  A    between atoms: N_2  and  N_3
REMARK    2  A    between atoms: N_3  and  C_4
REMARK    3  A    between atoms: C_4  and  C_5
REMARK    4  A    between atoms: C_7  and  O_9
REMARK    5  A    between atoms: O_9  and  C_10
REMARK    6  A    between atoms: C_10  and  C_11
REMARK    7  A    between atoms: C_14  and  N_15
REMARK                            x       y       z     vdW  Elec       q    Type
REMARK                         _______ _______ _______ _____ _____    ______ ____
ROOT
ATOM      1  C   UNL     1       6.468   5.448  19.068  0.00  0.00    +0.000 C 
ENDROOT
BRANCH   1   2
ATOM      2  C   UNL     1       5.070   4.887  19.158  0.00  0.00    +0.000 A 
ATOM      3  C   UNL     1       3.955   5.740  19.152  0.00  0.00    +0.000 A 
ATOM      4  C   UNL     1       2.662   5.215  19.207  0.00  0.00    +0.000 A 
ATOM      5  C   UNL     1       2.485   3.828  19.286  0.00  0.00    +0.000 A 
ATOM      6  C   UNL     1       3.590   2.968  19.328  0.00  0.00    +0.000 A 
ATOM      7  C   UNL     1       4.877   3.503  19.269  0.00  0.00    +0.000 A 
BRANCH   5   8
ATOM      8  N   UNL     1       1.128   3.269  19.308  0.00  0.00    +0.000 N 
ATOM      9  O   UNL     1       0.732   2.676  18.297  0.00  0.00    +0.000 OA
ATOM     10  O   UNL     1       0.459   3.415  20.345  0.00  0.00    +0.000 OA
ENDBRANCH   5   8
ENDBRANCH   1   2
BRANCH   1  11
ATOM     11  O   UNL     1       6.699   5.897  17.732  0.00  0.00    +0.000 OA
BRANCH  11  13
ATOM     12  N   UNL     1       6.234   4.863  15.722  0.00  0.00    +0.000 N 
ATOM     13  C   UNL     1       7.078   4.948  16.827  0.00  0.00    +0.000 C 
ATOM     14  O   UNL     1       8.055   4.220  16.990  0.00  0.00    +0.000 OA
BRANCH  12  16
ATOM     15  O   UNL     1       5.321   6.827  15.289  0.00  0.00    +0.000 OA
ATOM     16  N   UNL     1       5.097   5.678  15.683  0.00  0.00    +0.000 NA
ENDBRANCH  12  16
BRANCH  12  17
ATOM     17  C   UNL     1       6.481   3.860  14.688  0.00  0.00    +0.000 C 
BRANCH  17  18
ATOM     18  C   UNL     1       6.177   4.324  13.265  0.00  0.00    +0.000 C 
ATOM     19 CL   UNL     1       5.843   2.956  12.174  0.00  0.00    +0.000 Cl
ENDBRANCH  17  18
ENDBRANCH  12  17
ENDBRANCH  11  13
ENDBRANCH   1  11
TORSDOF 7
ENDMDL
MODEL 7
REMARK VINA RESULT:      -6.2      3.100      6.642
REMARK  Name = 
REMARK  7 active torsions:
REMARK  status: ('A' for Active; 'I' for Inactive)
REMARK    1  A    between atoms: N_2  and  N_3
REMARK    2  A    between atoms: N_3  and  C_4
REMARK    3  A    between atoms: C_4  and  C_5
REMARK    4  A    between atoms: C_7  and  O_9
REMARK    5  A    between atoms: O_9  and  C_10
REMARK    6  A    between atoms: C_10  and  C_11
REMARK    7  A    between atoms: C_14  and  N_15
REMARK                            x       y       z     vdW  Elec       q    Type
REMARK                         _______ _______ _______ _____ _____    ______ ____
ROOT
ATOM      1  C   UNL     1       4.445   5.803  19.174  0.00  0.00    +0.000 C 
ENDROOT
BRANCH   1   2
ATOM      2  C   UNL     1       5.111   5.554  17.844  0.00  0.00    +0.000 A 
ATOM      3  C   UNL     1       4.650   6.193  16.681  0.00  0.00    +0.000 A 
ATOM      4  C   UNL     1       5.288   5.980  15.457  0.00  0.00    +0.000 A 
ATOM      5  C   UNL     1       6.382   5.110  15.392  0.00  0.00    +0.000 A 
ATOM      6  C   UNL     1       6.829   4.439  16.537  0.00  0.00    +0.000 A 
ATOM      7  C   UNL     1       6.188   4.661  17.756  0.00  0.00    +0.000 A 
BRANCH   5   8
ATOM      8  N   UNL     1       7.077   4.910  14.115  0.00  0.00    +0.000 N 
ATOM      9  O   UNL     1       6.626   4.056  13.341  0.00  0.00    +0.000 OA
ATOM     10  O   UNL     1       8.072   5.616  13.881  0.00  0.00    +0.000 OA
ENDBRANCH   5   8
ENDBRANCH   1   2
BRANCH   1  11
ATOM     11  O   UNL     1       3.049   6.022  18.956  0.00  0.00    +0.000 OA
BRANCH  11  13
ATOM     12  N   UNL     1       1.726   4.194  19.434  0.00  0.00    +0.000 N 
ATOM     13  C   UNL     1       2.195   5.440  19.846  0.00  0.00    +0.000 C 
ATOM     14  O   UNL     1       1.851   5.979  20.895  0.00  0.00    +0.000 OA
BRANCH  12  16
ATOM     15  O   UNL     1       1.521   2.687  17.832  0.00  0.00    +0.000 OA
ATOM     16  N   UNL     1       2.112   3.715  18.176  0.00  0.00    +0.000 NA
ENDBRANCH  12  16
BRANCH  12  17
ATOM     17  C   UNL     1       0.765   3.465  20.258  0.00  0.00    +0.000 C 
BRANCH  17  18
ATOM     18  C   UNL     1       1.373   2.745  21.461  0.00  0.00    +0.000 C 
ATOM     19 CL   UNL     1       3.111   2.420  21.236  0.00  0.00    +0.000 Cl
ENDBRANCH  17  18
ENDBRANCH  12  17
ENDBRANCH  11  13
ENDBRANCH   1  11
TORSDOF 7
ENDMDL
MODEL 8
REMARK VINA RESULT:      -6.2      2.792      6.503
REMARK  Name = 
REMARK  7 active torsions:
REMARK  status: ('A' for Active; 'I' for Inactive)
REMARK    1  A    between atoms: N_2  and  N_3
REMARK    2  A    between atoms: N_3  and  C_4
REMARK    3  A    between atoms: C_4  and  C_5
REMARK    4  A    between atoms: C_7  and  O_9
REMARK    5  A    between atoms: O_9  and  C_10
REMARK    6  A    between atoms: C_10  and  C_11
REMARK    7  A    between atoms: C_14  and  N_15
REMARK                            x       y       z     vdW  Elec       q    Type
REMARK                         _______ _______ _______ _____ _____    ______ ____
ROOT
ATOM      1  C   UNL     1       2.799   6.529  18.479  0.00  0.00    +0.000 C 
ENDROOT
BRANCH   1   2
ATOM      2  C   UNL     1       3.831   6.040  17.494  0.00  0.00    +0.000 A 
ATOM      3  C   UNL     1       3.930   4.675  17.178  0.00  0.00    +0.000 A 
ATOM      4  C   UNL     1       4.869   4.231  16.245  0.00  0.00    +0.000 A 
ATOM      5  C   UNL     1       5.726   5.156  15.637  0.00  0.00    +0.000 A 
ATOM      6  C   UNL     1       5.662   6.515  15.970  0.00  0.00    +0.000 A 
ATOM      7  C   UNL     1       4.718   6.949  16.900  0.00  0.00    +0.000 A 
BRANCH   5   8
ATOM      8  N   UNL     1       6.691   4.699  14.630  0.00  0.00    +0.000 N 
ATOM      9  O   UNL     1       7.698   5.394  14.439  0.00  0.00    +0.000 OA
ATOM     10  O   UNL     1       6.447   3.636  14.034  0.00  0.00    +0.000 OA
ENDBRANCH   5   8
ENDBRANCH   1   2
BRANCH   1  11
ATOM     11  O   UNL     1       1.790   5.527  18.625  0.00  0.00    +0.000 OA
BRANCH  11  13
ATOM     12  N   UNL     1       1.410   3.525  19.706  0.00  0.00    +0.000 N 
ATOM     13  C   UNL     1       1.752   4.871  19.820  0.00  0.00    +0.000 C 
ATOM     14  O   UNL     1       1.969   5.425  20.895  0.00  0.00    +0.000 OA
BRANCH  12  16
ATOM     15  O   UNL     1       0.296   2.076  18.465  0.00  0.00    +0.000 OA
ATOM     16  N   UNL     1       1.093   3.019  18.440  0.00  0.00    +0.000 NA
ENDBRANCH  12  16
BRANCH  12  17
ATOM     17  C   UNL     1       1.280   2.699  20.904  0.00  0.00    +0.000 C 
BRANCH  17  18
ATOM     18  C   UNL     1       2.602   2.360  21.591  0.00  0.00    +0.000 C 
ATOM     19 CL   UNL     1       3.963   2.328  20.442  0.00  0.00    +0.000 Cl
ENDBRANCH  17  18
ENDBRANCH  12  17
ENDBRANCH  11  13
ENDBRANCH   1  11
TORSDOF 7
ENDMDL
MODEL 9
REMARK VINA RESULT:      -6.2      2.995      6.141
REMARK  Name = 
REMARK  7 active torsions:
REMARK  status: ('A' for Active; 'I' for Inactive)
REMARK    1  A    between atoms: N_2  and  N_3
REMARK    2  A    between atoms: N_3  and  C_4
REMARK    3  A    between atoms: C_4  and  C_5
REMARK    4  A    between atoms: C_7  and  O_9
REMARK    5  A    between atoms: O_9  and  C_10
REMARK    6  A    between atoms: C_10  and  C_11
REMARK    7  A    between atoms: C_14  and  N_15
REMARK                            x       y       z     vdW  Elec       q    Type
REMARK                         _______ _______ _______ _____ _____    ______ ____
ROOT
ATOM      1  C   UNL     1       5.630   5.973  19.082  0.00  0.00    +0.000 C 
ENDROOT
BRANCH   1   2
ATOM      2  C   UNL     1       5.927   5.595  17.653  0.00  0.00    +0.000 A 
ATOM      3  C   UNL     1       5.131   6.080  16.603  0.00  0.00    +0.000 A 
ATOM      4  C   UNL     1       5.428   5.749  15.279  0.00  0.00    +0.000 A 
ATOM      5  C   UNL     1       6.516   4.913  15.005  0.00  0.00    +0.000 A 
ATOM      6  C   UNL     1       7.297   4.394  16.045  0.00  0.00    +0.000 A 
ATOM      7  C   UNL     1       6.995   4.733  17.364  0.00  0.00    +0.000 A 
BRANCH   5   8
ATOM      8  N   UNL     1       6.853   4.590  13.613  0.00  0.00    +0.000 N 
ATOM      9  O   UNL     1       7.682   5.308  13.039  0.00  0.00    +0.000 OA
ATOM     10  O   UNL     1       6.293   3.610  13.095  0.00  0.00    +0.000 OA
ENDBRANCH   5   8
ENDBRANCH   1   2
BRANCH   1  11
ATOM     11  O   UNL     1       5.283   4.793  19.808  0.00  0.00    +0.000 OA
BRANCH  11  13
ATOM     12  N   UNL     1       3.730   3.093  19.961  0.00  0.00    +0.000 N 
ATOM     13  C   UNL     1       3.960   4.462  19.837  0.00  0.00    +0.000 C 
ATOM     14  O   UNL     1       3.060   5.292  19.732  0.00  0.00    +0.000 OA
BRANCH  12  16
ATOM     15  O   UNL     1       5.080   1.762  21.096  0.00  0.00    +0.000 OA
ATOM     16  N   UNL     1       4.831   2.228  19.980  0.00  0.00    +0.000 NA
ENDBRANCH  12  16
BRANCH  12  17
ATOM     17  C   UNL     1       2.364   2.577  19.959  0.00  0.00    +0.000 C 
BRANCH  17  18
ATOM     18  C   UNL     1       1.908   1.986  18.626  0.00  0.00    +0.000 C 
ATOM     19 CL   UNL     1       2.447   2.968  17.240  0.00  0.00    +0.000 Cl
ENDBRANCH  17  18
ENDBRANCH  12  17
ENDBRANCH  11  13
ENDBRANCH   1  11
TORSDOF 7
ENDMDL
