MODEL 1
REMARK VINA RESULT:      -6.9      0.000      0.000
REMARK  Name = 
REMARK  5 active torsions:
REMARK  status: ('A' for Active; 'I' for Inactive)
REMARK    1  A    between atoms: N_4  and  C_5
REMARK    2  A    between atoms: C_5  and  C_6
REMARK    3  A    between atoms: C_6  and  C_7
REMARK    4  A    between atoms: C_7  and  C_8
REMARK    5  A    between atoms: C_15  and  C_16
REMARK                            x       y       z     vdW  Elec       q    Type
REMARK                         _______ _______ _______ _____ _____    ______ ____
ROOT
ATOM      1  C   UNL     1       7.780   7.116  17.582  0.00  0.00    +0.000 C 
ATOM      2  C   UNL     1       6.310   7.200  17.125  0.00  0.00    +0.000 C 
ATOM      3  C   UNL     1       5.294   6.750  18.185  0.00  0.00    +0.000 C 
ATOM      4  N   UNL     1       5.701   5.482  18.777  0.00  0.00    +0.000 N 
ATOM      5  C   UNL     1       4.820   4.513  19.165  0.00  0.00    +0.000 A 
ATOM      6  N   UNL     1       5.191   3.312  19.579  0.00  0.00    +0.000 NA
ATOM      7  N   UNL     1       4.141   2.473  19.866  0.00  0.00    +0.000 NA
ATOM      8  C   UNL     1       2.987   3.073  19.700  0.00  0.00    +0.000 A 
ATOM      9  S   UNL     1       3.094   4.691  19.175  0.00  0.00    +0.000 S 
ATOM     10  C   UNL     1       7.068   5.396  19.291  0.00  0.00    +0.000 C 
ATOM     11  C   UNL     1       8.039   5.718  18.161  0.00  0.00    +0.000 C 
ENDROOT
BRANCH   8  12
ATOM     12  C   UNL     1       1.659   2.369  19.961  0.00  0.00    +0.000 C 
ATOM     13  C   UNL     1       0.387   3.194  19.927  0.00  0.00    +0.000 C 
ATOM     14  C   UNL     1       0.677   2.253  18.809  0.00  0.00    +0.000 C 
ENDBRANCH   8  12
BRANCH   1  15
ATOM     15  C   UNL     1       8.129   8.260  18.554  0.00  0.00    +0.000 C 
BRANCH  15  16
ATOM     16  C   UNL     1       8.464   9.609  17.901  0.00  0.00    +0.000 C 
BRANCH  16  17
ATOM     17  C   UNL     1       9.273  10.555  18.801  0.00  0.00    +0.000 C 
BRANCH  17  21
ATOM     18  C   UNL     1      10.411  13.637  18.713  0.00  0.00    +0.000 C 
ATOM     19  C   UNL     1      11.195  12.779  19.686  0.00  0.00    +0.000 C 
ATOM     20  C   UNL     1      11.530  11.562  18.851  0.00  0.00    +0.000 C 
ATOM     21  N   UNL     1      10.311  11.306  18.069  0.00  0.00    +0.000 NA
ATOM     22  C   UNL     1       9.820  12.652  17.704  0.00  0.00    +0.000 C 
ENDBRANCH  17  21
ENDBRANCH  16  17
ENDBRANCH  15  16
ENDBRANCH   1  15
TORSDOF 5
ENDMDL
MODEL 2
REMARK VINA RESULT:      -6.8      0.935      1.026
REMARK  Name = 
REMARK  5 active torsions:
REMARK  status: ('A' for Active; 'I' for Inactive)
REMARK    1  A    between atoms: N_4  and  C_5
REMARK    2  A    between atoms: C_5  and  C_6
REMARK    3  A    between atoms: C_6  and  C_7
REMARK    4  A    between atoms: C_7  and  C_8
REMARK    5  A    between atoms: C_15  and  C_16
REMARK                            x       y       z     vdW  Elec       q    Type
REMARK                         _______ _______ _______ _____ _____    ______ ____
ROOT
ATOM      1  C   UNL     1       7.612   7.244  17.195  0.00  0.00    +0.000 C 
ATOM      2  C   UNL     1       6.304   6.906  16.454  0.00  0.00    +0.000 C 
ATOM      3  C   UNL     1       5.134   6.534  17.377  0.00  0.00    +0.000 C 
ATOM      4  N   UNL     1       5.563   5.566  18.379  0.00  0.00    +0.000 N 
ATOM      5  C   UNL     1       4.763   4.563  18.850  0.00  0.00    +0.000 A 
ATOM      6  N   UNL     1       5.191   3.606  19.657  0.00  0.00    +0.000 NA
ATOM      7  N   UNL     1       4.237   2.666  19.964  0.00  0.00    +0.000 NA
ATOM      8  C   UNL     1       3.084   2.953  19.407  0.00  0.00    +0.000 A 
ATOM      9  S   UNL     1       3.081   4.376  18.467  0.00  0.00    +0.000 S 
ATOM     10  C   UNL     1       6.759   5.895  19.154  0.00  0.00    +0.000 C 
ATOM     11  C   UNL     1       7.921   6.120  18.194  0.00  0.00    +0.000 C 
ENDROOT
BRANCH   8  12
ATOM     12  C   UNL     1       1.849   2.077  19.593  0.00  0.00    +0.000 C 
ATOM     13  C   UNL     1       0.593   2.713  20.158  0.00  0.00    +0.000 C 
ATOM     14  C   UNL     1       0.643   2.350  18.713  0.00  0.00    +0.000 C 
ENDBRANCH   8  12
BRANCH   1  15
ATOM     15  C   UNL     1       7.542   8.641  17.843  0.00  0.00    +0.000 C 
BRANCH  15  16
ATOM     16  C   UNL     1       8.792   9.078  18.620  0.00  0.00    +0.000 C 
BRANCH  16  17
ATOM     17  C   UNL     1       9.213  10.533  18.360  0.00  0.00    +0.000 C 
BRANCH  17  21
ATOM     18  C   UNL     1      10.053  13.407  19.714  0.00  0.00    +0.000 C 
ATOM     19  C   UNL     1       9.063  12.650  20.577  0.00  0.00    +0.000 C 
ATOM     20  C   UNL     1       9.692  11.277  20.668  0.00  0.00    +0.000 C 
ATOM     21  N   UNL     1      10.221  11.025  19.318  0.00  0.00    +0.000 NA
ATOM     22  C   UNL     1      10.757  12.333  18.885  0.00  0.00    +0.000 C 
ENDBRANCH  17  21
ENDBRANCH  16  17
ENDBRANCH  15  16
ENDBRANCH   1  15
TORSDOF 5
ENDMDL
MODEL 3
REMARK VINA RESULT:      -6.8      0.956      1.330
REMARK  Name = 
REMARK  5 active torsions:
REMARK  status: ('A' for Active; 'I' for Inactive)
REMARK    1  A    between atoms: N_4  and  C_5
REMARK    2  A    between atoms: C_5  and  C_6
REMARK    3  A    between atoms: C_6  and  C_7
REMARK    4  A    between atoms: C_7  and  C_8
REMARK    5  A    between atoms: C_15  and  C_16
REMARK                            x       y       z     vdW  Elec       q    Type
REMARK                         _______ _______ _______ _____ _____    ______ ____
ROOT
ATOM      1  C   UNL     1       8.025   7.373  17.632  0.00  0.00    +0.000 C 
ATOM      2  C   UNL     1       6.967   7.013  16.570  0.00  0.00    +0.000 C 
ATOM      3  C   UNL     1       5.604   6.607  17.150  0.00  0.00    +0.000 C 
ATOM      4  N   UNL     1       5.776   5.639  18.227  0.00  0.00    +0.000 N 
ATOM      5  C   UNL     1       4.904   4.615  18.467  0.00  0.00    +0.000 A 
ATOM      6  N   UNL     1       5.126   3.661  19.356  0.00  0.00    +0.000 NA
ATOM      7  N   UNL     1       4.147   2.697  19.396  0.00  0.00    +0.000 NA
ATOM      8  C   UNL     1       3.176   2.964  18.555  0.00  0.00    +0.000 A 
ATOM      9  S   UNL     1       3.388   4.394  17.652  0.00  0.00    +0.000 S 
ATOM     10  C   UNL     1       6.716   5.989  19.292  0.00  0.00    +0.000 C 
ATOM     11  C   UNL     1       8.085   6.247  18.674  0.00  0.00    +0.000 C 
ENDROOT
BRANCH   8  12
ATOM     12  C   UNL     1       1.957   2.058  18.406  0.00  0.00    +0.000 C 
ATOM     13  C   UNL     1       1.176   1.691  19.652  0.00  0.00    +0.000 C 
ATOM     14  C   UNL     1       0.589   2.656  18.680  0.00  0.00    +0.000 C 
ENDBRANCH   8  12
BRANCH   1  15
ATOM     15  C   UNL     1       7.753   8.763  18.243  0.00  0.00    +0.000 C 
BRANCH  15  16
ATOM     16  C   UNL     1       8.906   9.771  18.144  0.00  0.00    +0.000 C 
BRANCH  16  17
ATOM     17  C   UNL     1       9.373  10.320  19.501  0.00  0.00    +0.000 C 
BRANCH  17  21
ATOM     18  C   UNL     1      12.156  12.033  19.847  0.00  0.00    +0.000 C 
ATOM     19  C   UNL     1      11.904  11.662  18.399  0.00  0.00    +0.000 C 
ATOM     20  C   UNL     1      10.472  12.107  18.193  0.00  0.00    +0.000 C 
ATOM     21  N   UNL     1       9.789  11.734  19.442  0.00  0.00    +0.000 NA
ATOM     22  C   UNL     1      10.775  12.033  20.502  0.00  0.00    +0.000 C 
ENDBRANCH  17  21
ENDBRANCH  16  17
ENDBRANCH  15  16
ENDBRANCH   1  15
TORSDOF 5
ENDMDL
MODEL 4
REMARK VINA RESULT:      -6.5      4.159      7.232
REMARK  Name = 
REMARK  5 active torsions:
REMARK  status: ('A' for Active; 'I' for Inactive)
REMARK    1  A    between atoms: N_4  and  C_5
REMARK    2  A    between atoms: C_5  and  C_6
REMARK    3  A    between atoms: C_6  and  C_7
REMARK    4  A    between atoms: C_7  and  C_8
REMARK    5  A    between atoms: C_15  and  C_16
REMARK                            x       y       z     vdW  Elec       q    Type
REMARK                         _______ _______ _______ _____ _____    ______ ____
ROOT
ATOM      1  C   UNL     1       2.194   4.123  19.158  0.00  0.00    +0.000 C 
ATOM      2  C   UNL     1       1.866   4.938  17.891  0.00  0.00    +0.000 C 
ATOM      3  C   UNL     1       2.365   6.390  17.930  0.00  0.00    +0.000 C 
ATOM      4  N   UNL     1       2.011   7.018  19.196  0.00  0.00    +0.000 N 
ATOM      5  C   UNL     1       1.665   8.335  19.315  0.00  0.00    +0.000 A 
ATOM      6  N   UNL     1       1.217   8.874  20.437  0.00  0.00    +0.000 NA
ATOM      7  N   UNL     1       0.874  10.199  20.321  0.00  0.00    +0.000 NA
ATOM      8  C   UNL     1       1.106  10.651  19.112  0.00  0.00    +0.000 A 
ATOM      9  S   UNL     1       1.748   9.499  18.031  0.00  0.00    +0.000 S 
ATOM     10  C   UNL     1       2.380   6.304  20.419  0.00  0.00    +0.000 C 
ATOM     11  C   UNL     1       1.744   4.920  20.391  0.00  0.00    +0.000 C 
ENDROOT
BRANCH   8  12
ATOM     12  C   UNL     1       0.823  12.097  18.715  0.00  0.00    +0.000 C 
ATOM     13  C   UNL     1       1.058  13.185  19.744  0.00  0.00    +0.000 C 
ATOM     14  C   UNL     1       2.001  13.047  18.599  0.00  0.00    +0.000 C 
ENDBRANCH   8  12
BRANCH   1  15
ATOM     15  C   UNL     1       3.682   3.721  19.194  0.00  0.00    +0.000 C 
BRANCH  15  16
ATOM     16  C   UNL     1       4.327   3.437  17.830  0.00  0.00    +0.000 C 
BRANCH  16  17
ATOM     17  C   UNL     1       5.589   4.268  17.551  0.00  0.00    +0.000 C 
BRANCH  17  21
ATOM     18  C   UNL     1       7.883   6.310  18.723  0.00  0.00    +0.000 C 
ATOM     19  C   UNL     1       7.423   6.721  17.339  0.00  0.00    +0.000 C 
ATOM     20  C   UNL     1       5.916   6.718  17.481  0.00  0.00    +0.000 C 
ATOM     21  N   UNL     1       5.628   5.535  18.307  0.00  0.00    +0.000 NA
ATOM     22  C   UNL     1       6.717   5.512  19.307  0.00  0.00    +0.000 C 
ENDBRANCH  17  21
ENDBRANCH  16  17
ENDBRANCH  15  16
ENDBRANCH   1  15
TORSDOF 5
ENDMDL
MODEL 5
REMARK VINA RESULT:      -6.5      4.804      8.603
REMARK  Name = 
REMARK  5 active torsions:
REMARK  status: ('A' for Active; 'I' for Inactive)
REMARK    1  A    between atoms: N_4  and  C_5
REMARK    2  A    between atoms: C_5  and  C_6
REMARK    3  A    between atoms: C_6  and  C_7
REMARK    4  A    between atoms: C_7  and  C_8
REMARK    5  A    between atoms: C_15  and  C_16
REMARK                            x       y       z     vdW  Elec       q    Type
REMARK                         _______ _______ _______ _____ _____    ______ ____
ROOT
ATOM      1  C   UNL     1       5.164   5.398  17.639  0.00  0.00    +0.000 C 
ATOM      2  C   UNL     1       4.580   5.579  19.054  0.00  0.00    +0.000 C 
ATOM      3  C   UNL     1       3.170   6.186  19.081  0.00  0.00    +0.000 C 
ATOM      4  N   UNL     1       3.100   7.355  18.213  0.00  0.00    +0.000 N 
ATOM      5  C   UNL     1       2.345   8.458  18.493  0.00  0.00    +0.000 A 
ATOM      6  N   UNL     1       2.382   9.570  17.777  0.00  0.00    +0.000 NA
ATOM      7  N   UNL     1       1.585  10.576  18.266  0.00  0.00    +0.000 NA
ATOM      8  C   UNL     1       0.925  10.191  19.332  0.00  0.00    +0.000 A 
ATOM      9  S   UNL     1       1.232   8.585  19.818  0.00  0.00    +0.000 S 
ATOM     10  C   UNL     1       3.575   7.192  16.839  0.00  0.00    +0.000 C 
ATOM     11  C   UNL     1       5.024   6.721  16.872  0.00  0.00    +0.000 C 
ENDROOT
BRANCH   8  12
ATOM     12  C   UNL     1      -0.041  11.113  20.069  0.00  0.00    +0.000 C 
ATOM     13  C   UNL     1      -0.391  12.445  19.434  0.00  0.00    +0.000 C 
ATOM     14  C   UNL     1      -1.406  11.354  19.452  0.00  0.00    +0.000 C 
ENDBRANCH   8  12
BRANCH   1  15
ATOM     15  C   UNL     1       4.520   4.197  16.918  0.00  0.00    +0.000 C 
BRANCH  15  16
ATOM     16  C   UNL     1       4.077   3.038  17.822  0.00  0.00    +0.000 C 
BRANCH  16  17
ATOM     17  C   UNL     1       2.570   2.742  17.766  0.00  0.00    +0.000 C 
BRANCH  17  21
ATOM     18  C   UNL     1       2.128   3.403  20.955  0.00  0.00    +0.000 C 
ATOM     19  C   UNL     1       0.877   3.685  20.147  0.00  0.00    +0.000 C 
ATOM     20  C   UNL     1       0.706   2.406  19.355  0.00  0.00    +0.000 C 
ATOM     21  N   UNL     1       2.074   2.033  18.961  0.00  0.00    +0.000 NA
ATOM     22  C   UNL     1       2.899   2.362  20.143  0.00  0.00    +0.000 C 
ENDBRANCH  17  21
ENDBRANCH  16  17
ENDBRANCH  15  16
ENDBRANCH   1  15
TORSDOF 5
ENDMDL
MODEL 6
REMARK VINA RESULT:      -6.4      4.015      7.023
REMARK  Name = 
REMARK  5 active torsions:
REMARK  status: ('A' for Active; 'I' for Inactive)
REMARK    1  A    between atoms: N_4  and  C_5
REMARK    2  A    between atoms: C_5  and  C_6
REMARK    3  A    between atoms: C_6  and  C_7
REMARK    4  A    between atoms: C_7  and  C_8
REMARK    5  A    between atoms: C_15  and  C_16
REMARK                            x       y       z     vdW  Elec       q    Type
REMARK                         _______ _______ _______ _____ _____    ______ ____
ROOT
ATOM      1  C   UNL     1       1.850   3.291  19.015  0.00  0.00    +0.000 C 
ATOM      2  C   UNL     1       1.627   4.375  17.942  0.00  0.00    +0.000 C 
ATOM      3  C   UNL     1       2.207   5.750  18.304  0.00  0.00    +0.000 C 
ATOM      4  N   UNL     1       1.835   6.119  19.664  0.00  0.00    +0.000 N 
ATOM      5  C   UNL     1       1.561   7.401  20.049  0.00  0.00    +0.000 A 
ATOM      6  N   UNL     1       1.096   7.720  21.246  0.00  0.00    +0.000 NA
ATOM      7  N   UNL     1       0.835   9.060  21.405  0.00  0.00    +0.000 NA
ATOM      8  C   UNL     1       1.147   9.740  20.328  0.00  0.00    +0.000 A 
ATOM      9  S   UNL     1       1.768   8.802  19.047  0.00  0.00    +0.000 S 
ATOM     10  C   UNL     1       2.107   5.141  20.717  0.00  0.00    +0.000 C 
ATOM     11  C   UNL     1       1.393   3.838  20.375  0.00  0.00    +0.000 C 
ENDROOT
BRANCH   8  12
ATOM     12  C   UNL     1       0.966  11.252  20.239  0.00  0.00    +0.000 C 
ATOM     13  C   UNL     1       0.807  11.880  18.868  0.00  0.00    +0.000 C 
ATOM     14  C   UNL     1      -0.376  11.782  19.769  0.00  0.00    +0.000 C 
ENDBRANCH   8  12
BRANCH   1  15
ATOM     15  C   UNL     1       3.309   2.793  19.010  0.00  0.00    +0.000 C 
BRANCH  15  16
ATOM     16  C   UNL     1       4.209   3.378  17.913  0.00  0.00    +0.000 C 
BRANCH  16  17
ATOM     17  C   UNL     1       5.360   4.247  18.445  0.00  0.00    +0.000 C 
BRANCH  17  21
ATOM     18  C   UNL     1       7.003   6.909  17.441  0.00  0.00    +0.000 C 
ATOM     19  C   UNL     1       7.784   6.128  18.479  0.00  0.00    +0.000 C 
ATOM     20  C   UNL     1       7.732   4.718  17.934  0.00  0.00    +0.000 C 
ATOM     21  N   UNL     1       6.363   4.576  17.414  0.00  0.00    +0.000 NA
ATOM     22  C   UNL     1       6.066   5.886  16.798  0.00  0.00    +0.000 C 
ENDBRANCH  17  21
ENDBRANCH  16  17
ENDBRANCH  15  16
ENDBRANCH   1  15
TORSDOF 5
ENDMDL
MODEL 7
REMARK VINA RESULT:      -6.4      5.595      9.431
REMARK  Name = 
REMARK  5 active torsions:
REMARK  status: ('A' for Active; 'I' for Inactive)
REMARK    1  A    between atoms: N_4  and  C_5
REMARK    2  A    between atoms: C_5  and  C_6
REMARK    3  A    between atoms: C_6  and  C_7
REMARK    4  A    between atoms: C_7  and  C_8
REMARK    5  A    between atoms: C_15  and  C_16
REMARK                            x       y       z     vdW  Elec       q    Type
REMARK                         _______ _______ _______ _____ _____    ______ ____
ROOT
ATOM      1  C   UNL     1       2.996   6.520  18.492  0.00  0.00    +0.000 C 
ATOM      2  C   UNL     1       2.699   6.669  19.997  0.00  0.00    +0.000 C 
ATOM      3  C   UNL     1       1.459   7.517  20.314  0.00  0.00    +0.000 C 
ATOM      4  N   UNL     1       1.477   8.756  19.547  0.00  0.00    +0.000 N 
ATOM      5  C   UNL     1       1.009   9.947  20.025  0.00  0.00    +0.000 A 
ATOM      6  N   UNL     1       1.145  11.095  19.383  0.00  0.00    +0.000 NA
ATOM      7  N   UNL     1       0.651  12.179  20.069  0.00  0.00    +0.000 NA
ATOM      8  C   UNL     1       0.112  11.821  21.210  0.00  0.00    +0.000 A 
ATOM      9  S   UNL     1       0.175  10.148  21.533  0.00  0.00    +0.000 S 
ATOM     10  C   UNL     1       1.679   8.641  18.102  0.00  0.00    +0.000 C 
ATOM     11  C   UNL     1       2.993   7.912  17.845  0.00  0.00    +0.000 C 
ENDROOT
BRANCH   8  12
ATOM     12  C   UNL     1      -0.520  12.830  22.163  0.00  0.00    +0.000 C 
ATOM     13  C   UNL     1      -0.811  14.225  21.646  0.00  0.00    +0.000 C 
ATOM     14  C   UNL     1      -1.941  13.282  21.881  0.00  0.00    +0.000 C 
ENDBRANCH   8  12
BRANCH   1  15
ATOM     15  C   UNL     1       2.020   5.530  17.826  0.00  0.00    +0.000 C 
BRANCH  15  16
ATOM     16  C   UNL     1       2.575   4.122  17.565  0.00  0.00    +0.000 C 
BRANCH  16  17
ATOM     17  C   UNL     1       3.532   3.616  18.656  0.00  0.00    +0.000 C 
BRANCH  17  21
ATOM     18  C   UNL     1       2.155   2.955  21.566  0.00  0.00    +0.000 C 
ATOM     19  C   UNL     1       1.110   3.221  20.500  0.00  0.00    +0.000 C 
ATOM     20  C   UNL     1       1.556   2.315  19.373  0.00  0.00    +0.000 C 
ATOM     21  N   UNL     1       3.023   2.429  19.369  0.00  0.00    +0.000 NA
ATOM     22  C   UNL     1       3.391   2.483  20.799  0.00  0.00    +0.000 C 
ENDBRANCH  17  21
ENDBRANCH  16  17
ENDBRANCH  15  16
ENDBRANCH   1  15
TORSDOF 5
ENDMDL
MODEL 8
REMARK VINA RESULT:      -6.4      5.415      7.935
REMARK  Name = 
REMARK  5 active torsions:
REMARK  status: ('A' for Active; 'I' for Inactive)
REMARK    1  A    between atoms: N_4  and  C_5
REMARK    2  A    between atoms: C_5  and  C_6
REMARK    3  A    between atoms: C_6  and  C_7
REMARK    4  A    between atoms: C_7  and  C_8
REMARK    5  A    between atoms: C_15  and  C_16
REMARK                            x       y       z     vdW  Elec       q    Type
REMARK                         _______ _______ _______ _____ _____    ______ ____
ROOT
ATOM      1  C   UNL     1       3.326   6.308  18.576  0.00  0.00    +0.000 C 
ATOM      2  C   UNL     1       2.998   6.244  20.081  0.00  0.00    +0.000 C 
ATOM      3  C   UNL     1       1.661   6.895  20.464  0.00  0.00    +0.000 C 
ATOM      4  N   UNL     1       1.538   8.209  19.845  0.00  0.00    +0.000 N 
ATOM      5  C   UNL     1       0.924   9.272  20.445  0.00  0.00    +0.000 A 
ATOM      6  N   UNL     1       0.927  10.496  19.944  0.00  0.00    +0.000 NA
ATOM      7  N   UNL     1       0.299  11.426  20.737  0.00  0.00    +0.000 NA
ATOM      8  C   UNL     1      -0.205  10.874  21.816  0.00  0.00    +0.000 A 
ATOM      9  S   UNL     1       0.057   9.195  21.946  0.00  0.00    +0.000 S 
ATOM     10  C   UNL     1       1.767   8.289  18.402  0.00  0.00    +0.000 C 
ATOM     11  C   UNL     1       3.161   7.757  18.095  0.00  0.00    +0.000 C 
ENDROOT
BRANCH   8  12
ATOM     12  C   UNL     1      -0.964  11.682  22.864  0.00  0.00    +0.000 C 
ATOM     13  C   UNL     1      -1.200  13.157  22.604  0.00  0.00    +0.000 C 
ATOM     14  C   UNL     1      -2.341  12.205  22.499  0.00  0.00    +0.000 C 
ENDBRANCH   8  12
BRANCH   1  15
ATOM     15  C   UNL     1       2.483   5.294  17.777  0.00  0.00    +0.000 C 
BRANCH  15  16
ATOM     16  C   UNL     1       3.217   4.021  17.336  0.00  0.00    +0.000 C 
BRANCH  16  17
ATOM     17  C   UNL     1       4.669   3.932  17.834  0.00  0.00    +0.000 C 
BRANCH  17  21
ATOM     18  C   UNL     1       5.651   5.866  15.365  0.00  0.00    +0.000 C 
ATOM     19  C   UNL     1       6.492   6.075  16.608  0.00  0.00    +0.000 C 
ATOM     20  C   UNL     1       6.874   4.660  16.986  0.00  0.00    +0.000 C 
ATOM     21  N   UNL     1       5.655   3.873  16.739  0.00  0.00    +0.000 NA
ATOM     22  C   UNL     1       5.093   4.449  15.499  0.00  0.00    +0.000 C 
ENDBRANCH  17  21
ENDBRANCH  16  17
ENDBRANCH  15  16
ENDBRANCH   1  15
TORSDOF 5
ENDMDL
MODEL 9
REMARK VINA RESULT:      -6.4      5.723      8.771
REMARK  Name = 
REMARK  5 active torsions:
REMARK  status: ('A' for Active; 'I' for Inactive)
REMARK    1  A    between atoms: N_4  and  C_5
REMARK    2  A    between atoms: C_5  and  C_6
REMARK    3  A    between atoms: C_6  and  C_7
REMARK    4  A    between atoms: C_7  and  C_8
REMARK    5  A    between atoms: C_15  and  C_16
REMARK                            x       y       z     vdW  Elec       q    Type
REMARK                         _______ _______ _______ _____ _____    ______ ____
ROOT
ATOM      1  C   UNL     1       2.303   6.979  18.030  0.00  0.00    +0.000 C 
ATOM      2  C   UNL     1       1.572   8.280  17.643  0.00  0.00    +0.000 C 
ATOM      3  C   UNL     1       1.635   9.380  18.713  0.00  0.00    +0.000 C 
ATOM      4  N   UNL     1       1.309   8.836  20.025  0.00  0.00    +0.000 N 
ATOM      5  C   UNL     1       0.622   9.531  20.981  0.00  0.00    +0.000 A 
ATOM      6  N   UNL     1       0.211   8.995  22.118  0.00  0.00    +0.000 NA
ATOM      7  N   UNL     1      -0.510   9.855  22.911  0.00  0.00    +0.000 NA
ATOM      8  C   UNL     1      -0.598  11.047  22.370  0.00  0.00    +0.000 A 
ATOM      9  S   UNL     1       0.178  11.203  20.860  0.00  0.00    +0.000 S 
ATOM     10  C   UNL     1       2.043   7.645  20.453  0.00  0.00    +0.000 C 
ATOM     11  C   UNL     1       1.833   6.541  19.424  0.00  0.00    +0.000 C 
ENDROOT
BRANCH   8  12
ATOM     12  C   UNL     1      -1.339  12.196  23.048  0.00  0.00    +0.000 C 
ATOM     13  C   UNL     1      -2.091  13.182  22.176  0.00  0.00    +0.000 C 
ATOM     14  C   UNL     1      -2.855  12.196  22.992  0.00  0.00    +0.000 C 
ENDBRANCH   8  12
BRANCH   1  15
ATOM     15  C   UNL     1       3.832   7.144  17.919  0.00  0.00    +0.000 C 
BRANCH  15  16
ATOM     16  C   UNL     1       4.650   5.849  18.017  0.00  0.00    +0.000 C 
BRANCH  16  17
ATOM     17  C   UNL     1       4.073   4.683  17.200  0.00  0.00    +0.000 C 
BRANCH  17  21
ATOM     18  C   UNL     1       3.123   3.175  19.961  0.00  0.00    +0.000 C 
ATOM     19  C   UNL     1       2.179   2.884  18.811  0.00  0.00    +0.000 C 
ATOM     20  C   UNL     1       3.127   2.457  17.711  0.00  0.00    +0.000 C 
ATOM     21  N   UNL     1       4.274   3.369  17.841  0.00  0.00    +0.000 NA
ATOM     22  C   UNL     1       4.457   3.524  19.300  0.00  0.00    +0.000 C 
ENDBRANCH  17  21
ENDBRANCH  16  17
ENDBRANCH  15  16
ENDBRANCH   1  15
TORSDOF 5
ENDMDL
