MODEL 1
REMARK VINA RESULT:      -7.8      0.000      0.000
REMARK  Name = 
REMARK  3 active torsions:
REMARK  status: ('A' for Active; 'I' for Inactive)
REMARK    1  A    between atoms: C_1  and  O_2
REMARK    2  A    between atoms: O_2  and  C_3
REMARK    3  A    between atoms: C_13  and  C_15
REMARK                            x       y       z     vdW  Elec       q    Type
REMARK                         _______ _______ _______ _____ _____    ______ ____
ROOT
ATOM      1  C   UNL     1       3.350   3.446  20.294  0.00  0.00    +0.000 A 
ATOM      2  C   UNL     1       4.357   3.205  19.355  0.00  0.00    +0.000 A 
ATOM      3  C   UNL     1       4.755   4.209  18.481  0.00  0.00    +0.000 A 
ATOM      4  C   UNL     1       4.127   5.457  18.523  0.00  0.00    +0.000 A 
ATOM      5  C   UNL     1       3.087   5.719  19.457  0.00  0.00    +0.000 A 
ATOM      6  C   UNL     1       2.707   4.700  20.341  0.00  0.00    +0.000 A 
ATOM      7  C   UNL     1       2.423   7.031  19.399  0.00  0.00    +0.000 A 
ATOM      8  N   UNL     1       1.606   7.637  20.357  0.00  0.00    +0.000 NA
ATOM      9  C   UNL     1       1.203   8.815  19.901  0.00  0.00    +0.000 A 
ATOM     10  N   UNL     1       0.380   9.695  20.586  0.00  0.00    +0.000 N 
ATOM     11  C   UNL     1      -0.266  10.772  19.989  0.00  0.00    +0.000 C 
ATOM     12  O   UNL     1      -0.281  11.031  18.788  0.00  0.00    +0.000 OA
ATOM     13  S   UNL     1       1.862   9.282  18.384  0.00  0.00    +0.000 S 
ATOM     14  C   UNL     1       2.639   7.797  18.271  0.00  0.00    +0.000 A 
ATOM     15  C   UNL     1       3.454   7.410  17.092  0.00  0.00    +0.000 C 
ATOM     16  C   UNL     1       4.610   6.538  17.574  0.00  0.00    +0.000 C 
ATOM     17  H   UNL     1       0.147   9.409  21.526  0.00  0.00    +0.000 HD
ENDROOT
BRANCH  11  18
ATOM     18  C   UNL     1      -1.068  11.696  20.843  0.00  0.00    +0.000 A 
ATOM     19  C   UNL     1      -2.026  12.586  20.346  0.00  0.00    +0.000 A 
ATOM     20  C   UNL     1      -2.797  13.346  21.243  0.00  0.00    +0.000 A 
ATOM     21  C   UNL     1      -2.618  13.215  22.621  0.00  0.00    +0.000 A 
ATOM     22 CL   UNL     1      -3.577  14.138  23.710  0.00  0.00    +0.000 Cl
ATOM     23  C   UNL     1      -1.674  12.328  23.125  0.00  0.00    +0.000 A 
ATOM     24  C   UNL     1      -0.908  11.570  22.238  0.00  0.00    +0.000 A 
ENDBRANCH  11  18
BRANCH   1  26
ATOM     25  C   UNL     1       1.539   2.636  21.592  0.00  0.00    +0.000 C 
ATOM     26  O   UNL     1       2.900   2.502  21.183  0.00  0.00    +0.000 OA
ENDBRANCH   1  26
TORSDOF 2
ENDMDL
MODEL 2
REMARK VINA RESULT:      -7.7      3.990      9.332
REMARK  Name = 
REMARK  3 active torsions:
REMARK  status: ('A' for Active; 'I' for Inactive)
REMARK    1  A    between atoms: C_1  and  O_2
REMARK    2  A    between atoms: O_2  and  C_3
REMARK    3  A    between atoms: C_13  and  C_15
REMARK                            x       y       z     vdW  Elec       q    Type
REMARK                         _______ _______ _______ _____ _____    ______ ____
ROOT
ATOM      1  C   UNL     1      -0.998  13.248  20.283  0.00  0.00    +0.000 A 
ATOM      2  C   UNL     1      -1.543  13.352  21.566  0.00  0.00    +0.000 A 
ATOM      3  C   UNL     1      -1.359  12.330  22.489  0.00  0.00    +0.000 A 
ATOM      4  C   UNL     1      -0.649  11.182  22.126  0.00  0.00    +0.000 A 
ATOM      5  C   UNL     1      -0.102  11.047  20.820  0.00  0.00    +0.000 A 
ATOM      6  C   UNL     1      -0.286  12.092  19.904  0.00  0.00    +0.000 A 
ATOM      7  C   UNL     1       0.572   9.784  20.483  0.00  0.00    +0.000 A 
ATOM      8  N   UNL     1       1.428   9.511  19.412  0.00  0.00    +0.000 NA
ATOM      9  C   UNL     1       1.807   8.241  19.472  0.00  0.00    +0.000 A 
ATOM     10  N   UNL     1       2.658   7.622  18.571  0.00  0.00    +0.000 N 
ATOM     11  C   UNL     1       2.808   6.242  18.474  0.00  0.00    +0.000 C 
ATOM     12  O   UNL     1       2.154   5.399  19.083  0.00  0.00    +0.000 OA
ATOM     13  S   UNL     1       1.253   7.372  20.847  0.00  0.00    +0.000 S 
ATOM     14  C   UNL     1       0.373   8.716  21.336  0.00  0.00    +0.000 A 
ATOM     15  C   UNL     1      -0.486   8.711  22.548  0.00  0.00    +0.000 C 
ATOM     16  C   UNL     1      -0.441  10.103  23.172  0.00  0.00    +0.000 C 
ATOM     17  H   UNL     1       3.049   8.234  17.870  0.00  0.00    +0.000 HD
ENDROOT
BRANCH  11  18
ATOM     18  C   UNL     1       3.811   5.691  17.516  0.00  0.00    +0.000 A 
ATOM     19  C   UNL     1       3.996   4.326  17.278  0.00  0.00    +0.000 A 
ATOM     20  C   UNL     1       4.900   3.913  16.284  0.00  0.00    +0.000 A 
ATOM     21  C   UNL     1       5.608   4.851  15.532  0.00  0.00    +0.000 A 
ATOM     22 CL   UNL     1       6.701   4.335  14.309  0.00  0.00    +0.000 Cl
ATOM     23  C   UNL     1       5.425   6.211  15.756  0.00  0.00    +0.000 A 
ATOM     24  C   UNL     1       4.527   6.625  16.740  0.00  0.00    +0.000 A 
ENDBRANCH  11  18
BRANCH   1  26
ATOM     25  C   UNL     1      -0.084  15.163  19.223  0.00  0.00    +0.000 C 
ATOM     26  O   UNL     1      -1.145  14.211  19.316  0.00  0.00    +0.000 OA
ENDBRANCH   1  26
TORSDOF 2
ENDMDL
MODEL 3
REMARK VINA RESULT:      -7.7      0.955      1.155
REMARK  Name = 
REMARK  3 active torsions:
REMARK  status: ('A' for Active; 'I' for Inactive)
REMARK    1  A    between atoms: C_1  and  O_2
REMARK    2  A    between atoms: O_2  and  C_3
REMARK    3  A    between atoms: C_13  and  C_15
REMARK                            x       y       z     vdW  Elec       q    Type
REMARK                         _______ _______ _______ _____ _____    ______ ____
ROOT
ATOM      1  C   UNL     1       3.049   3.626  20.359  0.00  0.00    +0.000 A 
ATOM      2  C   UNL     1       3.898   3.384  19.274  0.00  0.00    +0.000 A 
ATOM      3  C   UNL     1       4.204   4.405  18.384  0.00  0.00    +0.000 A 
ATOM      4  C   UNL     1       3.640   5.673  18.557  0.00  0.00    +0.000 A 
ATOM      5  C   UNL     1       2.759   5.936  19.642  0.00  0.00    +0.000 A 
ATOM      6  C   UNL     1       2.470   4.898  20.539  0.00  0.00    +0.000 A 
ATOM      7  C   UNL     1       2.147   7.271  19.724  0.00  0.00    +0.000 A 
ATOM      8  N   UNL     1       1.504   7.871  20.811  0.00  0.00    +0.000 NA
ATOM      9  C   UNL     1       1.086   9.078  20.456  0.00  0.00    +0.000 A 
ATOM     10  N   UNL     1       0.409   9.960  21.283  0.00  0.00    +0.000 N 
ATOM     11  C   UNL     1      -0.273  11.082  20.821  0.00  0.00    +0.000 C 
ATOM     12  O   UNL     1      -0.452  11.385  19.645  0.00  0.00    +0.000 OA
ATOM     13  S   UNL     1       1.536   9.577  18.874  0.00  0.00    +0.000 S 
ATOM     14  C   UNL     1       2.227   8.072  18.601  0.00  0.00    +0.000 A 
ATOM     15  C   UNL     1       2.846   7.700  17.304  0.00  0.00    +0.000 C 
ATOM     16  C   UNL     1       4.024   6.771  17.583  0.00  0.00    +0.000 C 
ATOM     17  H   UNL     1       0.303   9.648  22.237  0.00  0.00    +0.000 HD
ENDROOT
BRANCH  11  18
ATOM     18  C   UNL     1      -0.905  12.001  21.813  0.00  0.00    +0.000 A 
ATOM     19  C   UNL     1      -1.961  11.637  22.653  0.00  0.00    +0.000 A 
ATOM     20  C   UNL     1      -2.422  12.548  23.620  0.00  0.00    +0.000 A 
ATOM     21  C   UNL     1      -1.831  13.805  23.751  0.00  0.00    +0.000 A 
ATOM     22 CL   UNL     1      -2.393  14.905  24.947  0.00  0.00    +0.000 Cl
ATOM     23  C   UNL     1      -0.775  14.173  22.926  0.00  0.00    +0.000 A 
ATOM     24  C   UNL     1      -0.313  13.271  21.966  0.00  0.00    +0.000 A 
ENDBRANCH  11  18
BRANCH   1  26
ATOM     25  C   UNL     1       1.332   2.687  21.698  0.00  0.00    +0.000 C 
ATOM     26  O   UNL     1       2.695   2.665  21.273  0.00  0.00    +0.000 OA
ENDBRANCH   1  26
TORSDOF 2
ENDMDL
MODEL 4
REMARK VINA RESULT:      -7.7      2.734      3.821
REMARK  Name = 
REMARK  3 active torsions:
REMARK  status: ('A' for Active; 'I' for Inactive)
REMARK    1  A    between atoms: C_1  and  O_2
REMARK    2  A    between atoms: O_2  and  C_3
REMARK    3  A    between atoms: C_13  and  C_15
REMARK                            x       y       z     vdW  Elec       q    Type
REMARK                         _______ _______ _______ _____ _____    ______ ____
ROOT
ATOM      1  C   UNL     1       5.200   5.343  16.126  0.00  0.00    +0.000 A 
ATOM      2  C   UNL     1       5.065   4.015  16.543  0.00  0.00    +0.000 A 
ATOM      3  C   UNL     1       4.177   3.689  17.560  0.00  0.00    +0.000 A 
ATOM      4  C   UNL     1       3.435   4.694  18.186  0.00  0.00    +0.000 A 
ATOM      5  C   UNL     1       3.571   6.054  17.791  0.00  0.00    +0.000 A 
ATOM      6  C   UNL     1       4.462   6.365  16.755  0.00  0.00    +0.000 A 
ATOM      7  C   UNL     1       2.813   7.068  18.541  0.00  0.00    +0.000 A 
ATOM      8  N   UNL     1       2.540   8.392  18.185  0.00  0.00    +0.000 NA
ATOM      9  C   UNL     1       1.835   8.964  19.151  0.00  0.00    +0.000 A 
ATOM     10  N   UNL     1       1.386  10.275  19.138  0.00  0.00    +0.000 N 
ATOM     11  C   UNL     1       0.914  10.941  20.265  0.00  0.00    +0.000 C 
ATOM     12  O   UNL     1       0.922  10.510  21.415  0.00  0.00    +0.000 OA
ATOM     13  S   UNL     1       1.385   7.929  20.447  0.00  0.00    +0.000 S 
ATOM     14  C   UNL     1       2.263   6.680  19.747  0.00  0.00    +0.000 A 
ATOM     15  C   UNL     1       2.391   5.342  20.378  0.00  0.00    +0.000 C 
ATOM     16  C   UNL     1       2.452   4.294  19.271  0.00  0.00    +0.000 C 
ATOM     17  H   UNL     1       1.574  10.777  18.282  0.00  0.00    +0.000 HD
ENDROOT
BRANCH  11  18
ATOM     18  C   UNL     1       0.386  12.328  20.115  0.00  0.00    +0.000 A 
ATOM     19  C   UNL     1       0.251  13.232  21.173  0.00  0.00    +0.000 A 
ATOM     20  C   UNL     1      -0.166  14.548  20.911  0.00  0.00    +0.000 A 
ATOM     21  C   UNL     1      -0.440  14.961  19.607  0.00  0.00    +0.000 A 
ATOM     22 CL   UNL     1      -0.935  16.578  19.296  0.00  0.00    +0.000 Cl
ATOM     23  C   UNL     1      -0.301  14.073  18.547  0.00  0.00    +0.000 A 
ATOM     24  C   UNL     1       0.114  12.765  18.802  0.00  0.00    +0.000 A 
ENDBRANCH  11  18
BRANCH   1  26
ATOM     25  C   UNL     1       6.656   4.693  14.370  0.00  0.00    +0.000 C 
ATOM     26  O   UNL     1       6.062   5.742  15.135  0.00  0.00    +0.000 OA
ENDBRANCH   1  26
TORSDOF 2
ENDMDL
MODEL 5
REMARK VINA RESULT:      -7.7      2.483      3.572
REMARK  Name = 
REMARK  3 active torsions:
REMARK  status: ('A' for Active; 'I' for Inactive)
REMARK    1  A    between atoms: C_1  and  O_2
REMARK    2  A    between atoms: O_2  and  C_3
REMARK    3  A    between atoms: C_13  and  C_15
REMARK                            x       y       z     vdW  Elec       q    Type
REMARK                         _______ _______ _______ _____ _____    ______ ____
ROOT
ATOM      1  C   UNL     1       5.263   5.286  16.029  0.00  0.00    +0.000 A 
ATOM      2  C   UNL     1       5.186   3.894  16.138  0.00  0.00    +0.000 A 
ATOM      3  C   UNL     1       4.325   3.310  17.059  0.00  0.00    +0.000 A 
ATOM      4  C   UNL     1       3.553   4.117  17.899  0.00  0.00    +0.000 A 
ATOM      5  C   UNL     1       3.630   5.535  17.820  0.00  0.00    +0.000 A 
ATOM      6  C   UNL     1       4.493   6.108  16.876  0.00  0.00    +0.000 A 
ATOM      7  C   UNL     1       2.843   6.323  18.782  0.00  0.00    +0.000 A 
ATOM      8  N   UNL     1       2.513   7.680  18.734  0.00  0.00    +0.000 NA
ATOM      9  C   UNL     1       1.799   7.991  19.808  0.00  0.00    +0.000 A 
ATOM     10  N   UNL     1       1.298   9.251  20.092  0.00  0.00    +0.000 N 
ATOM     11  C   UNL     1       0.816   9.626  21.342  0.00  0.00    +0.000 C 
ATOM     12  O   UNL     1       0.858   8.949  22.366  0.00  0.00    +0.000 OA
ATOM     13  S   UNL     1       1.409   6.673  20.840  0.00  0.00    +0.000 S 
ATOM     14  C   UNL     1       2.326   5.651  19.872  0.00  0.00    +0.000 A 
ATOM     15  C   UNL     1       2.515   4.212  20.185  0.00  0.00    +0.000 C 
ATOM     16  C   UNL     1       2.602   3.443  18.870  0.00  0.00    +0.000 C 
ATOM     17  H   UNL     1       1.454   9.940  19.371  0.00  0.00    +0.000 HD
ENDROOT
BRANCH  11  18
ATOM     18  C   UNL     1       0.232  10.989  21.511  0.00  0.00    +0.000 A 
ATOM     19  C   UNL     1       0.433  12.042  20.614  0.00  0.00    +0.000 A 
ATOM     20  C   UNL     1      -0.240  13.260  20.813  0.00  0.00    +0.000 A 
ATOM     21  C   UNL     1      -1.109  13.424  21.892  0.00  0.00    +0.000 A 
ATOM     22 CL   UNL     1      -1.939  14.913  22.118  0.00  0.00    +0.000 Cl
ATOM     23  C   UNL     1      -1.323  12.380  22.785  0.00  0.00    +0.000 A 
ATOM     24  C   UNL     1      -0.657  11.168  22.590  0.00  0.00    +0.000 A 
ENDBRANCH  11  18
BRANCH   1  26
ATOM     25  C   UNL     1       6.987   5.098  14.412  0.00  0.00    +0.000 C 
ATOM     26  O   UNL     1       6.094   5.933  15.149  0.00  0.00    +0.000 OA
ENDBRANCH   1  26
TORSDOF 2
ENDMDL
MODEL 6
REMARK VINA RESULT:      -7.6      1.414      1.964
REMARK  Name = 
REMARK  3 active torsions:
REMARK  status: ('A' for Active; 'I' for Inactive)
REMARK    1  A    between atoms: C_1  and  O_2
REMARK    2  A    between atoms: O_2  and  C_3
REMARK    3  A    between atoms: C_13  and  C_15
REMARK                            x       y       z     vdW  Elec       q    Type
REMARK                         _______ _______ _______ _____ _____    ______ ____
ROOT
ATOM      1  C   UNL     1       2.539   4.630  20.743  0.00  0.00    +0.000 A 
ATOM      2  C   UNL     1       3.317   4.405  19.603  0.00  0.00    +0.000 A 
ATOM      3  C   UNL     1       3.518   5.423  18.680  0.00  0.00    +0.000 A 
ATOM      4  C   UNL     1       2.919   6.671  18.878  0.00  0.00    +0.000 A 
ATOM      5  C   UNL     1       2.108   6.917  20.020  0.00  0.00    +0.000 A 
ATOM      6  C   UNL     1       1.925   5.883  20.948  0.00  0.00    +0.000 A 
ATOM      7  C   UNL     1       1.452   8.229  20.129  0.00  0.00    +0.000 A 
ATOM      8  N   UNL     1       0.865   8.820  21.251  0.00  0.00    +0.000 NA
ATOM      9  C   UNL     1       0.376  10.005  20.912  0.00  0.00    +0.000 A 
ATOM     10  N   UNL     1      -0.275  10.873  21.774  0.00  0.00    +0.000 N 
ATOM     11  C   UNL     1      -1.031  11.961  21.348  0.00  0.00    +0.000 C 
ATOM     12  O   UNL     1      -1.305  12.239  20.184  0.00  0.00    +0.000 OA
ATOM     13  S   UNL     1       0.692  10.497  19.296  0.00  0.00    +0.000 S 
ATOM     14  C   UNL     1       1.420   9.014  18.993  0.00  0.00    +0.000 A 
ATOM     15  C   UNL     1       1.959   8.647  17.659  0.00  0.00    +0.000 C 
ATOM     16  C   UNL     1       3.189   7.767  17.864  0.00  0.00    +0.000 C 
ATOM     17  H   UNL     1      -0.299  10.572  22.737  0.00  0.00    +0.000 HD
ENDROOT
BRANCH  11  18
ATOM     18  C   UNL     1      -1.625  12.870  22.371  0.00  0.00    +0.000 A 
ATOM     19  C   UNL     1      -2.896  12.697  22.927  0.00  0.00    +0.000 A 
ATOM     20  C   UNL     1      -3.326  13.555  23.954  0.00  0.00    +0.000 A 
ATOM     21  C   UNL     1      -2.495  14.571  24.426  0.00  0.00    +0.000 A 
ATOM     22 CL   UNL     1      -3.025  15.606  25.693  0.00  0.00    +0.000 Cl
ATOM     23  C   UNL     1      -1.226  14.747  23.885  0.00  0.00    +0.000 A 
ATOM     24  C   UNL     1      -0.795  13.896  22.866  0.00  0.00    +0.000 A 
ENDBRANCH  11  18
BRANCH   1  26
ATOM     25  C   UNL     1       1.505   2.560  21.259  0.00  0.00    +0.000 C 
ATOM     26  O   UNL     1       2.289   3.672  21.693  0.00  0.00    +0.000 OA
ENDBRANCH   1  26
TORSDOF 2
ENDMDL
MODEL 7
REMARK VINA RESULT:      -7.6      4.008      9.314
REMARK  Name = 
REMARK  3 active torsions:
REMARK  status: ('A' for Active; 'I' for Inactive)
REMARK    1  A    between atoms: C_1  and  O_2
REMARK    2  A    between atoms: O_2  and  C_3
REMARK    3  A    between atoms: C_13  and  C_15
REMARK                            x       y       z     vdW  Elec       q    Type
REMARK                         _______ _______ _______ _____ _____    ______ ____
ROOT
ATOM      1  C   UNL     1      -1.109  13.419  20.523  0.00  0.00    +0.000 A 
ATOM      2  C   UNL     1      -1.625  13.485  21.822  0.00  0.00    +0.000 A 
ATOM      3  C   UNL     1      -1.415  12.440  22.712  0.00  0.00    +0.000 A 
ATOM      4  C   UNL     1      -0.708  11.306  22.302  0.00  0.00    +0.000 A 
ATOM      5  C   UNL     1      -0.192  11.208  20.980  0.00  0.00    +0.000 A 
ATOM      6  C   UNL     1      -0.401  12.277  20.097  0.00  0.00    +0.000 A 
ATOM      7  C   UNL     1       0.480   9.958  20.594  0.00  0.00    +0.000 A 
ATOM      8  N   UNL     1       1.311   9.718  19.496  0.00  0.00    +0.000 NA
ATOM      9  C   UNL     1       1.697   8.449  19.513  0.00  0.00    +0.000 A 
ATOM     10  N   UNL     1       2.529   7.858  18.576  0.00  0.00    +0.000 N 
ATOM     11  C   UNL     1       2.683   6.482  18.439  0.00  0.00    +0.000 C 
ATOM     12  O   UNL     1       2.047   5.620  19.040  0.00  0.00    +0.000 OA
ATOM     13  S   UNL     1       1.179   7.540  20.876  0.00  0.00    +0.000 S 
ATOM     14  C   UNL     1       0.305   8.866  21.422  0.00  0.00    +0.000 A 
ATOM     15  C   UNL     1      -0.525   8.825  22.653  0.00  0.00    +0.000 C 
ATOM     16  C   UNL     1      -0.472  10.200  23.313  0.00  0.00    +0.000 C 
ATOM     17  H   UNL     1       2.901   8.491  17.883  0.00  0.00    +0.000 HD
ENDROOT
BRANCH  11  18
ATOM     18  C   UNL     1       3.665   5.962  17.443  0.00  0.00    +0.000 A 
ATOM     19  C   UNL     1       4.542   6.771  16.714  0.00  0.00    +0.000 A 
ATOM     20  C   UNL     1       5.495   6.174  15.870  0.00  0.00    +0.000 A 
ATOM     21  C   UNL     1       5.577   4.786  15.760  0.00  0.00    +0.000 A 
ATOM     22 CL   UNL     1       6.757   4.066  14.736  0.00  0.00    +0.000 Cl
ATOM     23  C   UNL     1       4.715   3.973  16.486  0.00  0.00    +0.000 A 
ATOM     24  C   UNL     1       3.768   4.561  17.327  0.00  0.00    +0.000 A 
ENDBRANCH  11  18
BRANCH   1  26
ATOM     25  C   UNL     1      -0.085  14.967  19.048  0.00  0.00    +0.000 C 
ATOM     26  O   UNL     1      -1.283  14.407  19.587  0.00  0.00    +0.000 OA
ENDBRANCH   1  26
TORSDOF 2
ENDMDL
MODEL 8
REMARK VINA RESULT:      -7.5      2.472      3.472
REMARK  Name = 
REMARK  3 active torsions:
REMARK  status: ('A' for Active; 'I' for Inactive)
REMARK    1  A    between atoms: C_1  and  O_2
REMARK    2  A    between atoms: O_2  and  C_3
REMARK    3  A    between atoms: C_13  and  C_15
REMARK                            x       y       z     vdW  Elec       q    Type
REMARK                         _______ _______ _______ _____ _____    ______ ____
ROOT
ATOM      1  C   UNL     1       4.979   5.430  16.341  0.00  0.00    +0.000 A 
ATOM      2  C   UNL     1       4.856   4.093  16.732  0.00  0.00    +0.000 A 
ATOM      3  C   UNL     1       3.980   3.739  17.749  0.00  0.00    +0.000 A 
ATOM      4  C   UNL     1       3.238   4.725  18.405  0.00  0.00    +0.000 A 
ATOM      5  C   UNL     1       3.361   6.094  18.038  0.00  0.00    +0.000 A 
ATOM      6  C   UNL     1       4.240   6.434  17.000  0.00  0.00    +0.000 A 
ATOM      7  C   UNL     1       2.604   7.087  18.816  0.00  0.00    +0.000 A 
ATOM      8  N   UNL     1       2.319   8.416  18.491  0.00  0.00    +0.000 NA
ATOM      9  C   UNL     1       1.620   8.963  19.477  0.00  0.00    +0.000 A 
ATOM     10  N   UNL     1       1.162  10.271  19.496  0.00  0.00    +0.000 N 
ATOM     11  C   UNL     1       0.696  10.908  20.641  0.00  0.00    +0.000 C 
ATOM     12  O   UNL     1       0.719  10.453  21.782  0.00  0.00    +0.000 OA
ATOM     13  S   UNL     1       1.189   7.897  20.754  0.00  0.00    +0.000 S 
ATOM     14  C   UNL     1       2.068   6.669  20.019  0.00  0.00    +0.000 A 
ATOM     15  C   UNL     1       2.211   5.319  20.620  0.00  0.00    +0.000 C 
ATOM     16  C   UNL     1       2.268   4.295  19.490  0.00  0.00    +0.000 C 
ATOM     17  H   UNL     1       1.338  10.792  18.649  0.00  0.00    +0.000 HD
ENDROOT
BRANCH  11  18
ATOM     18  C   UNL     1       0.158  12.296  20.526  0.00  0.00    +0.000 A 
ATOM     19  C   UNL     1       0.136  13.029  19.336  0.00  0.00    +0.000 A 
ATOM     20  C   UNL     1      -0.480  14.292  19.313  0.00  0.00    +0.000 A 
ATOM     21  C   UNL     1      -1.074  14.815  20.462  0.00  0.00    +0.000 A 
ATOM     22 CL   UNL     1      -1.839  16.355  20.418  0.00  0.00    +0.000 Cl
ATOM     23  C   UNL     1      -1.065  14.090  21.648  0.00  0.00    +0.000 A 
ATOM     24  C   UNL     1      -0.456  12.835  21.675  0.00  0.00    +0.000 A 
ENDBRANCH  11  18
BRANCH   1  26
ATOM     25  C   UNL     1       6.698   4.861  14.810  0.00  0.00    +0.000 C 
ATOM     26  O   UNL     1       5.829   5.857  15.351  0.00  0.00    +0.000 OA
ENDBRANCH   1  26
TORSDOF 2
ENDMDL
MODEL 9
REMARK VINA RESULT:      -7.5      2.648      3.879
REMARK  Name = 
REMARK  3 active torsions:
REMARK  status: ('A' for Active; 'I' for Inactive)
REMARK    1  A    between atoms: C_1  and  O_2
REMARK    2  A    between atoms: O_2  and  C_3
REMARK    3  A    between atoms: C_13  and  C_15
REMARK                            x       y       z     vdW  Elec       q    Type
REMARK                         _______ _______ _______ _____ _____    ______ ____
ROOT
ATOM      1  C   UNL     1       5.554   5.184  15.717  0.00  0.00    +0.000 A 
ATOM      2  C   UNL     1       5.543   3.789  15.813  0.00  0.00    +0.000 A 
ATOM      3  C   UNL     1       4.729   3.158  16.744  0.00  0.00    +0.000 A 
ATOM      4  C   UNL     1       3.937   3.921  17.608  0.00  0.00    +0.000 A 
ATOM      5  C   UNL     1       3.947   5.341  17.541  0.00  0.00    +0.000 A 
ATOM      6  C   UNL     1       4.764   5.962  16.587  0.00  0.00    +0.000 A 
ATOM      7  C   UNL     1       3.143   6.083  18.525  0.00  0.00    +0.000 A 
ATOM      8  N   UNL     1       2.750   7.424  18.498  0.00  0.00    +0.000 NA
ATOM      9  C   UNL     1       2.044   7.691  19.588  0.00  0.00    +0.000 A 
ATOM     10  N   UNL     1       1.491   8.925  19.895  0.00  0.00    +0.000 N 
ATOM     11  C   UNL     1       1.017   9.265  21.157  0.00  0.00    +0.000 C 
ATOM     12  O   UNL     1       1.109   8.582  22.173  0.00  0.00    +0.000 OA
ATOM     13  S   UNL     1       1.735   6.348  20.613  0.00  0.00    +0.000 S 
ATOM     14  C   UNL     1       2.678   5.378  19.619  0.00  0.00    +0.000 A 
ATOM     15  C   UNL     1       2.940   3.946  19.914  0.00  0.00    +0.000 C 
ATOM     16  C   UNL     1       3.037   3.194  18.589  0.00  0.00    +0.000 C 
ATOM     17  H   UNL     1       1.601   9.627  19.177  0.00  0.00    +0.000 HD
ENDROOT
BRANCH  11  18
ATOM     18  C   UNL     1       0.374  10.598  21.351  0.00  0.00    +0.000 A 
ATOM     19  C   UNL     1      -0.527  10.889  22.380  0.00  0.00    +0.000 A 
ATOM     20  C   UNL     1      -1.003  12.203  22.532  0.00  0.00    +0.000 A 
ATOM     21  C   UNL     1      -0.581  13.217  21.671  0.00  0.00    +0.000 A 
ATOM     22 CL   UNL     1      -1.158  14.823  21.876  0.00  0.00    +0.000 Cl
ATOM     23  C   UNL     1       0.320  12.939  20.650  0.00  0.00    +0.000 A 
ATOM     24  C   UNL     1       0.797  11.636  20.496  0.00  0.00    +0.000 A 
ENDBRANCH  11  18
BRANCH   1  26
ATOM     25  C   UNL     1       7.259   5.091  14.072  0.00  0.00    +0.000 C 
ATOM     26  O   UNL     1       6.338   5.877  14.828  0.00  0.00    +0.000 OA
ENDBRANCH   1  26
TORSDOF 2
ENDMDL
