MODEL 1
REMARK VINA RESULT:      -7.1      0.000      0.000
REMARK  Name = 
REMARK  7 active torsions:
REMARK  status: ('A' for Active; 'I' for Inactive)
REMARK    1  A    between atoms: C_1  and  C_2
REMARK    2  A    between atoms: C_2  and  C_3
REMARK    3  A    between atoms: N_5  and  C_6
REMARK    4  A    between atoms: N_5  and  C_12
REMARK    5  A    between atoms: N_15  and  C_16
REMARK    6  A    between atoms: C_16  and  C_17
REMARK    7  A    between atoms: C_17  and  C_19
REMARK                            x       y       z     vdW  Elec       q    Type
REMARK                         _______ _______ _______ _____ _____    ______ ____
ROOT
ATOM      1  C   UNL     1       5.295   6.355  18.282  0.00  0.00    +0.000 C 
ATOM      2  C   UNL     1       5.775   7.060  16.987  0.00  0.00    +0.000 C 
ATOM      3  C   UNL     1       5.731   6.082  15.817  0.00  0.00    +0.000 C 
ATOM      4  N   UNL     1       6.697   4.992  16.021  0.00  0.00    +0.000 NA
ATOM      5  C   UNL     1       6.554   4.347  17.338  0.00  0.00    +0.000 C 
ATOM      6  C   UNL     1       6.450   5.342  18.495  0.00  0.00    +0.000 C 
ENDROOT
BRANCH   1   9
ATOM      7  C   UNL     1       2.713   6.605  18.003  0.00  0.00    +0.000 C 
ATOM      8  O   UNL     1       1.571   6.143  17.905  0.00  0.00    +0.000 OA
ATOM      9  N   UNL     1       3.872   5.810  18.208  0.00  0.00    +0.000 N 
BRANCH   9  10
ATOM     10  C   UNL     1       3.638   4.397  18.473  0.00  0.00    +0.000 A 
ATOM     11  C   UNL     1       3.570   3.924  19.794  0.00  0.00    +0.000 A 
ATOM     12  C   UNL     1       3.251   2.591  20.080  0.00  0.00    +0.000 A 
ATOM     13  C   UNL     1       2.962   1.706  19.049  0.00  0.00    +0.000 A 
ATOM     14  C   UNL     1       3.055   2.143  17.732  0.00  0.00    +0.000 A 
ATOM     15  C   UNL     1       3.438   3.464  17.447  0.00  0.00    +0.000 A 
ENDBRANCH   9  10
BRANCH   7  17
ATOM     16  C   UNL     1       1.610   8.877  18.272  0.00  0.00    +0.000 C 
ATOM     17  C   UNL     1       2.872   8.113  17.898  0.00  0.00    +0.000 C 
ENDBRANCH   7  17
ENDBRANCH   1   9
BRANCH   4  18
ATOM     18  C   UNL     1       6.549   3.995  14.929  0.00  0.00    +0.000 C 
BRANCH  18  19
ATOM     19  C   UNL     1       6.579   4.569  13.490  0.00  0.00    +0.000 C 
ATOM     20  F   UNL     1       7.756   5.243  13.298  0.00  0.00    +0.000 F 
BRANCH  19  21
ATOM     21  C   UNL     1       6.449   3.472  12.472  0.00  0.00    +0.000 A 
ATOM     22  C   UNL     1       7.591   2.858  11.939  0.00  0.00    +0.000 A 
ATOM     23  C   UNL     1       7.471   1.848  10.983  0.00  0.00    +0.000 A 
ATOM     24  C   UNL     1       6.207   1.437  10.561  0.00  0.00    +0.000 A 
ATOM     25  C   UNL     1       5.064   2.036  11.096  0.00  0.00    +0.000 A 
ATOM     26  C   UNL     1       5.193   3.039  12.049  0.00  0.00    +0.000 A 
ATOM     27  F   UNL     1       4.088   3.599  12.561  0.00  0.00    +0.000 F 
ENDBRANCH  19  21
ENDBRANCH  18  19
ENDBRANCH   4  18
TORSDOF 6
ENDMDL
MODEL 2
REMARK VINA RESULT:      -7.1      2.994      7.701
REMARK  Name = 
REMARK  7 active torsions:
REMARK  status: ('A' for Active; 'I' for Inactive)
REMARK    1  A    between atoms: C_1  and  C_2
REMARK    2  A    between atoms: C_2  and  C_3
REMARK    3  A    between atoms: N_5  and  C_6
REMARK    4  A    between atoms: N_5  and  C_12
REMARK    5  A    between atoms: N_15  and  C_16
REMARK    6  A    between atoms: C_16  and  C_17
REMARK    7  A    between atoms: C_17  and  C_19
REMARK                            x       y       z     vdW  Elec       q    Type
REMARK                         _______ _______ _______ _____ _____    ______ ____
ROOT
ATOM      1  C   UNL     1       5.589   3.833  17.726  0.00  0.00    +0.000 C 
ATOM      2  C   UNL     1       4.227   3.301  17.209  0.00  0.00    +0.000 C 
ATOM      3  C   UNL     1       3.222   4.446  17.123  0.00  0.00    +0.000 C 
ATOM      4  N   UNL     1       2.925   4.970  18.465  0.00  0.00    +0.000 NA
ATOM      5  C   UNL     1       4.143   5.307  19.224  0.00  0.00    +0.000 C 
ATOM      6  C   UNL     1       5.208   4.210  19.181  0.00  0.00    +0.000 C 
ENDROOT
BRANCH   1   9
ATOM      7  C   UNL     1       6.315   4.844  15.433  0.00  0.00    +0.000 C 
ATOM      8  O   UNL     1       6.789   5.746  14.733  0.00  0.00    +0.000 OA
ATOM      9  N   UNL     1       6.214   4.912  16.848  0.00  0.00    +0.000 N 
BRANCH   9  10
ATOM     10  C   UNL     1       6.861   6.055  17.479  0.00  0.00    +0.000 A 
ATOM     11  C   UNL     1       7.767   5.863  18.536  0.00  0.00    +0.000 A 
ATOM     12  C   UNL     1       8.475   6.932  19.099  0.00  0.00    +0.000 A 
ATOM     13  C   UNL     1       8.316   8.216  18.593  0.00  0.00    +0.000 A 
ATOM     14  C   UNL     1       7.401   8.435  17.569  0.00  0.00    +0.000 A 
ATOM     15  C   UNL     1       6.645   7.371  17.052  0.00  0.00    +0.000 A 
ENDBRANCH   9  10
BRANCH   7  17
ATOM     16  C   UNL     1       6.009   3.642  13.217  0.00  0.00    +0.000 C 
ATOM     17  C   UNL     1       5.819   3.593  14.726  0.00  0.00    +0.000 C 
ENDBRANCH   7  17
ENDBRANCH   1   9
BRANCH   4  18
ATOM     18  C   UNL     1       2.038   6.157  18.341  0.00  0.00    +0.000 C 
BRANCH  18  19
ATOM     19  C   UNL     1       2.732   7.531  18.517  0.00  0.00    +0.000 C 
ATOM     20  F   UNL     1       3.273   7.919  17.319  0.00  0.00    +0.000 F 
BRANCH  19  21
ATOM     21  C   UNL     1       1.755   8.568  18.993  0.00  0.00    +0.000 A 
ATOM     22  C   UNL     1       1.298   9.568  18.123  0.00  0.00    +0.000 A 
ATOM     23  C   UNL     1       0.401  10.539  18.569  0.00  0.00    +0.000 A 
ATOM     24  C   UNL     1      -0.055  10.511  19.886  0.00  0.00    +0.000 A 
ATOM     25  C   UNL     1       0.386   9.512  20.757  0.00  0.00    +0.000 A 
ATOM     26  C   UNL     1       1.278   8.548  20.303  0.00  0.00    +0.000 A 
ATOM     27  F   UNL     1       1.686   7.588  21.146  0.00  0.00    +0.000 F 
ENDBRANCH  19  21
ENDBRANCH  18  19
ENDBRANCH   4  18
TORSDOF 6
ENDMDL
MODEL 3
REMARK VINA RESULT:      -6.9      2.950      7.791
REMARK  Name = 
REMARK  7 active torsions:
REMARK  status: ('A' for Active; 'I' for Inactive)
REMARK    1  A    between atoms: C_1  and  C_2
REMARK    2  A    between atoms: C_2  and  C_3
REMARK    3  A    between atoms: N_5  and  C_6
REMARK    4  A    between atoms: N_5  and  C_12
REMARK    5  A    between atoms: N_15  and  C_16
REMARK    6  A    between atoms: C_16  and  C_17
REMARK    7  A    between atoms: C_17  and  C_19
REMARK                            x       y       z     vdW  Elec       q    Type
REMARK                         _______ _______ _______ _____ _____    ______ ____
ROOT
ATOM      1  C   UNL     1       5.524   3.803  17.673  0.00  0.00    +0.000 C 
ATOM      2  C   UNL     1       4.141   3.322  17.164  0.00  0.00    +0.000 C 
ATOM      3  C   UNL     1       3.168   4.496  17.118  0.00  0.00    +0.000 C 
ATOM      4  N   UNL     1       2.905   5.000  18.474  0.00  0.00    +0.000 NA
ATOM      5  C   UNL     1       4.142   5.285  19.223  0.00  0.00    +0.000 C 
ATOM      6  C   UNL     1       5.175   4.160  19.141  0.00  0.00    +0.000 C 
ENDROOT
BRANCH   1   9
ATOM      7  C   UNL     1       6.275   4.828  15.394  0.00  0.00    +0.000 C 
ATOM      8  O   UNL     1       6.764   5.731  14.706  0.00  0.00    +0.000 OA
ATOM      9  N   UNL     1       6.168   4.883  16.810  0.00  0.00    +0.000 N 
BRANCH   9  10
ATOM     10  C   UNL     1       6.827   6.011  17.455  0.00  0.00    +0.000 A 
ATOM     11  C   UNL     1       7.770   5.793  18.475  0.00  0.00    +0.000 A 
ATOM     12  C   UNL     1       8.489   6.849  19.047  0.00  0.00    +0.000 A 
ATOM     13  C   UNL     1       8.302   8.147  18.589  0.00  0.00    +0.000 A 
ATOM     14  C   UNL     1       7.352   8.392  17.605  0.00  0.00    +0.000 A 
ATOM     15  C   UNL     1       6.587   7.338  17.079  0.00  0.00    +0.000 A 
ENDBRANCH   9  10
BRANCH   7  17
ATOM     16  C   UNL     1       6.131   3.567  13.194  0.00  0.00    +0.000 C 
ATOM     17  C   UNL     1       5.766   3.592  14.672  0.00  0.00    +0.000 C 
ENDBRANCH   7  17
ENDBRANCH   1   9
BRANCH   4  18
ATOM     18  C   UNL     1       2.051   6.214  18.389  0.00  0.00    +0.000 C 
BRANCH  18  19
ATOM     19  C   UNL     1       2.695   7.522  18.911  0.00  0.00    +0.000 C 
ATOM     20  F   UNL     1       3.277   8.187  17.865  0.00  0.00    +0.000 F 
BRANCH  19  21
ATOM     21  C   UNL     1       1.667   8.402  19.565  0.00  0.00    +0.000 A 
ATOM     22  C   UNL     1       1.365   8.253  20.926  0.00  0.00    +0.000 A 
ATOM     23  C   UNL     1       0.400   9.060  21.529  0.00  0.00    +0.000 A 
ATOM     24  C   UNL     1      -0.262  10.031  20.779  0.00  0.00    +0.000 A 
ATOM     25  C   UNL     1       0.042  10.194  19.425  0.00  0.00    +0.000 A 
ATOM     26  C   UNL     1       1.005   9.387  18.833  0.00  0.00    +0.000 A 
ATOM     27  F   UNL     1       1.293   9.559  17.535  0.00  0.00    +0.000 F 
ENDBRANCH  19  21
ENDBRANCH  18  19
ENDBRANCH   4  18
TORSDOF 6
ENDMDL
MODEL 4
REMARK VINA RESULT:      -6.7      3.140      7.958
REMARK  Name = 
REMARK  7 active torsions:
REMARK  status: ('A' for Active; 'I' for Inactive)
REMARK    1  A    between atoms: C_1  and  C_2
REMARK    2  A    between atoms: C_2  and  C_3
REMARK    3  A    between atoms: N_5  and  C_6
REMARK    4  A    between atoms: N_5  and  C_12
REMARK    5  A    between atoms: N_15  and  C_16
REMARK    6  A    between atoms: C_16  and  C_17
REMARK    7  A    between atoms: C_17  and  C_19
REMARK                            x       y       z     vdW  Elec       q    Type
REMARK                         _______ _______ _______ _____ _____    ______ ____
ROOT
ATOM      1  C   UNL     1       4.972   3.728  17.183  0.00  0.00    +0.000 C 
ATOM      2  C   UNL     1       3.460   3.985  16.963  0.00  0.00    +0.000 C 
ATOM      3  C   UNL     1       3.095   5.384  17.452  0.00  0.00    +0.000 C 
ATOM      4  N   UNL     1       3.275   5.483  18.907  0.00  0.00    +0.000 NA
ATOM      5  C   UNL     1       4.608   5.032  19.345  0.00  0.00    +0.000 C 
ATOM      6  C   UNL     1       5.029   3.696  18.732  0.00  0.00    +0.000 C 
ENDROOT
BRANCH   1   9
ATOM      7  C   UNL     1       6.207   4.640  15.073  0.00  0.00    +0.000 C 
ATOM      8  O   UNL     1       6.918   5.467  14.491  0.00  0.00    +0.000 OA
ATOM      9  N   UNL     1       5.887   4.709  16.456  0.00  0.00    +0.000 N 
BRANCH   9  10
ATOM     10  C   UNL     1       6.585   5.732  17.222  0.00  0.00    +0.000 A 
ATOM     11  C   UNL     1       7.573   5.371  18.153  0.00  0.00    +0.000 A 
ATOM     12  C   UNL     1       8.327   6.335  18.834  0.00  0.00    +0.000 A 
ATOM     13  C   UNL     1       8.129   7.685  18.575  0.00  0.00    +0.000 A 
ATOM     14  C   UNL     1       7.134   8.068  17.682  0.00  0.00    +0.000 A 
ATOM     15  C   UNL     1       6.337   7.100  17.050  0.00  0.00    +0.000 A 
ENDBRANCH   9  10
BRANCH   7  17
ATOM     16  C   UNL     1       5.942   3.617  12.764  0.00  0.00    +0.000 C 
ATOM     17  C   UNL     1       5.653   3.488  14.252  0.00  0.00    +0.000 C 
ENDBRANCH   7  17
ENDBRANCH   1   9
BRANCH   4  18
ATOM     18  C   UNL     1       3.027   6.885  19.337  0.00  0.00    +0.000 C 
BRANCH  18  19
ATOM     19  C   UNL     1       1.598   7.183  19.855  0.00  0.00    +0.000 C 
ATOM     20  F   UNL     1       1.457   6.665  21.115  0.00  0.00    +0.000 F 
BRANCH  19  21
ATOM     21  C   UNL     1       1.335   8.662  19.881  0.00  0.00    +0.000 A 
ATOM     22  C   UNL     1       1.050   9.313  21.089  0.00  0.00    +0.000 A 
ATOM     23  C   UNL     1       0.791  10.684  21.111  0.00  0.00    +0.000 A 
ATOM     24  C   UNL     1       0.828  11.417  19.926  0.00  0.00    +0.000 A 
ATOM     25  C   UNL     1       1.124  10.779  18.719  0.00  0.00    +0.000 A 
ATOM     26  C   UNL     1       1.381   9.413  18.707  0.00  0.00    +0.000 A 
ATOM     27  F   UNL     1       1.672   8.815  17.543  0.00  0.00    +0.000 F 
ENDBRANCH  19  21
ENDBRANCH  18  19
ENDBRANCH   4  18
TORSDOF 6
ENDMDL
MODEL 5
REMARK VINA RESULT:      -6.6      3.609      8.194
REMARK  Name = 
REMARK  7 active torsions:
REMARK  status: ('A' for Active; 'I' for Inactive)
REMARK    1  A    between atoms: C_1  and  C_2
REMARK    2  A    between atoms: C_2  and  C_3
REMARK    3  A    between atoms: N_5  and  C_6
REMARK    4  A    between atoms: N_5  and  C_12
REMARK    5  A    between atoms: N_15  and  C_16
REMARK    6  A    between atoms: C_16  and  C_17
REMARK    7  A    between atoms: C_17  and  C_19
REMARK                            x       y       z     vdW  Elec       q    Type
REMARK                         _______ _______ _______ _____ _____    ______ ____
ROOT
ATOM      1  C   UNL     1       4.926   3.879  17.455  0.00  0.00    +0.000 C 
ATOM      2  C   UNL     1       3.414   4.033  17.148  0.00  0.00    +0.000 C 
ATOM      3  C   UNL     1       2.961   5.453  17.473  0.00  0.00    +0.000 C 
ATOM      4  N   UNL     1       3.070   5.711  18.916  0.00  0.00    +0.000 NA
ATOM      5  C   UNL     1       4.402   5.377  19.452  0.00  0.00    +0.000 C 
ATOM      6  C   UNL     1       4.914   4.008  19.000  0.00  0.00    +0.000 C 
ENDROOT
BRANCH   1   9
ATOM      7  C   UNL     1       6.059   4.739  15.267  0.00  0.00    +0.000 C 
ATOM      8  O   UNL     1       6.758   5.539  14.636  0.00  0.00    +0.000 OA
ATOM      9  N   UNL     1       5.825   4.826  16.666  0.00  0.00    +0.000 N 
BRANCH   9  10
ATOM     10  C   UNL     1       6.599   5.831  17.381  0.00  0.00    +0.000 A 
ATOM     11  C   UNL     1       7.543   5.445  18.348  0.00  0.00    +0.000 A 
ATOM     12  C   UNL     1       8.369   6.381  18.982  0.00  0.00    +0.000 A 
ATOM     13  C   UNL     1       8.290   7.725  18.639  0.00  0.00    +0.000 A 
ATOM     14  C   UNL     1       7.341   8.135  17.709  0.00  0.00    +0.000 A 
ATOM     15  C   UNL     1       6.471   7.202  17.123  0.00  0.00    +0.000 A 
ENDBRANCH   9  10
BRANCH   7  17
ATOM     16  C   UNL     1       5.875   3.533  13.039  0.00  0.00    +0.000 C 
ATOM     17  C   UNL     1       5.420   3.600  14.490  0.00  0.00    +0.000 C 
ENDBRANCH   7  17
ENDBRANCH   1   9
BRANCH   4  18
ATOM     18  C   UNL     1       2.737   7.134  19.187  0.00  0.00    +0.000 C 
BRANCH  18  19
ATOM     19  C   UNL     1       1.562   7.371  20.167  0.00  0.00    +0.000 C 
ATOM     20  F   UNL     1       2.003   7.194  21.452  0.00  0.00    +0.000 F 
BRANCH  19  21
ATOM     21  C   UNL     1       1.002   8.756  20.008  0.00  0.00    +0.000 A 
ATOM     22  C   UNL     1       1.416   9.573  18.946  0.00  0.00    +0.000 A 
ATOM     23  C   UNL     1       0.906  10.864  18.806  0.00  0.00    +0.000 A 
ATOM     24  C   UNL     1      -0.030  11.344  19.720  0.00  0.00    +0.000 A 
ATOM     25  C   UNL     1      -0.458  10.533  20.774  0.00  0.00    +0.000 A 
ATOM     26  C   UNL     1       0.054   9.248  20.905  0.00  0.00    +0.000 A 
ATOM     27  F   UNL     1      -0.371   8.476  21.915  0.00  0.00    +0.000 F 
ENDBRANCH  19  21
ENDBRANCH  18  19
ENDBRANCH   4  18
TORSDOF 6
ENDMDL
MODEL 6
REMARK VINA RESULT:      -6.5      0.948      1.355
REMARK  Name = 
REMARK  7 active torsions:
REMARK  status: ('A' for Active; 'I' for Inactive)
REMARK    1  A    between atoms: C_1  and  C_2
REMARK    2  A    between atoms: C_2  and  C_3
REMARK    3  A    between atoms: N_5  and  C_6
REMARK    4  A    between atoms: N_5  and  C_12
REMARK    5  A    between atoms: N_15  and  C_16
REMARK    6  A    between atoms: C_16  and  C_17
REMARK    7  A    between atoms: C_17  and  C_19
REMARK                            x       y       z     vdW  Elec       q    Type
REMARK                         _______ _______ _______ _____ _____    ______ ____
ROOT
ATOM      1  C   UNL     1       5.531   6.385  18.173  0.00  0.00    +0.000 C 
ATOM      2  C   UNL     1       5.963   7.130  16.884  0.00  0.00    +0.000 C 
ATOM      3  C   UNL     1       5.960   6.165  15.702  0.00  0.00    +0.000 C 
ATOM      4  N   UNL     1       6.983   5.124  15.885  0.00  0.00    +0.000 NA
ATOM      5  C   UNL     1       6.884   4.456  17.195  0.00  0.00    +0.000 C 
ATOM      6  C   UNL     1       6.738   5.431  18.364  0.00  0.00    +0.000 C 
ENDROOT
BRANCH   1   9
ATOM      7  C   UNL     1       2.938   6.503  17.902  0.00  0.00    +0.000 C 
ATOM      8  O   UNL     1       1.821   5.983  17.807  0.00  0.00    +0.000 OA
ATOM      9  N   UNL     1       4.138   5.768  18.104  0.00  0.00    +0.000 N 
BRANCH   9  10
ATOM     10  C   UNL     1       3.977   4.345  18.368  0.00  0.00    +0.000 A 
ATOM     11  C   UNL     1       3.966   3.865  19.688  0.00  0.00    +0.000 A 
ATOM     12  C   UNL     1       3.718   2.517  19.978  0.00  0.00    +0.000 A 
ATOM     13  C   UNL     1       3.443   1.624  18.951  0.00  0.00    +0.000 A 
ATOM     14  C   UNL     1       3.480   2.068  17.634  0.00  0.00    +0.000 A 
ATOM     15  C   UNL     1       3.793   3.406  17.345  0.00  0.00    +0.000 A 
ENDBRANCH   9  10
BRANCH   7  17
ATOM     16  C   UNL     1       1.657   8.694  17.815  0.00  0.00    +0.000 C 
ATOM     17  C   UNL     1       3.020   8.017  17.797  0.00  0.00    +0.000 C 
ENDBRANCH   7  17
ENDBRANCH   1   9
BRANCH   4  18
ATOM     18  C   UNL     1       6.878   4.134  14.781  0.00  0.00    +0.000 C 
BRANCH  18  19
ATOM     19  C   UNL     1       6.698   4.730  13.362  0.00  0.00    +0.000 C 
ATOM     20  F   UNL     1       7.929   5.034  12.842  0.00  0.00    +0.000 F 
BRANCH  19  21
ATOM     21  C   UNL     1       5.990   3.761  12.460  0.00  0.00    +0.000 A 
ATOM     22  C   UNL     1       4.613   3.883  12.226  0.00  0.00    +0.000 A 
ATOM     23  C   UNL     1       3.952   2.974  11.399  0.00  0.00    +0.000 A 
ATOM     24  C   UNL     1       4.665   1.943  10.789  0.00  0.00    +0.000 A 
ATOM     25  C   UNL     1       6.039   1.821  11.006  0.00  0.00    +0.000 A 
ATOM     26  C   UNL     1       6.690   2.731  11.831  0.00  0.00    +0.000 A 
ATOM     27  F   UNL     1       8.011   2.609  12.024  0.00  0.00    +0.000 F 
ENDBRANCH  19  21
ENDBRANCH  18  19
ENDBRANCH   4  18
TORSDOF 6
ENDMDL
MODEL 7
REMARK VINA RESULT:      -6.4      4.185      8.132
REMARK  Name = 
REMARK  7 active torsions:
REMARK  status: ('A' for Active; 'I' for Inactive)
REMARK    1  A    between atoms: C_1  and  C_2
REMARK    2  A    between atoms: C_2  and  C_3
REMARK    3  A    between atoms: N_5  and  C_6
REMARK    4  A    between atoms: N_5  and  C_12
REMARK    5  A    between atoms: N_15  and  C_16
REMARK    6  A    between atoms: C_16  and  C_17
REMARK    7  A    between atoms: C_17  and  C_19
REMARK                            x       y       z     vdW  Elec       q    Type
REMARK                         _______ _______ _______ _____ _____    ______ ____
ROOT
ATOM      1  C   UNL     1       3.248   4.619  19.211  0.00  0.00    +0.000 C 
ATOM      2  C   UNL     1       1.808   4.744  18.651  0.00  0.00    +0.000 C 
ATOM      3  C   UNL     1       1.696   5.993  17.782  0.00  0.00    +0.000 C 
ATOM      4  N   UNL     1       1.880   7.204  18.594  0.00  0.00    +0.000 NA
ATOM      5  C   UNL     1       3.107   7.158  19.410  0.00  0.00    +0.000 C 
ATOM      6  C   UNL     1       3.286   5.840  20.165  0.00  0.00    +0.000 C 
ENDROOT
BRANCH   1   9
ATOM      7  C   UNL     1       4.380   3.511  17.137  0.00  0.00    +0.000 C 
ATOM      8  O   UNL     1       5.240   3.465  16.251  0.00  0.00    +0.000 OA
ATOM      9  N   UNL     1       4.330   4.516  18.140  0.00  0.00    +0.000 N 
BRANCH   9  10
ATOM     10  C   UNL     1       5.465   5.428  18.186  0.00  0.00    +0.000 A 
ATOM     11  C   UNL     1       6.521   5.202  19.084  0.00  0.00    +0.000 A 
ATOM     12  C   UNL     1       7.668   6.005  19.086  0.00  0.00    +0.000 A 
ATOM     13  C   UNL     1       7.797   7.036  18.164  0.00  0.00    +0.000 A 
ATOM     14  C   UNL     1       6.751   7.299  17.287  0.00  0.00    +0.000 A 
ATOM     15  C   UNL     1       5.576   6.532  17.332  0.00  0.00    +0.000 A 
ENDBRANCH   9  10
BRANCH   7  17
ATOM     16  C   UNL     1       3.541   1.375  18.227  0.00  0.00    +0.000 C 
ATOM     17  C   UNL     1       3.320   2.421  17.143  0.00  0.00    +0.000 C 
ENDBRANCH   7  17
ENDBRANCH   1   9
BRANCH   4  18
ATOM     18  C   UNL     1       1.885   8.395  17.705  0.00  0.00    +0.000 C 
BRANCH  18  19
ATOM     19  C   UNL     1       1.719   9.761  18.416  0.00  0.00    +0.000 C 
ATOM     20  F   UNL     1       2.482  10.700  17.772  0.00  0.00    +0.000 F 
BRANCH  19  21
ATOM     21  C   UNL     1       0.280  10.192  18.422  0.00  0.00    +0.000 A 
ATOM     22  C   UNL     1      -0.640   9.608  17.540  0.00  0.00    +0.000 A 
ATOM     23  C   UNL     1      -1.974  10.018  17.535  0.00  0.00    +0.000 A 
ATOM     24  C   UNL     1      -2.400  11.007  18.420  0.00  0.00    +0.000 A 
ATOM     25  C   UNL     1      -1.493  11.585  19.311  0.00  0.00    +0.000 A 
ATOM     26  C   UNL     1      -0.167  11.170  19.309  0.00  0.00    +0.000 A 
ATOM     27  F   UNL     1       0.693  11.727  20.175  0.00  0.00    +0.000 F 
ENDBRANCH  19  21
ENDBRANCH  18  19
ENDBRANCH   4  18
TORSDOF 6
ENDMDL
MODEL 8
REMARK VINA RESULT:      -6.4      4.530      8.251
REMARK  Name = 
REMARK  7 active torsions:
REMARK  status: ('A' for Active; 'I' for Inactive)
REMARK    1  A    between atoms: C_1  and  C_2
REMARK    2  A    between atoms: C_2  and  C_3
REMARK    3  A    between atoms: N_5  and  C_6
REMARK    4  A    between atoms: N_5  and  C_12
REMARK    5  A    between atoms: N_15  and  C_16
REMARK    6  A    between atoms: C_16  and  C_17
REMARK    7  A    between atoms: C_17  and  C_19
REMARK                            x       y       z     vdW  Elec       q    Type
REMARK                         _______ _______ _______ _____ _____    ______ ____
ROOT
ATOM      1  C   UNL     1       4.149   5.232  17.280  0.00  0.00    +0.000 C 
ATOM      2  C   UNL     1       4.359   6.692  16.803  0.00  0.00    +0.000 C 
ATOM      3  C   UNL     1       3.803   7.661  17.842  0.00  0.00    +0.000 C 
ATOM      4  N   UNL     1       2.344   7.518  17.951  0.00  0.00    +0.000 NA
ATOM      5  C   UNL     1       1.926   6.120  18.162  0.00  0.00    +0.000 C 
ATOM      6  C   UNL     1       2.603   5.133  17.210  0.00  0.00    +0.000 C 
ENDROOT
BRANCH   1   9
ATOM      7  C   UNL     1       6.196   5.146  18.896  0.00  0.00    +0.000 C 
ATOM      8  O   UNL     1       6.719   4.910  19.991  0.00  0.00    +0.000 OA
ATOM      9  N   UNL     1       4.826   4.902  18.606  0.00  0.00    +0.000 N 
BRANCH   9  10
ATOM     10  C   UNL     1       4.075   4.187  19.629  0.00  0.00    +0.000 A 
ATOM     11  C   UNL     1       3.227   4.885  20.505  0.00  0.00    +0.000 A 
ATOM     12  C   UNL     1       2.421   4.216  21.435  0.00  0.00    +0.000 A 
ATOM     13  C   UNL     1       2.423   2.828  21.487  0.00  0.00    +0.000 A 
ATOM     14  C   UNL     1       3.278   2.117  20.652  0.00  0.00    +0.000 A 
ATOM     15  C   UNL     1       4.132   2.794  19.767  0.00  0.00    +0.000 A 
ENDBRANCH   9  10
BRANCH   7  17
ATOM     16  C   UNL     1       7.844   6.966  18.249  0.00  0.00    +0.000 C 
ATOM     17  C   UNL     1       7.080   5.727  17.805  0.00  0.00    +0.000 C 
ENDBRANCH   7  17
ENDBRANCH   1   9
BRANCH   4  18
ATOM     18  C   UNL     1       1.846   8.386  19.050  0.00  0.00    +0.000 C 
BRANCH  18  19
ATOM     19  C   UNL     1       1.081   9.657  18.605  0.00  0.00    +0.000 C 
ATOM     20  F   UNL     1       0.158   9.317  17.651  0.00  0.00    +0.000 F 
BRANCH  19  21
ATOM     21  C   UNL     1       0.392  10.305  19.772  0.00  0.00    +0.000 A 
ATOM     22  C   UNL     1       0.268   9.624  20.992  0.00  0.00    +0.000 A 
ATOM     23  C   UNL     1      -0.385  10.220  22.071  0.00  0.00    +0.000 A 
ATOM     24  C   UNL     1      -0.909  11.506  21.943  0.00  0.00    +0.000 A 
ATOM     25  C   UNL     1      -0.779  12.196  20.735  0.00  0.00    +0.000 A 
ATOM     26  C   UNL     1      -0.127  11.595  19.666  0.00  0.00    +0.000 A 
ATOM     27  F   UNL     1      -0.001  12.271  18.515  0.00  0.00    +0.000 F 
ENDBRANCH  19  21
ENDBRANCH  18  19
ENDBRANCH   4  18
TORSDOF 6
ENDMDL
MODEL 9
REMARK VINA RESULT:      -6.4      4.445      7.879
REMARK  Name = 
REMARK  7 active torsions:
REMARK  status: ('A' for Active; 'I' for Inactive)
REMARK    1  A    between atoms: C_1  and  C_2
REMARK    2  A    between atoms: C_2  and  C_3
REMARK    3  A    between atoms: N_5  and  C_6
REMARK    4  A    between atoms: N_5  and  C_12
REMARK    5  A    between atoms: N_15  and  C_16
REMARK    6  A    between atoms: C_16  and  C_17
REMARK    7  A    between atoms: C_17  and  C_19
REMARK                            x       y       z     vdW  Elec       q    Type
REMARK                         _______ _______ _______ _____ _____    ______ ____
ROOT
ATOM      1  C   UNL     1       4.369   4.971  17.240  0.00  0.00    +0.000 C 
ATOM      2  C   UNL     1       4.642   6.365  16.618  0.00  0.00    +0.000 C 
ATOM      3  C   UNL     1       4.053   7.454  17.510  0.00  0.00    +0.000 C 
ATOM      4  N   UNL     1       2.587   7.351  17.548  0.00  0.00    +0.000 NA
ATOM      5  C   UNL     1       2.123   5.993  17.887  0.00  0.00    +0.000 C 
ATOM      6  C   UNL     1       2.828   4.894  17.090  0.00  0.00    +0.000 C 
ENDROOT
BRANCH   1   9
ATOM      7  C   UNL     1       6.303   5.083  18.988  0.00  0.00    +0.000 C 
ATOM      8  O   UNL     1       6.756   4.960  20.131  0.00  0.00    +0.000 OA
ATOM      9  N   UNL     1       4.962   4.778  18.632  0.00  0.00    +0.000 N 
BRANCH   9  10
ATOM     10  C   UNL     1       4.159   4.137  19.664  0.00  0.00    +0.000 A 
ATOM     11  C   UNL     1       3.255   4.891  20.431  0.00  0.00    +0.000 A 
ATOM     12  C   UNL     1       2.402   4.288  21.364  0.00  0.00    +0.000 A 
ATOM     13  C   UNL     1       2.412   2.909  21.527  0.00  0.00    +0.000 A 
ATOM     14  C   UNL     1       3.320   2.145  20.802  0.00  0.00    +0.000 A 
ATOM     15  C   UNL     1       4.219   2.760  19.916  0.00  0.00    +0.000 A 
ENDBRANCH   9  10
BRANCH   7  17
ATOM     16  C   UNL     1       7.860   6.943  18.235  0.00  0.00    +0.000 C 
ATOM     17  C   UNL     1       7.247   5.589  17.909  0.00  0.00    +0.000 C 
ENDBRANCH   7  17
ENDBRANCH   1   9
BRANCH   4  18
ATOM     18  C   UNL     1       2.050   8.345  18.513  0.00  0.00    +0.000 C 
BRANCH  18  19
ATOM     19  C   UNL     1       1.330   9.565  17.887  0.00  0.00    +0.000 C 
ATOM     20  F   UNL     1       0.071   9.192  17.492  0.00  0.00    +0.000 F 
BRANCH  19  21
ATOM     21  C   UNL     1       1.240  10.698  18.869  0.00  0.00    +0.000 A 
ATOM     22  C   UNL     1       1.930  11.896  18.637  0.00  0.00    +0.000 A 
ATOM     23  C   UNL     1       1.858  12.943  19.557  0.00  0.00    +0.000 A 
ATOM     24  C   UNL     1       1.087  12.804  20.710  0.00  0.00    +0.000 A 
ATOM     25  C   UNL     1       0.387  11.618  20.943  0.00  0.00    +0.000 A 
ATOM     26  C   UNL     1       0.464  10.581  20.021  0.00  0.00    +0.000 A 
ATOM     27  F   UNL     1      -0.220   9.451  20.252  0.00  0.00    +0.000 F 
ENDBRANCH  19  21
ENDBRANCH  18  19
ENDBRANCH   4  18
TORSDOF 6
ENDMDL
