MODEL 1
REMARK VINA RESULT:      -8.2      0.000      0.000
REMARK  Name = 
REMARK  5 active torsions:
REMARK  status: ('A' for Active; 'I' for Inactive)
REMARK    1  A    between atoms: C_2  and  C_5
REMARK    2  A    between atoms: N_3  and  O_4
REMARK    3  A    between atoms: N_14  and  S_15
REMARK    4  A    between atoms: S_15  and  C_18
REMARK    5  A    between atoms: C_21  and  N_22
REMARK                            x       y       z     vdW  Elec       q    Type
REMARK                         _______ _______ _______ _____ _____    ______ ____
ROOT
ATOM      1  C   UNL     1      -1.312  12.151  19.907  0.00  0.00    +0.000 C 
ATOM      2  C   UNL     1      -2.814  11.887  19.801  0.00  0.00    +0.000 C 
ATOM      3  C   UNL     1      -3.141  11.432  18.406  0.00  0.00    +0.000 A 
ATOM      4  C   UNL     1      -4.212  11.957  17.681  0.00  0.00    +0.000 A 
ATOM      5  C   UNL     1      -4.496  11.457  16.412  0.00  0.00    +0.000 A 
ATOM      6  C   UNL     1      -3.727  10.422  15.880  0.00  0.00    +0.000 A 
ATOM      7  C   UNL     1      -2.641   9.915  16.594  0.00  0.00    +0.000 A 
ATOM      8  C   UNL     1      -2.319  10.447  17.847  0.00  0.00    +0.000 A 
ATOM      9  C   UNL     1      -1.164   9.927  18.664  0.00  0.00    +0.000 C 
ATOM     10  N   UNL     1      -0.463  10.946  19.518  0.00  0.00    +0.000 NA
ENDROOT
BRANCH   1  12
ATOM     11  O   UNL     1      -0.435  13.433  18.026  0.00  0.00    +0.000 OA
ATOM     12  C   UNL     1      -0.958  13.431  19.144  0.00  0.00    +0.000 C 
ATOM     13  N   UNL     1      -1.333  14.610  19.738  0.00  0.00    +0.000 N 
ATOM     14  H   UNL     1      -2.018  14.634  20.484  0.00  0.00    +0.000 HD
BRANCH  13  15
ATOM     15  O   UNL     1      -1.175  15.773  18.946  0.00  0.00    +0.000 OA
ATOM     16  H   UNL     1      -0.674  15.435  18.173  0.00  0.00    +0.000 HD
ENDBRANCH  13  15
ENDBRANCH   1  12
BRANCH  10  17
ATOM     17  S   UNL     1       0.348  10.269  20.871  0.00  0.00    +0.000 S 
ATOM     18  O   UNL     1       1.314  11.257  21.304  0.00  0.00    +0.000 OA
ATOM     19  O   UNL     1      -0.653   9.759  21.777  0.00  0.00    +0.000 OA
BRANCH  17  20
ATOM     20  C   UNL     1       1.263   8.900  20.202  0.00  0.00    +0.000 A 
ATOM     21  C   UNL     1       1.332   7.708  20.923  0.00  0.00    +0.000 A 
ATOM     22  C   UNL     1       1.999   6.600  20.385  0.00  0.00    +0.000 A 
ATOM     23  C   UNL     1       2.617   6.651  19.129  0.00  0.00    +0.000 A 
ATOM     24  C   UNL     1       2.496   7.855  18.411  0.00  0.00    +0.000 A 
ATOM     25  C   UNL     1       1.816   8.968  18.925  0.00  0.00    +0.000 A 
BRANCH  23  26
ATOM     26  N   UNL     1       3.285   5.573  18.576  0.00  0.00    +0.000 N 
ATOM     27  C   UNL     1       2.864   4.175  18.780  0.00  0.00    +0.000 C 
ATOM     28  C   UNL     1       3.841   3.429  19.700  0.00  0.00    +0.000 C 
ATOM     29  O   UNL     1       5.193   3.524  19.219  0.00  0.00    +0.000 OA
ATOM     30  C   UNL     1       5.597   4.900  19.158  0.00  0.00    +0.000 C 
ATOM     31  C   UNL     1       4.706   5.716  18.204  0.00  0.00    +0.000 C 
ENDBRANCH  23  26
ENDBRANCH  17  20
ENDBRANCH  10  17
TORSDOF 5
ENDMDL
MODEL 2
REMARK VINA RESULT:      -7.9      0.927      1.244
REMARK  Name = 
REMARK  5 active torsions:
REMARK  status: ('A' for Active; 'I' for Inactive)
REMARK    1  A    between atoms: C_2  and  C_5
REMARK    2  A    between atoms: N_3  and  O_4
REMARK    3  A    between atoms: N_14  and  S_15
REMARK    4  A    between atoms: S_15  and  C_18
REMARK    5  A    between atoms: C_21  and  N_22
REMARK                            x       y       z     vdW  Elec       q    Type
REMARK                         _______ _______ _______ _____ _____    ______ ____
ROOT
ATOM      1  C   UNL     1      -1.224  12.154  19.845  0.00  0.00    +0.000 C 
ATOM      2  C   UNL     1      -2.721  11.882  19.696  0.00  0.00    +0.000 C 
ATOM      3  C   UNL     1      -2.995  11.363  18.312  0.00  0.00    +0.000 A 
ATOM      4  C   UNL     1      -4.039  11.851  17.524  0.00  0.00    +0.000 A 
ATOM      5  C   UNL     1      -4.275  11.293  16.269  0.00  0.00    +0.000 A 
ATOM      6  C   UNL     1      -3.487  10.236  15.814  0.00  0.00    +0.000 A 
ATOM      7  C   UNL     1      -2.428   9.765  16.592  0.00  0.00    +0.000 A 
ATOM      8  C   UNL     1      -2.153  10.355  17.829  0.00  0.00    +0.000 A 
ATOM      9  C   UNL     1      -1.029   9.875  18.712  0.00  0.00    +0.000 C 
ATOM     10  N   UNL     1      -0.361  10.933  19.544  0.00  0.00    +0.000 NA
ENDROOT
BRANCH   1  12
ATOM     11  O   UNL     1      -0.302  13.349  17.929  0.00  0.00    +0.000 OA
ATOM     12  C   UNL     1      -0.842  13.398  19.037  0.00  0.00    +0.000 C 
ATOM     13  N   UNL     1      -1.211  14.604  19.578  0.00  0.00    +0.000 N 
ATOM     14  H   UNL     1      -1.908  14.666  20.310  0.00  0.00    +0.000 HD
BRANCH  13  15
ATOM     15  O   UNL     1      -1.026  15.733  18.742  0.00  0.00    +0.000 OA
ATOM     16  H   UNL     1      -0.687  15.328  17.915  0.00  0.00    +0.000 HD
ENDBRANCH  13  15
ENDBRANCH   1  12
BRANCH  10  17
ATOM     17  S   UNL     1       0.399  10.322  20.957  0.00  0.00    +0.000 S 
ATOM     18  O   UNL     1       1.426  11.277  21.314  0.00  0.00    +0.000 OA
ATOM     19  O   UNL     1      -0.637   9.956  21.893  0.00  0.00    +0.000 OA
BRANCH  17  20
ATOM     20  C   UNL     1       1.224   8.844  20.413  0.00  0.00    +0.000 A 
ATOM     21  C   UNL     1       1.166   7.699  21.207  0.00  0.00    +0.000 A 
ATOM     22  C   UNL     1       1.760   6.509  20.766  0.00  0.00    +0.000 A 
ATOM     23  C   UNL     1       2.431   6.431  19.539  0.00  0.00    +0.000 A 
ATOM     24  C   UNL     1       2.438   7.593  18.745  0.00  0.00    +0.000 A 
ATOM     25  C   UNL     1       1.832   8.787  19.160  0.00  0.00    +0.000 A 
BRANCH  23  26
ATOM     26  N   UNL     1       3.029   5.270  19.082  0.00  0.00    +0.000 N 
ATOM     27  C   UNL     1       3.061   4.889  17.659  0.00  0.00    +0.000 C 
ATOM     28  C   UNL     1       2.128   3.701  17.381  0.00  0.00    +0.000 C 
ATOM     29  O   UNL     1       2.419   2.591  18.247  0.00  0.00    +0.000 OA
ATOM     30  C   UNL     1       2.251   2.980  19.619  0.00  0.00    +0.000 C 
ATOM     31  C   UNL     1       3.197   4.131  20.006  0.00  0.00    +0.000 C 
ENDBRANCH  23  26
ENDBRANCH  17  20
ENDBRANCH  10  17
TORSDOF 5
ENDMDL
MODEL 3
REMARK VINA RESULT:      -7.8      2.897      9.095
REMARK  Name = 
REMARK  5 active torsions:
REMARK  status: ('A' for Active; 'I' for Inactive)
REMARK    1  A    between atoms: C_2  and  C_5
REMARK    2  A    between atoms: N_3  and  O_4
REMARK    3  A    between atoms: N_14  and  S_15
REMARK    4  A    between atoms: S_15  and  C_18
REMARK    5  A    between atoms: C_21  and  N_22
REMARK                            x       y       z     vdW  Elec       q    Type
REMARK                         _______ _______ _______ _____ _____    ______ ____
ROOT
ATOM      1  C   UNL     1       5.290   5.226  18.383  0.00  0.00    +0.000 C 
ATOM      2  C   UNL     1       5.341   6.194  17.202  0.00  0.00    +0.000 C 
ATOM      3  C   UNL     1       5.849   5.469  15.987  0.00  0.00    +0.000 A 
ATOM      4  C   UNL     1       6.837   6.002  15.157  0.00  0.00    +0.000 A 
ATOM      5  C   UNL     1       7.229   5.305  14.016  0.00  0.00    +0.000 A 
ATOM      6  C   UNL     1       6.620   4.092  13.694  0.00  0.00    +0.000 A 
ATOM      7  C   UNL     1       5.650   3.548  14.537  0.00  0.00    +0.000 A 
ATOM      8  C   UNL     1       5.289   4.217  15.710  0.00  0.00    +0.000 A 
ATOM      9  C   UNL     1       4.238   3.677  16.648  0.00  0.00    +0.000 C 
ATOM     10  N   UNL     1       4.450   3.985  18.104  0.00  0.00    +0.000 NA
ENDROOT
BRANCH   1  12
ATOM     11  O   UNL     1       7.533   4.286  18.188  0.00  0.00    +0.000 OA
ATOM     12  C   UNL     1       6.712   4.917  18.860  0.00  0.00    +0.000 C 
ATOM     13  N   UNL     1       7.073   5.459  20.068  0.00  0.00    +0.000 N 
ATOM     14  H   UNL     1       6.548   6.217  20.488  0.00  0.00    +0.000 HD
BRANCH  13  15
ATOM     15  O   UNL     1       8.441   5.331  20.413  0.00  0.00    +0.000 OA
ATOM     16  H   UNL     1       8.404   5.251  21.391  0.00  0.00    +0.000 HD
ENDBRANCH  13  15
ENDBRANCH   1  12
BRANCH  10  17
ATOM     17  S   UNL     1       3.004   3.968  19.029  0.00  0.00    +0.000 S 
ATOM     18  O   UNL     1       2.007   3.305  18.216  0.00  0.00    +0.000 OA
ATOM     19  O   UNL     1       3.329   3.486  20.350  0.00  0.00    +0.000 OA
BRANCH  17  20
ATOM     20  C   UNL     1       2.531   5.678  19.145  0.00  0.00    +0.000 A 
ATOM     21  C   UNL     1       2.342   6.414  17.976  0.00  0.00    +0.000 A 
ATOM     22  C   UNL     1       1.913   7.746  18.048  0.00  0.00    +0.000 A 
ATOM     23  C   UNL     1       1.672   8.377  19.275  0.00  0.00    +0.000 A 
ATOM     24  C   UNL     1       1.834   7.594  20.434  0.00  0.00    +0.000 A 
ATOM     25  C   UNL     1       2.244   6.255  20.380  0.00  0.00    +0.000 A 
BRANCH  23  26
ATOM     26  N   UNL     1       1.251   9.691  19.375  0.00  0.00    +0.000 N 
ATOM     27  C   UNL     1       1.017  10.365  20.664  0.00  0.00    +0.000 C 
ATOM     28  C   UNL     1      -0.482  10.587  20.913  0.00  0.00    +0.000 C 
ATOM     29  O   UNL     1      -1.098  11.284  19.817  0.00  0.00    +0.000 OA
ATOM     30  C   UNL     1      -0.952  10.525  18.607  0.00  0.00    +0.000 C 
ATOM     31  C   UNL     1       0.528  10.307  18.244  0.00  0.00    +0.000 C 
ENDBRANCH  23  26
ENDBRANCH  17  20
ENDBRANCH  10  17
TORSDOF 5
ENDMDL
MODEL 4
REMARK VINA RESULT:      -7.8      3.607      9.471
REMARK  Name = 
REMARK  5 active torsions:
REMARK  status: ('A' for Active; 'I' for Inactive)
REMARK    1  A    between atoms: C_2  and  C_5
REMARK    2  A    between atoms: N_3  and  O_4
REMARK    3  A    between atoms: N_14  and  S_15
REMARK    4  A    between atoms: S_15  and  C_18
REMARK    5  A    between atoms: C_21  and  N_22
REMARK                            x       y       z     vdW  Elec       q    Type
REMARK                         _______ _______ _______ _____ _____    ______ ____
ROOT
ATOM      1  C   UNL     1       3.903   3.625  19.439  0.00  0.00    +0.000 C 
ATOM      2  C   UNL     1       4.903   4.780  19.388  0.00  0.00    +0.000 C 
ATOM      3  C   UNL     1       5.791   4.615  18.186  0.00  0.00    +0.000 A 
ATOM      4  C   UNL     1       7.178   4.757  18.257  0.00  0.00    +0.000 A 
ATOM      5  C   UNL     1       7.943   4.644  17.099  0.00  0.00    +0.000 A 
ATOM      6  C   UNL     1       7.323   4.412  15.871  0.00  0.00    +0.000 A 
ATOM      7  C   UNL     1       5.939   4.245  15.804  0.00  0.00    +0.000 A 
ATOM      8  C   UNL     1       5.171   4.307  16.971  0.00  0.00    +0.000 A 
ATOM      9  C   UNL     1       3.672   4.146  16.951  0.00  0.00    +0.000 C 
ATOM     10  N   UNL     1       3.074   3.495  18.166  0.00  0.00    +0.000 NA
ENDROOT
BRANCH   1  12
ATOM     11  O   UNL     1       5.200   2.189  20.925  0.00  0.00    +0.000 OA
ATOM     12  C   UNL     1       4.624   2.336  19.843  0.00  0.00    +0.000 C 
ATOM     13  N   UNL     1       4.528   1.290  18.960  0.00  0.00    +0.000 N 
ATOM     14  H   UNL     1       3.825   1.274  18.231  0.00  0.00    +0.000 HD
BRANCH  13  15
ATOM     15  O   UNL     1       5.031   0.049  19.422  0.00  0.00    +0.000 OA
ATOM     16  H   UNL     1       4.963  -0.516  18.622  0.00  0.00    +0.000 HD
ENDBRANCH  13  15
ENDBRANCH   1  12
BRANCH  10  17
ATOM     17  S   UNL     1       1.428   3.907  18.429  0.00  0.00    +0.000 S 
ATOM     18  O   UNL     1       0.859   4.168  17.124  0.00  0.00    +0.000 OA
ATOM     19  O   UNL     1       0.858   2.912  19.305  0.00  0.00    +0.000 OA
BRANCH  17  20
ATOM     20  C   UNL     1       1.491   5.459  19.293  0.00  0.00    +0.000 A 
ATOM     21  C   UNL     1       1.865   6.610  18.601  0.00  0.00    +0.000 A 
ATOM     22  C   UNL     1       1.864   7.852  19.251  0.00  0.00    +0.000 A 
ATOM     23  C   UNL     1       1.502   7.977  20.598  0.00  0.00    +0.000 A 
ATOM     24  C   UNL     1       1.092   6.802  21.257  0.00  0.00    +0.000 A 
ATOM     25  C   UNL     1       1.069   5.555  20.617  0.00  0.00    +0.000 A 
BRANCH  23  26
ATOM     26  N   UNL     1       1.495   9.189  21.265  0.00  0.00    +0.000 N 
ATOM     27  C   UNL     1       1.369   9.300  22.729  0.00  0.00    +0.000 C 
ATOM     28  C   UNL     1      -0.007   9.854  23.129  0.00  0.00    +0.000 C 
ATOM     29  O   UNL     1      -0.284  11.098  22.463  0.00  0.00    +0.000 OA
ATOM     30  C   UNL     1      -0.274  10.909  21.040  0.00  0.00    +0.000 C 
ATOM     31  C   UNL     1       1.094  10.411  20.540  0.00  0.00    +0.000 C 
ENDBRANCH  23  26
ENDBRANCH  17  20
ENDBRANCH  10  17
TORSDOF 5
ENDMDL
MODEL 5
REMARK VINA RESULT:      -7.7      0.803      1.564
REMARK  Name = 
REMARK  5 active torsions:
REMARK  status: ('A' for Active; 'I' for Inactive)
REMARK    1  A    between atoms: C_2  and  C_5
REMARK    2  A    between atoms: N_3  and  O_4
REMARK    3  A    between atoms: N_14  and  S_15
REMARK    4  A    between atoms: S_15  and  C_18
REMARK    5  A    between atoms: C_21  and  N_22
REMARK                            x       y       z     vdW  Elec       q    Type
REMARK                         _______ _______ _______ _____ _____    ______ ____
ROOT
ATOM      1  C   UNL     1      -1.268  12.313  19.950  0.00  0.00    +0.000 C 
ATOM      2  C   UNL     1      -2.765  12.030  19.835  0.00  0.00    +0.000 C 
ATOM      3  C   UNL     1      -3.067  11.506  18.458  0.00  0.00    +0.000 A 
ATOM      4  C   UNL     1      -4.131  11.985  17.693  0.00  0.00    +0.000 A 
ATOM      5  C   UNL     1      -4.392  11.423  16.445  0.00  0.00    +0.000 A 
ATOM      6  C   UNL     1      -3.606  10.371  15.974  0.00  0.00    +0.000 A 
ATOM      7  C   UNL     1      -2.526   9.909  16.728  0.00  0.00    +0.000 A 
ATOM      8  C   UNL     1      -2.228  10.504  17.958  0.00  0.00    +0.000 A 
ATOM      9  C   UNL     1      -1.081  10.034  18.817  0.00  0.00    +0.000 C 
ATOM     10  N   UNL     1      -0.403  11.099  19.632  0.00  0.00    +0.000 NA
ENDROOT
BRANCH   1  12
ATOM     11  O   UNL     1      -0.501  13.514  17.969  0.00  0.00    +0.000 OA
ATOM     12  C   UNL     1      -0.913  13.558  19.132  0.00  0.00    +0.000 C 
ATOM     13  N   UNL     1      -1.159  14.766  19.736  0.00  0.00    +0.000 N 
ATOM     14  H   UNL     1      -1.767  14.842  20.543  0.00  0.00    +0.000 HD
BRANCH  13  15
ATOM     15  O   UNL     1      -1.009  15.907  18.910  0.00  0.00    +0.000 OA
ATOM     16  H   UNL     1      -0.145  15.739  18.475  0.00  0.00    +0.000 HD
ENDBRANCH  13  15
ENDBRANCH   1  12
BRANCH  10  17
ATOM     17  S   UNL     1       0.394  10.495  21.028  0.00  0.00    +0.000 S 
ATOM     18  O   UNL     1       1.504  11.388  21.282  0.00  0.00    +0.000 OA
ATOM     19  O   UNL     1      -0.609  10.246  22.035  0.00  0.00    +0.000 OA
BRANCH  17  20
ATOM     20  C   UNL     1       1.081   8.940  20.510  0.00  0.00    +0.000 A 
ATOM     21  C   UNL     1       1.741   8.861  19.284  0.00  0.00    +0.000 A 
ATOM     22  C   UNL     1       2.340   7.657  18.886  0.00  0.00    +0.000 A 
ATOM     23  C   UNL     1       2.289   6.509  19.687  0.00  0.00    +0.000 A 
ATOM     24  C   UNL     1       1.649   6.634  20.935  0.00  0.00    +0.000 A 
ATOM     25  C   UNL     1       1.062   7.834  21.357  0.00  0.00    +0.000 A 
BRANCH  23  26
ATOM     26  N   UNL     1       2.868   5.309  19.317  0.00  0.00    +0.000 N 
ATOM     27  C   UNL     1       4.257   5.200  18.837  0.00  0.00    +0.000 C 
ATOM     28  C   UNL     1       4.303   4.897  17.331  0.00  0.00    +0.000 C 
ATOM     29  O   UNL     1       3.524   3.733  17.007  0.00  0.00    +0.000 OA
ATOM     30  C   UNL     1       2.153   3.939  17.380  0.00  0.00    +0.000 C 
ATOM     31  C   UNL     1       2.004   4.190  18.892  0.00  0.00    +0.000 C 
ENDBRANCH  23  26
ENDBRANCH  17  20
ENDBRANCH  10  17
TORSDOF 5
ENDMDL
MODEL 6
REMARK VINA RESULT:      -7.7      0.957      1.101
REMARK  Name = 
REMARK  5 active torsions:
REMARK  status: ('A' for Active; 'I' for Inactive)
REMARK    1  A    between atoms: C_2  and  C_5
REMARK    2  A    between atoms: N_3  and  O_4
REMARK    3  A    between atoms: N_14  and  S_15
REMARK    4  A    between atoms: S_15  and  C_18
REMARK    5  A    between atoms: C_21  and  N_22
REMARK                            x       y       z     vdW  Elec       q    Type
REMARK                         _______ _______ _______ _____ _____    ______ ____
ROOT
ATOM      1  C   UNL     1      -1.623  12.359  20.387  0.00  0.00    +0.000 C 
ATOM      2  C   UNL     1      -3.092  11.939  20.335  0.00  0.00    +0.000 C 
ATOM      3  C   UNL     1      -3.483  11.680  18.907  0.00  0.00    +0.000 A 
ATOM      4  C   UNL     1      -4.660  12.185  18.351  0.00  0.00    +0.000 A 
ATOM      5  C   UNL     1      -4.995  11.867  17.037  0.00  0.00    +0.000 A 
ATOM      6  C   UNL     1      -4.167  11.030  16.288  0.00  0.00    +0.000 A 
ATOM      7  C   UNL     1      -2.978  10.546  16.835  0.00  0.00    +0.000 A 
ATOM      8  C   UNL     1      -2.611  10.903  18.136  0.00  0.00    +0.000 A 
ATOM      9  C   UNL     1      -1.343  10.398  18.777  0.00  0.00    +0.000 C 
ATOM     10  N   UNL     1      -0.686  11.341  19.745  0.00  0.00    +0.000 NA
ENDROOT
BRANCH   1  12
ATOM     11  O   UNL     1      -1.954  14.776  20.373  0.00  0.00    +0.000 OA
ATOM     12  C   UNL     1      -1.471  13.778  19.831  0.00  0.00    +0.000 C 
ATOM     13  N   UNL     1      -0.681  13.906  18.716  0.00  0.00    +0.000 N 
ATOM     14  H   UNL     1      -0.037  13.177  18.435  0.00  0.00    +0.000 HD
BRANCH  13  15
ATOM     15  O   UNL     1      -0.390  15.235  18.320  0.00  0.00    +0.000 OA
ATOM     16  H   UNL     1      -0.237  15.681  19.180  0.00  0.00    +0.000 HD
ENDBRANCH  13  15
ENDBRANCH   1  12
BRANCH  10  17
ATOM     17  S   UNL     1       0.302  10.556  20.909  0.00  0.00    +0.000 S 
ATOM     18  O   UNL     1       1.253  11.544  21.370  0.00  0.00    +0.000 OA
ATOM     19  O   UNL     1      -0.567   9.868  21.834  0.00  0.00    +0.000 OA
BRANCH  17  20
ATOM     20  C   UNL     1       1.213   9.347  19.976  0.00  0.00    +0.000 A 
ATOM     21  C   UNL     1       1.504   8.115  20.558  0.00  0.00    +0.000 A 
ATOM     22  C   UNL     1       2.170   7.129  19.818  0.00  0.00    +0.000 A 
ATOM     23  C   UNL     1       2.567   7.346  18.492  0.00  0.00    +0.000 A 
ATOM     24  C   UNL     1       2.223   8.586  17.922  0.00  0.00    +0.000 A 
ATOM     25  C   UNL     1       1.540   9.576  18.641  0.00  0.00    +0.000 A 
BRANCH  23  26
ATOM     26  N   UNL     1       3.228   6.392  17.739  0.00  0.00    +0.000 N 
ATOM     27  C   UNL     1       2.999   4.944  17.895  0.00  0.00    +0.000 C 
ATOM     28  C   UNL     1       4.202   4.259  18.561  0.00  0.00    +0.000 C 
ATOM     29  O   UNL     1       5.423   4.543  17.857  0.00  0.00    +0.000 OA
ATOM     30  C   UNL     1       5.665   5.958  17.843  0.00  0.00    +0.000 C 
ATOM     31  C   UNL     1       4.533   6.724  17.135  0.00  0.00    +0.000 C 
ENDBRANCH  23  26
ENDBRANCH  17  20
ENDBRANCH  10  17
TORSDOF 5
ENDMDL
MODEL 7
REMARK VINA RESULT:      -7.6      2.323      3.781
REMARK  Name = 
REMARK  5 active torsions:
REMARK  status: ('A' for Active; 'I' for Inactive)
REMARK    1  A    between atoms: C_2  and  C_5
REMARK    2  A    between atoms: N_3  and  O_4
REMARK    3  A    between atoms: N_14  and  S_15
REMARK    4  A    between atoms: S_15  and  C_18
REMARK    5  A    between atoms: C_21  and  N_22
REMARK                            x       y       z     vdW  Elec       q    Type
REMARK                         _______ _______ _______ _____ _____    ______ ____
ROOT
ATOM      1  C   UNL     1      -1.577  12.290  19.417  0.00  0.00    +0.000 C 
ATOM      2  C   UNL     1      -2.159  13.561  20.035  0.00  0.00    +0.000 C 
ATOM      3  C   UNL     1      -2.916  13.204  21.284  0.00  0.00    +0.000 A 
ATOM      4  C   UNL     1      -4.190  13.706  21.555  0.00  0.00    +0.000 A 
ATOM      5  C   UNL     1      -4.819  13.381  22.754  0.00  0.00    +0.000 A 
ATOM      6  C   UNL     1      -4.169  12.575  23.689  0.00  0.00    +0.000 A 
ATOM      7  C   UNL     1      -2.906  12.053  23.407  0.00  0.00    +0.000 A 
ATOM      8  C   UNL     1      -2.290  12.334  22.183  0.00  0.00    +0.000 A 
ATOM      9  C   UNL     1      -0.922  11.805  21.836  0.00  0.00    +0.000 C 
ATOM     10  N   UNL     1      -0.693  11.507  20.380  0.00  0.00    +0.000 NA
ENDROOT
BRANCH   1  12
ATOM     11  O   UNL     1      -3.833  11.899  18.574  0.00  0.00    +0.000 OA
ATOM     12  C   UNL     1      -2.701  11.458  18.792  0.00  0.00    +0.000 C 
ATOM     13  N   UNL     1      -2.362  10.189  18.397  0.00  0.00    +0.000 N 
ATOM     14  H   UNL     1      -1.395   9.909  18.280  0.00  0.00    +0.000 HD
BRANCH  13  15
ATOM     15  O   UNL     1      -3.347   9.495  17.652  0.00  0.00    +0.000 OA
ATOM     16  H   UNL     1      -2.988   8.581  17.629  0.00  0.00    +0.000 HD
ENDBRANCH  13  15
ENDBRANCH   1  12
BRANCH  10  17
ATOM     17  S   UNL     1       0.960  11.557  19.919  0.00  0.00    +0.000 S 
ATOM     18  O   UNL     1       0.993  12.102  18.578  0.00  0.00    +0.000 OA
ATOM     19  O   UNL     1       1.700  12.175  20.993  0.00  0.00    +0.000 OA
BRANCH  17  20
ATOM     20  C   UNL     1       1.441   9.850  19.803  0.00  0.00    +0.000 A 
ATOM     21  C   UNL     1       1.266   9.016  20.906  0.00  0.00    +0.000 A 
ATOM     22  C   UNL     1       1.586   7.655  20.815  0.00  0.00    +0.000 A 
ATOM     23  C   UNL     1       2.091   7.095  19.635  0.00  0.00    +0.000 A 
ATOM     24  C   UNL     1       2.219   7.956  18.528  0.00  0.00    +0.000 A 
ATOM     25  C   UNL     1       1.886   9.315  18.596  0.00  0.00    +0.000 A 
BRANCH  23  26
ATOM     26  N   UNL     1       2.418   5.755  19.518  0.00  0.00    +0.000 N 
ATOM     27  C   UNL     1       2.666   5.099  18.222  0.00  0.00    +0.000 C 
ATOM     28  C   UNL     1       1.521   4.145  17.852  0.00  0.00    +0.000 C 
ATOM     29  O   UNL     1       1.269   3.196  18.903  0.00  0.00    +0.000 OA
ATOM     30  C   UNL     1       0.908   3.882  20.111  0.00  0.00    +0.000 C 
ATOM     31  C   UNL     1       2.030   4.820  20.592  0.00  0.00    +0.000 C 
ENDBRANCH  23  26
ENDBRANCH  17  20
ENDBRANCH  10  17
TORSDOF 5
ENDMDL
MODEL 8
REMARK VINA RESULT:      -7.6      2.885      4.466
REMARK  Name = 
REMARK  5 active torsions:
REMARK  status: ('A' for Active; 'I' for Inactive)
REMARK    1  A    between atoms: C_2  and  C_5
REMARK    2  A    between atoms: N_3  and  O_4
REMARK    3  A    between atoms: N_14  and  S_15
REMARK    4  A    between atoms: S_15  and  C_18
REMARK    5  A    between atoms: C_21  and  N_22
REMARK                            x       y       z     vdW  Elec       q    Type
REMARK                         _______ _______ _______ _____ _____    ______ ____
ROOT
ATOM      1  C   UNL     1       0.228  13.663  20.151  0.00  0.00    +0.000 C 
ATOM      2  C   UNL     1       0.287  14.790  19.120  0.00  0.00    +0.000 C 
ATOM      3  C   UNL     1       1.721  15.048  18.749  0.00  0.00    +0.000 A 
ATOM      4  C   UNL     1       2.257  16.335  18.686  0.00  0.00    +0.000 A 
ATOM      5  C   UNL     1       3.579  16.514  18.285  0.00  0.00    +0.000 A 
ATOM      6  C   UNL     1       4.355  15.412  17.926  0.00  0.00    +0.000 A 
ATOM      7  C   UNL     1       3.827  14.123  18.013  0.00  0.00    +0.000 A 
ATOM      8  C   UNL     1       2.517  13.933  18.464  0.00  0.00    +0.000 A 
ATOM      9  C   UNL     1       1.896  12.563  18.564  0.00  0.00    +0.000 C 
ATOM     10  N   UNL     1       0.903  12.381  19.677  0.00  0.00    +0.000 NA
ENDROOT
BRANCH   1  12
ATOM     11  O   UNL     1       1.874  13.935  21.931  0.00  0.00    +0.000 OA
ATOM     12  C   UNL     1       0.742  14.172  21.501  0.00  0.00    +0.000 C 
ATOM     13  N   UNL     1      -0.107  14.995  22.197  0.00  0.00    +0.000 N 
ATOM     14  H   UNL     1      -0.895  15.448  21.749  0.00  0.00    +0.000 HD
BRANCH  13  15
ATOM     15  O   UNL     1       0.443  15.612  23.348  0.00  0.00    +0.000 OA
ATOM     16  H   UNL     1       0.451  16.560  23.095  0.00  0.00    +0.000 HD
ENDBRANCH  13  15
ENDBRANCH   1  12
BRANCH  10  17
ATOM     17  S   UNL     1      -0.234  11.127  19.388  0.00  0.00    +0.000 S 
ATOM     18  O   UNL     1      -1.079  11.064  20.562  0.00  0.00    +0.000 OA
ATOM     19  O   UNL     1      -0.795  11.333  18.075  0.00  0.00    +0.000 OA
BRANCH  17  20
ATOM     20  C   UNL     1       0.741   9.641  19.365  0.00  0.00    +0.000 A 
ATOM     21  C   UNL     1       1.378   9.262  18.184  0.00  0.00    +0.000 A 
ATOM     22  C   UNL     1       2.198   8.126  18.162  0.00  0.00    +0.000 A 
ATOM     23  C   UNL     1       2.396   7.339  19.303  0.00  0.00    +0.000 A 
ATOM     24  C   UNL     1       1.770   7.770  20.488  0.00  0.00    +0.000 A 
ATOM     25  C   UNL     1       0.963   8.915  20.533  0.00  0.00    +0.000 A 
BRANCH  23  26
ATOM     26  N   UNL     1       3.197   6.211  19.308  0.00  0.00    +0.000 N 
ATOM     27  C   UNL     1       4.238   5.958  18.296  0.00  0.00    +0.000 C 
ATOM     28  C   UNL     1       3.827   4.822  17.347  0.00  0.00    +0.000 C 
ATOM     29  O   UNL     1       3.477   3.632  18.074  0.00  0.00    +0.000 OA
ATOM     30  C   UNL     1       2.376   3.900  18.955  0.00  0.00    +0.000 C 
ATOM     31  C   UNL     1       2.721   4.989  19.987  0.00  0.00    +0.000 C 
ENDBRANCH  23  26
ENDBRANCH  17  20
ENDBRANCH  10  17
TORSDOF 5
ENDMDL
MODEL 9
REMARK VINA RESULT:      -7.5      2.868      4.207
REMARK  Name = 
REMARK  5 active torsions:
REMARK  status: ('A' for Active; 'I' for Inactive)
REMARK    1  A    between atoms: C_2  and  C_5
REMARK    2  A    between atoms: N_3  and  O_4
REMARK    3  A    between atoms: N_14  and  S_15
REMARK    4  A    between atoms: S_15  and  C_18
REMARK    5  A    between atoms: C_21  and  N_22
REMARK                            x       y       z     vdW  Elec       q    Type
REMARK                         _______ _______ _______ _____ _____    ______ ____
ROOT
ATOM      1  C   UNL     1       0.136  13.373  20.308  0.00  0.00    +0.000 C 
ATOM      2  C   UNL     1       0.014  14.483  19.265  0.00  0.00    +0.000 C 
ATOM      3  C   UNL     1       1.385  14.860  18.779  0.00  0.00    +0.000 A 
ATOM      4  C   UNL     1       1.798  16.189  18.662  0.00  0.00    +0.000 A 
ATOM      5  C   UNL     1       3.063  16.476  18.155  0.00  0.00    +0.000 A 
ATOM      6  C   UNL     1       3.904  15.441  17.746  0.00  0.00    +0.000 A 
ATOM      7  C   UNL     1       3.502  14.113  17.886  0.00  0.00    +0.000 A 
ATOM      8  C   UNL     1       2.253  13.815  18.442  0.00  0.00    +0.000 A 
ATOM      9  C   UNL     1       1.766  12.398  18.603  0.00  0.00    +0.000 C 
ATOM     10  N   UNL     1       0.883  12.147  19.794  0.00  0.00    +0.000 NA
ENDROOT
BRANCH   1  12
ATOM     11  O   UNL     1       1.897  13.860  21.925  0.00  0.00    +0.000 OA
ATOM     12  C   UNL     1       0.707  13.946  21.609  0.00  0.00    +0.000 C 
ATOM     13  N   UNL     1      -0.171  14.652  22.392  0.00  0.00    +0.000 N 
ATOM     14  H   UNL     1      -1.051  14.997  22.026  0.00  0.00    +0.000 HD
BRANCH  13  15
ATOM     15  O   UNL     1       0.402  15.337  23.491  0.00  0.00    +0.000 OA
ATOM     16  H   UNL     1       1.358  15.327  23.270  0.00  0.00    +0.000 HD
ENDBRANCH  13  15
ENDBRANCH   1  12
BRANCH  10  17
ATOM     17  S   UNL     1      -0.156  10.794  19.608  0.00  0.00    +0.000 S 
ATOM     18  O   UNL     1      -0.840  10.627  20.872  0.00  0.00    +0.000 OA
ATOM     19  O   UNL     1      -0.893  10.968  18.379  0.00  0.00    +0.000 OA
BRANCH  17  20
ATOM     20  C   UNL     1       0.945   9.410  19.422  0.00  0.00    +0.000 A 
ATOM     21  C   UNL     1       1.162   8.561  20.506  0.00  0.00    +0.000 A 
ATOM     22  C   UNL     1       1.981   7.433  20.361  0.00  0.00    +0.000 A 
ATOM     23  C   UNL     1       2.606   7.129  19.146  0.00  0.00    +0.000 A 
ATOM     24  C   UNL     1       2.335   7.984  18.061  0.00  0.00    +0.000 A 
ATOM     25  C   UNL     1       1.504   9.106  18.182  0.00  0.00    +0.000 A 
BRANCH  23  26
ATOM     26  N   UNL     1       3.421   6.024  18.975  0.00  0.00    +0.000 N 
ATOM     27  C   UNL     1       4.653   6.050  18.167  0.00  0.00    +0.000 C 
ATOM     28  C   UNL     1       4.478   5.265  16.859  0.00  0.00    +0.000 C 
ATOM     29  O   UNL     1       4.021   3.924  17.110  0.00  0.00    +0.000 OA
ATOM     30  C   UNL     1       2.756   3.954  17.788  0.00  0.00    +0.000 C 
ATOM     31  C   UNL     1       2.853   4.672  19.146  0.00  0.00    +0.000 C 
ENDBRANCH  23  26
ENDBRANCH  17  20
ENDBRANCH  10  17
TORSDOF 5
ENDMDL
