MODEL 1
REMARK VINA RESULT:      -8.4      0.000      0.000
REMARK  Name = 
REMARK  10 active torsions:
REMARK  status: ('A' for Active; 'I' for Inactive)
REMARK    1  A    between atoms: C_1  and  C_2
REMARK    2  A    between atoms: C_2  and  C_3
REMARK    3  A    between atoms: C_2  and  N_4
REMARK    4  A    between atoms: C_7  and  N_8
REMARK    5  A    between atoms: N_8  and  C_9
REMARK    6  A    between atoms: C_11  and  C_12
REMARK    7  A    between atoms: C_12  and  O_13
REMARK    8  A    between atoms: C_14  and  O_15
REMARK    9  A    between atoms: C_16  and  O_17
REMARK   10  A    between atoms: C_18  and  C_19
REMARK                            x       y       z     vdW  Elec       q    Type
REMARK                         _______ _______ _______ _____ _____    ______ ____
ROOT
ATOM      1  N   UNL     1       5.529   6.127  17.230  0.00  0.00    +0.000 N 
ATOM      2  C   UNL     1       4.400   6.569  17.859  0.00  0.00    +0.000 A 
ATOM      3  N   UNL     1       3.782   5.950  18.819  0.00  0.00    +0.000 NA
ATOM      4  C   UNL     1       2.709   6.558  19.443  0.00  0.00    +0.000 A 
ATOM      5  C   UNL     1       2.226   7.776  19.093  0.00  0.00    +0.000 A 
ATOM      6  C   UNL     1       2.728   8.288  17.806  0.00  0.00    +0.000 A 
ATOM      7  O   UNL     1       2.086   9.053  17.091  0.00  0.00    +0.000 OA
ATOM      8  N   UNL     1       3.915   7.757  17.383  0.00  0.00    +0.000 N 
ATOM      9  H   UNL     1       6.068   6.811  16.704  0.00  0.00    +0.000 HD
ATOM     10  H   UNL     1       4.214   8.054  16.467  0.00  0.00    +0.000 HD
ENDROOT
BRANCH   5  11
ATOM     11  C   UNL     1       1.193   8.437  19.835  0.00  0.00    +0.000 A 
ATOM     12  N   UNL     1       0.396   9.398  19.386  0.00  0.00    +0.000 NA
ATOM     13  C   UNL     1      -0.161  10.119  20.439  0.00  0.00    +0.000 A 
ATOM     14  C   UNL     1      -0.963  11.281  20.348  0.00  0.00    +0.000 A 
ATOM     15  C   UNL     1      -1.318  11.983  21.512  0.00  0.00    +0.000 A 
ATOM     16  C   UNL     1      -0.895  11.543  22.759  0.00  0.00    +0.000 A 
ATOM     17  C   UNL     1      -0.158  10.365  22.886  0.00  0.00    +0.000 A 
ATOM     18  C   UNL     1       0.175   9.650  21.713  0.00  0.00    +0.000 A 
ATOM     19  S   UNL     1       1.012   8.156  21.548  0.00  0.00    +0.000 S 
ENDBRANCH   5  11
BRANCH   1  21
ATOM     20  C   UNL     1       6.126   4.120  15.975  0.00  0.00    +0.000 C 
ATOM     21  C   UNL     1       6.162   4.813  17.345  0.00  0.00    +0.000 C 
ATOM     22  C   UNL     1       7.616   4.895  17.805  0.00  0.00    +0.000 C 
ENDBRANCH   1  21
BRANCH   4  23
ATOM     23  N   UNL     1       2.031   5.775  20.371  0.00  0.00    +0.000 N 
ATOM     24  H   UNL     1       1.035   5.953  20.209  0.00  0.00    +0.000 HD
BRANCH  23  25
ATOM     25  C   UNL     1       2.281   4.405  20.822  0.00  0.00    +0.000 C 
ATOM     26  C   UNL     1       3.336   3.600  20.026  0.00  0.00    +0.000 C 
ATOM     27  C   UNL     1       2.563   2.545  19.218  0.00  0.00    +0.000 C 
ATOM     28  C   UNL     1       1.133   3.080  19.207  0.00  0.00    +0.000 C 
ATOM     29  C   UNL     1       0.972   3.606  20.642  0.00  0.00    +0.000 C 
BRANCH  28  30
ATOM     30  O   UNL     1       0.189   2.086  18.861  0.00  0.00    +0.000 OA
ATOM     31  H   UNL     1      -0.634   2.288  19.345  0.00  0.00    +0.000 HD
ENDBRANCH  28  30
BRANCH  29  32
ATOM     32  O   UNL     1       0.824   2.566  21.610  0.00  0.00    +0.000 OA
ATOM     33  H   UNL     1       0.638   2.957  22.481  0.00  0.00    +0.000 HD
ENDBRANCH  29  32
BRANCH  27  34
ATOM     34  C   UNL     1       3.181   2.294  17.849  0.00  0.00    +0.000 C 
BRANCH  34  35
ATOM     35  O   UNL     1       2.510   3.016  16.830  0.00  0.00    +0.000 OA
ATOM     36  H   UNL     1       1.588   2.698  16.803  0.00  0.00    +0.000 HD
ENDBRANCH  34  35
ENDBRANCH  27  34
ENDBRANCH  23  25
ENDBRANCH   4  23
TORSDOF 8
ENDMDL
MODEL 2
REMARK VINA RESULT:      -7.9      4.078      7.993
REMARK  Name = 
REMARK  10 active torsions:
REMARK  status: ('A' for Active; 'I' for Inactive)
REMARK    1  A    between atoms: C_1  and  C_2
REMARK    2  A    between atoms: C_2  and  C_3
REMARK    3  A    between atoms: C_2  and  N_4
REMARK    4  A    between atoms: C_7  and  N_8
REMARK    5  A    between atoms: N_8  and  C_9
REMARK    6  A    between atoms: C_11  and  C_12
REMARK    7  A    between atoms: C_12  and  O_13
REMARK    8  A    between atoms: C_14  and  O_15
REMARK    9  A    between atoms: C_16  and  O_17
REMARK   10  A    between atoms: C_18  and  C_19
REMARK                            x       y       z     vdW  Elec       q    Type
REMARK                         _______ _______ _______ _____ _____    ______ ____
ROOT
ATOM      1  N   UNL     1       1.632   7.459  20.568  0.00  0.00    +0.000 N 
ATOM      2  C   UNL     1       1.174   8.674  20.992  0.00  0.00    +0.000 A 
ATOM      3  N   UNL     1       1.424   9.814  20.422  0.00  0.00    +0.000 NA
ATOM      4  C   UNL     1       0.811  10.961  20.890  0.00  0.00    +0.000 A 
ATOM      5  C   UNL     1      -0.035  10.983  21.950  0.00  0.00    +0.000 A 
ATOM      6  C   UNL     1      -0.031   9.754  22.763  0.00  0.00    +0.000 A 
ATOM      7  O   UNL     1      -0.292   9.742  23.963  0.00  0.00    +0.000 OA
ATOM      8  N   UNL     1       0.408   8.627  22.125  0.00  0.00    +0.000 N 
ATOM      9  H   UNL     1       1.153   6.633  20.917  0.00  0.00    +0.000 HD
ATOM     10  H   UNL     1       0.481   7.807  22.708  0.00  0.00    +0.000 HD
ENDROOT
BRANCH   5  11
ATOM     11  C   UNL     1      -0.753  12.160  22.338  0.00  0.00    +0.000 A 
ATOM     12  N   UNL     1      -0.242  13.235  22.925  0.00  0.00    +0.000 NA
ATOM     13  C   UNL     1      -1.234  13.976  23.563  0.00  0.00    +0.000 A 
ATOM     14  C   UNL     1      -1.054  15.114  24.384  0.00  0.00    +0.000 A 
ATOM     15  C   UNL     1      -2.145  15.657  25.083  0.00  0.00    +0.000 A 
ATOM     16  C   UNL     1      -3.408  15.090  24.969  0.00  0.00    +0.000 A 
ATOM     17  C   UNL     1      -3.629  14.009  24.117  0.00  0.00    +0.000 A 
ATOM     18  C   UNL     1      -2.532  13.482  23.397  0.00  0.00    +0.000 A 
ATOM     19  S   UNL     1      -2.496  12.209  22.242  0.00  0.00    +0.000 S 
ENDBRANCH   5  11
BRANCH   1  21
ATOM     20  C   UNL     1       3.044   5.711  19.613  0.00  0.00    +0.000 C 
ATOM     21  C   UNL     1       2.637   7.191  19.540  0.00  0.00    +0.000 C 
ATOM     22  C   UNL     1       2.132   7.482  18.128  0.00  0.00    +0.000 C 
ENDBRANCH   1  21
BRANCH   4  23
ATOM     23  N   UNL     1       1.232  12.149  20.304  0.00  0.00    +0.000 N 
ATOM     24  H   UNL     1       2.168  12.328  20.683  0.00  0.00    +0.000 HD
BRANCH  23  25
ATOM     25  C   UNL     1       1.091  12.634  18.931  0.00  0.00    +0.000 C 
ATOM     26  C   UNL     1       2.092  13.725  18.480  0.00  0.00    +0.000 C 
ATOM     27  C   UNL     1       1.293  15.035  18.379  0.00  0.00    +0.000 C 
ATOM     28  C   UNL     1       0.041  14.756  19.206  0.00  0.00    +0.000 C 
ATOM     29  C   UNL     1      -0.293  13.309  18.812  0.00  0.00    +0.000 C 
BRANCH  28  30
ATOM     30  O   UNL     1      -1.001  15.672  18.930  0.00  0.00    +0.000 OA
ATOM     31  H   UNL     1      -1.193  15.611  17.975  0.00  0.00    +0.000 HD
ENDBRANCH  28  30
BRANCH  29  32
ATOM     32  O   UNL     1      -0.850  13.197  17.501  0.00  0.00    +0.000 OA
ATOM     33  H   UNL     1      -0.311  13.710  16.874  0.00  0.00    +0.000 HD
ENDBRANCH  29  32
BRANCH  27  34
ATOM     34  C   UNL     1       2.109  16.247  18.810  0.00  0.00    +0.000 C 
BRANCH  34  35
ATOM     35  O   UNL     1       1.396  17.456  18.615  0.00  0.00    +0.000 OA
ATOM     36  H   UNL     1       0.581  17.241  18.125  0.00  0.00    +0.000 HD
ENDBRANCH  34  35
ENDBRANCH  27  34
ENDBRANCH  23  25
ENDBRANCH   4  23
TORSDOF 8
ENDMDL
MODEL 3
REMARK VINA RESULT:      -7.8      2.739      4.520
REMARK  Name = 
REMARK  10 active torsions:
REMARK  status: ('A' for Active; 'I' for Inactive)
REMARK    1  A    between atoms: C_1  and  C_2
REMARK    2  A    between atoms: C_2  and  C_3
REMARK    3  A    between atoms: C_2  and  N_4
REMARK    4  A    between atoms: C_7  and  N_8
REMARK    5  A    between atoms: N_8  and  C_9
REMARK    6  A    between atoms: C_11  and  C_12
REMARK    7  A    between atoms: C_12  and  O_13
REMARK    8  A    between atoms: C_14  and  O_15
REMARK    9  A    between atoms: C_16  and  O_17
REMARK   10  A    between atoms: C_18  and  C_19
REMARK                            x       y       z     vdW  Elec       q    Type
REMARK                         _______ _______ _______ _____ _____    ______ ____
ROOT
ATOM      1  N   UNL     1       1.991   3.895  20.877  0.00  0.00    +0.000 N 
ATOM      2  C   UNL     1       2.042   5.142  20.323  0.00  0.00    +0.000 A 
ATOM      3  N   UNL     1       2.548   5.430  19.163  0.00  0.00    +0.000 NA
ATOM      4  C   UNL     1       2.441   6.719  18.672  0.00  0.00    +0.000 A 
ATOM      5  C   UNL     1       1.853   7.735  19.349  0.00  0.00    +0.000 A 
ATOM      6  C   UNL     1       1.596   7.456  20.773  0.00  0.00    +0.000 A 
ATOM      7  O   UNL     1       1.564   8.332  21.633  0.00  0.00    +0.000 OA
ATOM      8  N   UNL     1       1.519   6.133  21.109  0.00  0.00    +0.000 N 
ATOM      9  H   UNL     1       1.336   3.751  21.642  0.00  0.00    +0.000 HD
ATOM     10  H   UNL     1       1.419   5.948  22.095  0.00  0.00    +0.000 HD
ENDROOT
BRANCH   5  11
ATOM     11  C   UNL     1       1.645   9.029  18.768  0.00  0.00    +0.000 A 
ATOM     12  N   UNL     1       2.587   9.860  18.341  0.00  0.00    +0.000 NA
ATOM     13  C   UNL     1       2.106  11.164  18.263  0.00  0.00    +0.000 A 
ATOM     14  C   UNL     1       2.848  12.330  17.961  0.00  0.00    +0.000 A 
ATOM     15  C   UNL     1       2.247  13.595  18.076  0.00  0.00    +0.000 A 
ATOM     16  C   UNL     1       0.923  13.714  18.478  0.00  0.00    +0.000 A 
ATOM     17  C   UNL     1       0.148  12.580  18.719  0.00  0.00    +0.000 A 
ATOM     18  C   UNL     1       0.751  11.309  18.578  0.00  0.00    +0.000 A 
ATOM     19  S   UNL     1       0.053   9.746  18.747  0.00  0.00    +0.000 S 
ENDBRANCH   5  11
BRANCH   1  21
ATOM     20  C   UNL     1       1.932   2.177  19.143  0.00  0.00    +0.000 C 
ATOM     21  C   UNL     1       2.650   2.678  20.405  0.00  0.00    +0.000 C 
ATOM     22  C   UNL     1       4.123   2.896  20.066  0.00  0.00    +0.000 C 
ENDBRANCH   1  21
BRANCH   4  23
ATOM     23  N   UNL     1       3.119   6.966  17.483  0.00  0.00    +0.000 N 
ATOM     24  H   UNL     1       2.584   7.699  17.007  0.00  0.00    +0.000 HD
BRANCH  23  25
ATOM     25  C   UNL     1       4.554   7.064  17.210  0.00  0.00    +0.000 C 
ATOM     26  C   UNL     1       4.995   6.802  15.750  0.00  0.00    +0.000 C 
ATOM     27  C   UNL     1       5.707   5.439  15.748  0.00  0.00    +0.000 C 
ATOM     28  C   UNL     1       5.235   4.787  17.045  0.00  0.00    +0.000 C 
ATOM     29  C   UNL     1       5.264   5.966  18.030  0.00  0.00    +0.000 C 
BRANCH  28  30
ATOM     30  O   UNL     1       6.060   3.705  17.434  0.00  0.00    +0.000 OA
ATOM     31  H   UNL     1       6.750   3.607  16.750  0.00  0.00    +0.000 HD
ENDBRANCH  28  30
BRANCH  29  32
ATOM     32  O   UNL     1       6.585   6.339  18.423  0.00  0.00    +0.000 OA
ATOM     33  H   UNL     1       6.814   7.196  18.022  0.00  0.00    +0.000 HD
ENDBRANCH  29  32
BRANCH  27  34
ATOM     34  C   UNL     1       5.435   4.644  14.477  0.00  0.00    +0.000 C 
BRANCH  34  35
ATOM     35  O   UNL     1       6.275   3.508  14.379  0.00  0.00    +0.000 OA
ATOM     36  H   UNL     1       6.013   3.016  13.578  0.00  0.00    +0.000 HD
ENDBRANCH  34  35
ENDBRANCH  27  34
ENDBRANCH  23  25
ENDBRANCH   4  23
TORSDOF 8
ENDMDL
MODEL 4
REMARK VINA RESULT:      -7.8      0.989      1.420
REMARK  Name = 
REMARK  10 active torsions:
REMARK  status: ('A' for Active; 'I' for Inactive)
REMARK    1  A    between atoms: C_1  and  C_2
REMARK    2  A    between atoms: C_2  and  C_3
REMARK    3  A    between atoms: C_2  and  N_4
REMARK    4  A    between atoms: C_7  and  N_8
REMARK    5  A    between atoms: N_8  and  C_9
REMARK    6  A    between atoms: C_11  and  C_12
REMARK    7  A    between atoms: C_12  and  O_13
REMARK    8  A    between atoms: C_14  and  O_15
REMARK    9  A    between atoms: C_16  and  O_17
REMARK   10  A    between atoms: C_18  and  C_19
REMARK                            x       y       z     vdW  Elec       q    Type
REMARK                         _______ _______ _______ _____ _____    ______ ____
ROOT
ATOM      1  N   UNL     1       5.511   6.146  17.319  0.00  0.00    +0.000 N 
ATOM      2  C   UNL     1       4.374   6.596  17.927  0.00  0.00    +0.000 A 
ATOM      3  N   UNL     1       3.738   5.986  18.880  0.00  0.00    +0.000 NA
ATOM      4  C   UNL     1       2.658   6.602  19.484  0.00  0.00    +0.000 A 
ATOM      5  C   UNL     1       2.186   7.820  19.120  0.00  0.00    +0.000 A 
ATOM      6  C   UNL     1       2.710   8.322  17.838  0.00  0.00    +0.000 A 
ATOM      7  O   UNL     1       2.083   9.086  17.109  0.00  0.00    +0.000 OA
ATOM      8  N   UNL     1       3.901   7.784  17.437  0.00  0.00    +0.000 N 
ATOM      9  H   UNL     1       6.061   6.825  16.797  0.00  0.00    +0.000 HD
ATOM     10  H   UNL     1       4.217   8.075  16.525  0.00  0.00    +0.000 HD
ENDROOT
BRANCH   5  11
ATOM     11  C   UNL     1       1.145   8.490  19.842  0.00  0.00    +0.000 A 
ATOM     12  N   UNL     1       0.295   9.382  19.349  0.00  0.00    +0.000 NA
ATOM     13  C   UNL     1      -0.265  10.154  20.363  0.00  0.00    +0.000 A 
ATOM     14  C   UNL     1      -1.118  11.272  20.212  0.00  0.00    +0.000 A 
ATOM     15  C   UNL     1      -1.474  12.041  21.333  0.00  0.00    +0.000 A 
ATOM     16  C   UNL     1      -1.001  11.710  22.596  0.00  0.00    +0.000 A 
ATOM     17  C   UNL     1      -0.211  10.576  22.785  0.00  0.00    +0.000 A 
ATOM     18  C   UNL     1       0.123   9.792  21.657  0.00  0.00    +0.000 A 
ATOM     19  S   UNL     1       1.020   8.326  21.575  0.00  0.00    +0.000 S 
ENDBRANCH   5  11
BRANCH   1  21
ATOM     20  C   UNL     1       6.076   4.111  16.094  0.00  0.00    +0.000 C 
ATOM     21  C   UNL     1       6.136   4.830  17.450  0.00  0.00    +0.000 C 
ATOM     22  C   UNL     1       7.596   4.910  17.890  0.00  0.00    +0.000 C 
ENDBRANCH   1  21
BRANCH   4  23
ATOM     23  N   UNL     1       1.962   5.827  20.405  0.00  0.00    +0.000 N 
ATOM     24  H   UNL     1       1.320   6.470  20.881  0.00  0.00    +0.000 HD
BRANCH  23  25
ATOM     25  C   UNL     1       1.404   4.479  20.285  0.00  0.00    +0.000 C 
ATOM     26  C   UNL     1       2.092   3.372  21.119  0.00  0.00    +0.000 C 
ATOM     27  C   UNL     1       2.856   2.486  20.122  0.00  0.00    +0.000 C 
ATOM     28  C   UNL     1       2.969   3.363  18.877  0.00  0.00    +0.000 C 
ATOM     29  C   UNL     1       1.584   4.026  18.820  0.00  0.00    +0.000 C 
BRANCH  28  30
ATOM     30  O   UNL     1       3.285   2.615  17.718  0.00  0.00    +0.000 OA
ATOM     31  H   UNL     1       3.010   3.147  16.948  0.00  0.00    +0.000 HD
ENDBRANCH  28  30
BRANCH  29  32
ATOM     32  O   UNL     1       0.552   3.138  18.387  0.00  0.00    +0.000 OA
ATOM     33  H   UNL     1      -0.223   3.654  18.105  0.00  0.00    +0.000 HD
ENDBRANCH  29  32
BRANCH  27  34
ATOM     34  C   UNL     1       4.176   1.977  20.689  0.00  0.00    +0.000 C 
BRANCH  34  35
ATOM     35  O   UNL     1       5.231   2.099  19.751  0.00  0.00    +0.000 OA
ATOM     36  H   UNL     1       5.640   1.219  19.653  0.00  0.00    +0.000 HD
ENDBRANCH  34  35
ENDBRANCH  27  34
ENDBRANCH  23  25
ENDBRANCH   4  23
TORSDOF 8
ENDMDL
MODEL 5
REMARK VINA RESULT:      -7.7      4.213      8.164
REMARK  Name = 
REMARK  10 active torsions:
REMARK  status: ('A' for Active; 'I' for Inactive)
REMARK    1  A    between atoms: C_1  and  C_2
REMARK    2  A    between atoms: C_2  and  C_3
REMARK    3  A    between atoms: C_2  and  N_4
REMARK    4  A    between atoms: C_7  and  N_8
REMARK    5  A    between atoms: N_8  and  C_9
REMARK    6  A    between atoms: C_11  and  C_12
REMARK    7  A    between atoms: C_12  and  O_13
REMARK    8  A    between atoms: C_14  and  O_15
REMARK    9  A    between atoms: C_16  and  O_17
REMARK   10  A    between atoms: C_18  and  C_19
REMARK                            x       y       z     vdW  Elec       q    Type
REMARK                         _______ _______ _______ _____ _____    ______ ____
ROOT
ATOM      1  N   UNL     1       1.568   7.725  20.218  0.00  0.00    +0.000 N 
ATOM      2  C   UNL     1       1.108   8.917  20.701  0.00  0.00    +0.000 A 
ATOM      3  N   UNL     1       1.227  10.066  20.109  0.00  0.00    +0.000 NA
ATOM      4  C   UNL     1       0.622  11.182  20.656  0.00  0.00    +0.000 A 
ATOM      5  C   UNL     1      -0.082  11.164  21.814  0.00  0.00    +0.000 A 
ATOM      6  C   UNL     1       0.085   9.939  22.615  0.00  0.00    +0.000 A 
ATOM      7  O   UNL     1      -0.020   9.917  23.839  0.00  0.00    +0.000 OA
ATOM      8  N   UNL     1       0.496   8.834  21.923  0.00  0.00    +0.000 N 
ATOM      9  H   UNL     1       1.178   6.876  20.622  0.00  0.00    +0.000 HD
ATOM     10  H   UNL     1       0.682   8.020  22.488  0.00  0.00    +0.000 HD
ENDROOT
BRANCH   5  11
ATOM     11  C   UNL     1      -0.803  12.306  22.295  0.00  0.00    +0.000 A 
ATOM     12  N   UNL     1      -0.283  13.365  22.903  0.00  0.00    +0.000 NA
ATOM     13  C   UNL     1      -1.254  14.053  23.627  0.00  0.00    +0.000 A 
ATOM     14  C   UNL     1      -1.052  15.156  24.490  0.00  0.00    +0.000 A 
ATOM     15  C   UNL     1      -2.115  15.641  25.271  0.00  0.00    +0.000 A 
ATOM     16  C   UNL     1      -3.370  15.050  25.201  0.00  0.00    +0.000 A 
ATOM     17  C   UNL     1      -3.615  14.003  24.312  0.00  0.00    +0.000 A 
ATOM     18  C   UNL     1      -2.548  13.536  23.510  0.00  0.00    +0.000 A 
ATOM     19  S   UNL     1      -2.549  12.317  22.297  0.00  0.00    +0.000 S 
ENDBRANCH   5  11
BRANCH   1  21
ATOM     20  C   UNL     1       2.557   5.995  18.808  0.00  0.00    +0.000 C 
ATOM     21  C   UNL     1       2.445   7.504  19.069  0.00  0.00    +0.000 C 
ATOM     22  C   UNL     1       1.936   8.177  17.796  0.00  0.00    +0.000 C 
ENDBRANCH   1  21
BRANCH   4  23
ATOM     23  N   UNL     1       0.906  12.389  20.025  0.00  0.00    +0.000 N 
ATOM     24  H   UNL     1       0.257  13.072  20.430  0.00  0.00    +0.000 HD
BRANCH  23  25
ATOM     25  C   UNL     1       2.188  12.993  19.662  0.00  0.00    +0.000 C 
ATOM     26  C   UNL     1       2.916  13.784  20.775  0.00  0.00    +0.000 C 
ATOM     27  C   UNL     1       2.802  15.270  20.401  0.00  0.00    +0.000 C 
ATOM     28  C   UNL     1       1.650  15.300  19.399  0.00  0.00    +0.000 C 
ATOM     29  C   UNL     1       1.918  14.040  18.560  0.00  0.00    +0.000 C 
BRANCH  28  30
ATOM     30  O   UNL     1       1.630  16.492  18.637  0.00  0.00    +0.000 OA
ATOM     31  H   UNL     1       2.510  16.905  18.725  0.00  0.00    +0.000 HD
ENDBRANCH  28  30
BRANCH  29  32
ATOM     32  O   UNL     1       3.016  14.187  17.658  0.00  0.00    +0.000 OA
ATOM     33  H   UNL     1       2.761  13.856  16.780  0.00  0.00    +0.000 HD
ENDBRANCH  29  32
BRANCH  27  34
ATOM     34  C   UNL     1       2.632  16.165  21.622  0.00  0.00    +0.000 C 
BRANCH  34  35
ATOM     35  O   UNL     1       1.936  15.505  22.664  0.00  0.00    +0.000 OA
ATOM     36  H   UNL     1       1.378  14.817  22.255  0.00  0.00    +0.000 HD
ENDBRANCH  34  35
ENDBRANCH  27  34
ENDBRANCH  23  25
ENDBRANCH   4  23
TORSDOF 8
ENDMDL
MODEL 6
REMARK VINA RESULT:      -7.7      4.364      8.250
REMARK  Name = 
REMARK  10 active torsions:
REMARK  status: ('A' for Active; 'I' for Inactive)
REMARK    1  A    between atoms: C_1  and  C_2
REMARK    2  A    between atoms: C_2  and  C_3
REMARK    3  A    between atoms: C_2  and  N_4
REMARK    4  A    between atoms: C_7  and  N_8
REMARK    5  A    between atoms: N_8  and  C_9
REMARK    6  A    between atoms: C_11  and  C_12
REMARK    7  A    between atoms: C_12  and  O_13
REMARK    8  A    between atoms: C_14  and  O_15
REMARK    9  A    between atoms: C_16  and  O_17
REMARK   10  A    between atoms: C_18  and  C_19
REMARK                            x       y       z     vdW  Elec       q    Type
REMARK                         _______ _______ _______ _____ _____    ______ ____
ROOT
ATOM      1  N   UNL     1       1.438   7.800  20.268  0.00  0.00    +0.000 N 
ATOM      2  C   UNL     1       1.024   9.003  20.764  0.00  0.00    +0.000 A 
ATOM      3  N   UNL     1       1.346  10.166  20.285  0.00  0.00    +0.000 NA
ATOM      4  C   UNL     1       0.772  11.307  20.816  0.00  0.00    +0.000 A 
ATOM      5  C   UNL     1      -0.107  11.295  21.849  0.00  0.00    +0.000 A 
ATOM      6  C   UNL     1      -0.188  10.013  22.571  0.00  0.00    +0.000 A 
ATOM      7  O   UNL     1      -0.488   9.930  23.759  0.00  0.00    +0.000 OA
ATOM      8  N   UNL     1       0.220   8.914  21.868  0.00  0.00    +0.000 N 
ATOM      9  H   UNL     1       0.909   6.976  20.542  0.00  0.00    +0.000 HD
ATOM     10  H   UNL     1       0.234   8.052  22.392  0.00  0.00    +0.000 HD
ENDROOT
BRANCH   5  11
ATOM     11  C   UNL     1      -0.782  12.477  22.299  0.00  0.00    +0.000 A 
ATOM     12  N   UNL     1      -0.266  13.436  23.057  0.00  0.00    +0.000 NA
ATOM     13  C   UNL     1      -1.269  14.179  23.675  0.00  0.00    +0.000 A 
ATOM     14  C   UNL     1      -1.102  15.201  24.639  0.00  0.00    +0.000 A 
ATOM     15  C   UNL     1      -2.224  15.749  25.283  0.00  0.00    +0.000 A 
ATOM     16  C   UNL     1      -3.503  15.301  24.978  0.00  0.00    +0.000 A 
ATOM     17  C   UNL     1      -3.702  14.341  23.986  0.00  0.00    +0.000 A 
ATOM     18  C   UNL     1      -2.571  13.811  23.323  0.00  0.00    +0.000 A 
ATOM     19  S   UNL     1      -2.496  12.674  22.035  0.00  0.00    +0.000 S 
ENDBRANCH   5  11
BRANCH   1  21
ATOM     20  C   UNL     1       2.770   6.051  19.206  0.00  0.00    +0.000 C 
ATOM     21  C   UNL     1       2.463   7.555  19.253  0.00  0.00    +0.000 C 
ATOM     22  C   UNL     1       2.033   8.003  17.858  0.00  0.00    +0.000 C 
ENDBRANCH   1  21
BRANCH   4  23
ATOM     23  N   UNL     1       1.267  12.511  20.330  0.00  0.00    +0.000 N 
ATOM     24  H   UNL     1       2.268  12.509  20.553  0.00  0.00    +0.000 HD
BRANCH  23  25
ATOM     25  C   UNL     1       0.982  13.223  19.083  0.00  0.00    +0.000 C 
ATOM     26  C   UNL     1       2.204  13.614  18.219  0.00  0.00    +0.000 C 
ATOM     27  C   UNL     1       2.356  15.139  18.343  0.00  0.00    +0.000 C 
ATOM     28  C   UNL     1       1.556  15.478  19.598  0.00  0.00    +0.000 C 
ATOM     29  C   UNL     1       0.324  14.570  19.453  0.00  0.00    +0.000 C 
BRANCH  28  30
ATOM     30  O   UNL     1       1.237  16.854  19.678  0.00  0.00    +0.000 OA
ATOM     31  H   UNL     1       1.655  17.200  20.490  0.00  0.00    +0.000 HD
ENDBRANCH  28  30
BRANCH  29  32
ATOM     32  O   UNL     1      -0.596  15.025  18.460  0.00  0.00    +0.000 OA
ATOM     33  H   UNL     1      -1.328  14.389  18.380  0.00  0.00    +0.000 HD
ENDBRANCH  29  32
BRANCH  27  34
ATOM     34  C   UNL     1       3.815  15.578  18.355  0.00  0.00    +0.000 C 
BRANCH  34  35
ATOM     35  O   UNL     1       3.940  16.986  18.257  0.00  0.00    +0.000 OA
ATOM     36  H   UNL     1       3.613  17.369  19.092  0.00  0.00    +0.000 HD
ENDBRANCH  34  35
ENDBRANCH  27  34
ENDBRANCH  23  25
ENDBRANCH   4  23
TORSDOF 8
ENDMDL
MODEL 7
REMARK VINA RESULT:      -7.7      1.825      6.362
REMARK  Name = 
REMARK  10 active torsions:
REMARK  status: ('A' for Active; 'I' for Inactive)
REMARK    1  A    between atoms: C_1  and  C_2
REMARK    2  A    between atoms: C_2  and  C_3
REMARK    3  A    between atoms: C_2  and  N_4
REMARK    4  A    between atoms: C_7  and  N_8
REMARK    5  A    between atoms: N_8  and  C_9
REMARK    6  A    between atoms: C_11  and  C_12
REMARK    7  A    between atoms: C_12  and  O_13
REMARK    8  A    between atoms: C_14  and  O_15
REMARK    9  A    between atoms: C_16  and  O_17
REMARK   10  A    between atoms: C_18  and  C_19
REMARK                            x       y       z     vdW  Elec       q    Type
REMARK                         _______ _______ _______ _____ _____    ______ ____
ROOT
ATOM      1  N   UNL     1      -0.060   9.689  21.094  0.00  0.00    +0.000 N 
ATOM      2  C   UNL     1       0.846   8.991  20.347  0.00  0.00    +0.000 A 
ATOM      3  N   UNL     1       1.372   7.850  20.675  0.00  0.00    +0.000 NA
ATOM      4  C   UNL     1       2.197   7.196  19.779  0.00  0.00    +0.000 A 
ATOM      5  C   UNL     1       2.525   7.690  18.560  0.00  0.00    +0.000 A 
ATOM      6  C   UNL     1       2.188   9.110  18.363  0.00  0.00    +0.000 A 
ATOM      7  O   UNL     1       2.814   9.850  17.607  0.00  0.00    +0.000 OA
ATOM      8  N   UNL     1       1.205   9.601  19.176  0.00  0.00    +0.000 N 
ATOM      9  H   UNL     1      -0.600  10.409  20.619  0.00  0.00    +0.000 HD
ATOM     10  H   UNL     1       1.032  10.591  19.089  0.00  0.00    +0.000 HD
ENDROOT
BRANCH   5  11
ATOM     11  C   UNL     1       3.280   6.937  17.602  0.00  0.00    +0.000 A 
ATOM     12  N   UNL     1       3.176   5.635  17.367  0.00  0.00    +0.000 NA
ATOM     13  C   UNL     1       4.318   5.148  16.736  0.00  0.00    +0.000 A 
ATOM     14  C   UNL     1       4.616   3.798  16.435  0.00  0.00    +0.000 A 
ATOM     15  C   UNL     1       5.883   3.452  15.936  0.00  0.00    +0.000 A 
ATOM     16  C   UNL     1       6.849   4.427  15.727  0.00  0.00    +0.000 A 
ATOM     17  C   UNL     1       6.563   5.773  15.953  0.00  0.00    +0.000 A 
ATOM     18  C   UNL     1       5.278   6.118  16.432  0.00  0.00    +0.000 A 
ATOM     19  S   UNL     1       4.613   7.672  16.748  0.00  0.00    +0.000 S 
ENDBRANCH   5  11
BRANCH   1  21
ATOM     20  C   UNL     1       0.776   9.257  23.347  0.00  0.00    +0.000 C 
ATOM     21  C   UNL     1      -0.475   9.429  22.472  0.00  0.00    +0.000 C 
ATOM     22  C   UNL     1      -1.322  10.556  23.058  0.00  0.00    +0.000 C 
ENDBRANCH   1  21
BRANCH   4  23
ATOM     23  N   UNL     1       2.814   6.047  20.261  0.00  0.00    +0.000 N 
ATOM     24  H   UNL     1       3.666   6.367  20.733  0.00  0.00    +0.000 HD
BRANCH  23  25
ATOM     25  C   UNL     1       2.246   4.856  20.895  0.00  0.00    +0.000 C 
ATOM     26  C   UNL     1       3.250   3.758  21.321  0.00  0.00    +0.000 C 
ATOM     27  C   UNL     1       3.054   2.586  20.346  0.00  0.00    +0.000 C 
ATOM     28  C   UNL     1       2.329   3.222  19.163  0.00  0.00    +0.000 C 
ATOM     29  C   UNL     1       1.334   4.163  19.860  0.00  0.00    +0.000 C 
BRANCH  28  30
ATOM     30  O   UNL     1       1.709   2.259  18.332  0.00  0.00    +0.000 OA
ATOM     31  H   UNL     1       1.697   1.417  18.825  0.00  0.00    +0.000 HD
ENDBRANCH  28  30
BRANCH  29  32
ATOM     32  O   UNL     1       0.237   3.476  20.464  0.00  0.00    +0.000 OA
ATOM     33  H   UNL     1       0.391   2.517  20.420  0.00  0.00    +0.000 HD
ENDBRANCH  29  32
BRANCH  27  34
ATOM     34  C   UNL     1       4.365   1.884  20.013  0.00  0.00    +0.000 C 
BRANCH  34  35
ATOM     35  O   UNL     1       4.302   1.222  18.762  0.00  0.00    +0.000 OA
ATOM     36  H   UNL     1       3.940   1.854  18.113  0.00  0.00    +0.000 HD
ENDBRANCH  34  35
ENDBRANCH  27  34
ENDBRANCH  23  25
ENDBRANCH   4  23
TORSDOF 8
ENDMDL
MODEL 8
REMARK VINA RESULT:      -7.7      6.075      9.095
REMARK  Name = 
REMARK  10 active torsions:
REMARK  status: ('A' for Active; 'I' for Inactive)
REMARK    1  A    between atoms: C_1  and  C_2
REMARK    2  A    between atoms: C_2  and  C_3
REMARK    3  A    between atoms: C_2  and  N_4
REMARK    4  A    between atoms: C_7  and  N_8
REMARK    5  A    between atoms: N_8  and  C_9
REMARK    6  A    between atoms: C_11  and  C_12
REMARK    7  A    between atoms: C_12  and  O_13
REMARK    8  A    between atoms: C_14  and  O_15
REMARK    9  A    between atoms: C_16  and  O_17
REMARK   10  A    between atoms: C_18  and  C_19
REMARK                            x       y       z     vdW  Elec       q    Type
REMARK                         _______ _______ _______ _____ _____    ______ ____
ROOT
ATOM      1  N   UNL     1      -4.301  10.995  15.401  0.00  0.00    +0.000 N 
ATOM      2  C   UNL     1      -4.499  11.357  16.703  0.00  0.00    +0.000 A 
ATOM      3  N   UNL     1      -3.568  11.477  17.601  0.00  0.00    +0.000 NA
ATOM      4  C   UNL     1      -3.890  11.956  18.857  0.00  0.00    +0.000 A 
ATOM      5  C   UNL     1      -5.148  12.291  19.235  0.00  0.00    +0.000 A 
ATOM      6  C   UNL     1      -6.207  11.833  18.319  0.00  0.00    +0.000 A 
ATOM      7  O   UNL     1      -7.350  11.576  18.688  0.00  0.00    +0.000 OA
ATOM      8  N   UNL     1      -5.807  11.583  17.036  0.00  0.00    +0.000 N 
ATOM      9  H   UNL     1      -5.046  11.204  14.740  0.00  0.00    +0.000 HD
ATOM     10  H   UNL     1      -6.518  11.197  16.434  0.00  0.00    +0.000 HD
ENDROOT
BRANCH   5  11
ATOM     11  C   UNL     1      -5.435  12.901  20.500  0.00  0.00    +0.000 A 
ATOM     12  N   UNL     1      -5.717  12.268  21.632  0.00  0.00    +0.000 NA
ATOM     13  C   UNL     1      -6.374  13.110  22.526  0.00  0.00    +0.000 A 
ATOM     14  C   UNL     1      -6.929  12.758  23.778  0.00  0.00    +0.000 A 
ATOM     15  C   UNL     1      -7.699  13.691  24.494  0.00  0.00    +0.000 A 
ATOM     16  C   UNL     1      -7.915  14.966  23.985  0.00  0.00    +0.000 A 
ATOM     17  C   UNL     1      -7.327  15.362  22.784  0.00  0.00    +0.000 A 
ATOM     18  C   UNL     1      -6.533  14.427  22.081  0.00  0.00    +0.000 A 
ATOM     19  S   UNL     1      -5.642  14.630  20.625  0.00  0.00    +0.000 S 
ENDBRANCH   5  11
BRANCH   1  21
ATOM     20  C   UNL     1      -2.453   9.433  15.730  0.00  0.00    +0.000 C 
ATOM     21  C   UNL     1      -3.076  10.478  14.792  0.00  0.00    +0.000 C 
ATOM     22  C   UNL     1      -3.320   9.822  13.435  0.00  0.00    +0.000 C 
ENDBRANCH   1  21
BRANCH   4  23
ATOM     23  N   UNL     1      -2.859  11.933  19.790  0.00  0.00    +0.000 N 
ATOM     24  H   UNL     1      -2.860  10.984  20.180  0.00  0.00    +0.000 HD
BRANCH  23  25
ATOM     25  C   UNL     1      -1.514  12.505  19.736  0.00  0.00    +0.000 C 
ATOM     26  C   UNL     1      -0.493  11.779  18.828  0.00  0.00    +0.000 C 
ATOM     27  C   UNL     1       0.503  11.077  19.765  0.00  0.00    +0.000 C 
ATOM     28  C   UNL     1      -0.235  11.028  21.100  0.00  0.00    +0.000 C 
ATOM     29  C   UNL     1      -0.906  12.410  21.151  0.00  0.00    +0.000 C 
BRANCH  28  30
ATOM     30  O   UNL     1       0.635  10.782  22.188  0.00  0.00    +0.000 OA
ATOM     31  H   UNL     1       0.574  11.551  22.786  0.00  0.00    +0.000 HD
ENDBRANCH  28  30
BRANCH  29  32
ATOM     32  O   UNL     1       0.010  13.470  21.431  0.00  0.00    +0.000 OA
ATOM     33  H   UNL     1      -0.073  14.159  20.749  0.00  0.00    +0.000 HD
ENDBRANCH  29  32
BRANCH  27  34
ATOM     34  C   UNL     1       0.965   9.732  19.220  0.00  0.00    +0.000 C 
BRANCH  34  35
ATOM     35  O   UNL     1       1.202   8.798  20.259  0.00  0.00    +0.000 OA
ATOM     36  H   UNL     1       2.099   8.438  20.132  0.00  0.00    +0.000 HD
ENDBRANCH  34  35
ENDBRANCH  27  34
ENDBRANCH  23  25
ENDBRANCH   4  23
TORSDOF 8
ENDMDL
MODEL 9
REMARK VINA RESULT:      -7.6      2.884      4.998
REMARK  Name = 
REMARK  10 active torsions:
REMARK  status: ('A' for Active; 'I' for Inactive)
REMARK    1  A    between atoms: C_1  and  C_2
REMARK    2  A    between atoms: C_2  and  C_3
REMARK    3  A    between atoms: C_2  and  N_4
REMARK    4  A    between atoms: C_7  and  N_8
REMARK    5  A    between atoms: N_8  and  C_9
REMARK    6  A    between atoms: C_11  and  C_12
REMARK    7  A    between atoms: C_12  and  O_13
REMARK    8  A    between atoms: C_14  and  O_15
REMARK    9  A    between atoms: C_16  and  O_17
REMARK   10  A    between atoms: C_18  and  C_19
REMARK                            x       y       z     vdW  Elec       q    Type
REMARK                         _______ _______ _______ _____ _____    ______ ____
ROOT
ATOM      1  N   UNL     1       1.819   3.953  21.050  0.00  0.00    +0.000 N 
ATOM      2  C   UNL     1       1.913   5.191  20.481  0.00  0.00    +0.000 A 
ATOM      3  N   UNL     1       2.470   5.454  19.338  0.00  0.00    +0.000 NA
ATOM      4  C   UNL     1       2.404   6.736  18.824  0.00  0.00    +0.000 A 
ATOM      5  C   UNL     1       1.805   7.771  19.462  0.00  0.00    +0.000 A 
ATOM      6  C   UNL     1       1.485   7.518  20.878  0.00  0.00    +0.000 A 
ATOM      7  O   UNL     1       1.432   8.407  21.724  0.00  0.00    +0.000 OA
ATOM      8  N   UNL     1       1.373   6.202  21.230  0.00  0.00    +0.000 N 
ATOM      9  H   UNL     1       1.131   3.831  21.790  0.00  0.00    +0.000 HD
ATOM     10  H   UNL     1       1.230   6.033  22.214  0.00  0.00    +0.000 HD
ENDROOT
BRANCH   5  11
ATOM     11  C   UNL     1       1.640   9.059  18.854  0.00  0.00    +0.000 A 
ATOM     12  N   UNL     1       2.607   9.831  18.374  0.00  0.00    +0.000 NA
ATOM     13  C   UNL     1       2.189  11.155  18.278  0.00  0.00    +0.000 A 
ATOM     14  C   UNL     1       2.976  12.275  17.921  0.00  0.00    +0.000 A 
ATOM     15  C   UNL     1       2.443  13.571  18.022  0.00  0.00    +0.000 A 
ATOM     16  C   UNL     1       1.140  13.766  18.464  0.00  0.00    +0.000 A 
ATOM     17  C   UNL     1       0.319  12.678  18.760  0.00  0.00    +0.000 A 
ATOM     18  C   UNL     1       0.854  11.375  18.633  0.00  0.00    +0.000 A 
ATOM     19  S   UNL     1       0.086   9.854  18.867  0.00  0.00    +0.000 S 
ENDBRANCH   5  11
BRANCH   1  21
ATOM     20  C   UNL     1       1.830   2.231  19.320  0.00  0.00    +0.000 C 
ATOM     21  C   UNL     1       2.478   2.719  20.623  0.00  0.00    +0.000 C 
ATOM     22  C   UNL     1       3.974   2.901  20.379  0.00  0.00    +0.000 C 
ENDBRANCH   1  21
BRANCH   4  23
ATOM     23  N   UNL     1       3.134   6.955  17.661  0.00  0.00    +0.000 N 
ATOM     24  H   UNL     1       3.429   7.936  17.701  0.00  0.00    +0.000 HD
BRANCH  23  25
ATOM     25  C   UNL     1       4.116   6.110  16.981  0.00  0.00    +0.000 C 
ATOM     26  C   UNL     1       4.981   5.197  17.884  0.00  0.00    +0.000 C 
ATOM     27  C   UNL     1       6.397   5.796  17.880  0.00  0.00    +0.000 C 
ATOM     28  C   UNL     1       6.179   7.227  17.396  0.00  0.00    +0.000 C 
ATOM     29  C   UNL     1       5.133   7.039  16.286  0.00  0.00    +0.000 C 
BRANCH  28  30
ATOM     30  O   UNL     1       7.377   7.832  16.947  0.00  0.00    +0.000 OA
ATOM     31  H   UNL     1       8.103   7.205  17.131  0.00  0.00    +0.000 HD
ENDBRANCH  28  30
BRANCH  29  32
ATOM     32  O   UNL     1       5.675   6.470  15.093  0.00  0.00    +0.000 OA
ATOM     33  H   UNL     1       5.130   6.733  14.331  0.00  0.00    +0.000 HD
ENDBRANCH  29  32
BRANCH  27  34
ATOM     34  C   UNL     1       7.090   5.657  19.229  0.00  0.00    +0.000 C 
BRANCH  34  35
ATOM     35  O   UNL     1       8.313   6.371  19.267  0.00  0.00    +0.000 OA
ATOM     36  H   UNL     1       8.228   7.062  19.950  0.00  0.00    +0.000 HD
ENDBRANCH  34  35
ENDBRANCH  27  34
ENDBRANCH  23  25
ENDBRANCH   4  23
TORSDOF 8
ENDMDL
