MODEL 1
REMARK VINA RESULT:      -7.8      0.000      0.000
REMARK  Name = 
REMARK  7 active torsions:
REMARK  status: ('A' for Active; 'I' for Inactive)
REMARK    1  A    between atoms: C_1  and  C_2
REMARK    2  A    between atoms: N_4  and  C_5
REMARK    3  A    between atoms: C_5  and  C_6
REMARK    4  A    between atoms: N_11  and  C_12
REMARK    5  A    between atoms: C_15  and  C_16
REMARK    6  A    between atoms: C_16  and  C_17
REMARK    7  A    between atoms: C_16  and  C_18
REMARK                            x       y       z     vdW  Elec       q    Type
REMARK                         _______ _______ _______ _____ _____    ______ ____
ROOT
ATOM      1  C   UNL     1       7.600   6.770  18.000  0.00  0.00    +0.000 C 
ATOM      2  C   UNL     1       7.036   5.969  16.866  0.00  0.00    +0.000 A 
ATOM      3  N   UNL     1       7.598   5.937  15.681  0.00  0.00    +0.000 NA
ATOM      4  N   UNL     1       6.835   5.024  14.981  0.00  0.00    +0.000 N 
ATOM      5  C   UNL     1       5.762   4.594  15.764  0.00  0.00    +0.000 A 
ATOM      6  O   UNL     1       4.814   3.920  15.385  0.00  0.00    +0.000 OA
ATOM      7  N   UNL     1       5.956   5.176  16.999  0.00  0.00    +0.000 N 
ENDROOT
BRANCH   7   8
ATOM      8  C   UNL     1       5.042   5.010  18.046  0.00  0.00    +0.000 A 
ATOM      9  C   UNL     1       5.115   3.832  18.798  0.00  0.00    +0.000 A 
ATOM     10  C   UNL     1       4.155   3.536  19.761  0.00  0.00    +0.000 A 
ATOM     11  C   UNL     1       3.079   4.402  19.974  0.00  0.00    +0.000 A 
ATOM     12  C   UNL     1       3.003   5.582  19.213  0.00  0.00    +0.000 A 
ATOM     13  C   UNL     1       3.991   5.900  18.271  0.00  0.00    +0.000 A 
BRANCH  11  14
ATOM     14  C   UNL     1       2.042   4.042  21.020  0.00  0.00    +0.000 C 
ATOM     15  C   UNL     1       0.642   4.032  20.407  0.00  0.00    +0.000 C 
ATOM     16  C   UNL     1       2.359   2.721  21.721  0.00  0.00    +0.000 C 
ENDBRANCH  11  14
ENDBRANCH   7   8
BRANCH   4  17
ATOM     17  C   UNL     1       6.884   4.840  13.554  0.00  0.00    +0.000 C 
BRANCH  17  18
ATOM     18  C   UNL     1       6.277   3.550  13.104  0.00  0.00    +0.000 C 
ATOM     19  C   UNL     1       5.226   3.447  12.023  0.00  0.00    +0.000 C 
ATOM     20  C   UNL     1       6.639   3.036  11.727  0.00  0.00    +0.000 C 
ENDBRANCH  17  18
ENDBRANCH   4  17
TORSDOF 4
ENDMDL
MODEL 2
REMARK VINA RESULT:      -7.5      3.183      4.509
REMARK  Name = 
REMARK  7 active torsions:
REMARK  status: ('A' for Active; 'I' for Inactive)
REMARK    1  A    between atoms: C_1  and  C_2
REMARK    2  A    between atoms: N_4  and  C_5
REMARK    3  A    between atoms: C_5  and  C_6
REMARK    4  A    between atoms: N_11  and  C_12
REMARK    5  A    between atoms: C_15  and  C_16
REMARK    6  A    between atoms: C_16  and  C_17
REMARK    7  A    between atoms: C_16  and  C_18
REMARK                            x       y       z     vdW  Elec       q    Type
REMARK                         _______ _______ _______ _____ _____    ______ ____
ROOT
ATOM      1  C   UNL     1       1.531   4.231  18.010  0.00  0.00    +0.000 C 
ATOM      2  C   UNL     1       2.906   4.727  17.679  0.00  0.00    +0.000 A 
ATOM      3  N   UNL     1       3.816   3.959  17.128  0.00  0.00    +0.000 NA
ATOM      4  N   UNL     1       4.877   4.815  16.906  0.00  0.00    +0.000 N 
ATOM      5  C   UNL     1       4.590   6.079  17.424  0.00  0.00    +0.000 A 
ATOM      6  O   UNL     1       5.377   7.009  17.538  0.00  0.00    +0.000 OA
ATOM      7  N   UNL     1       3.284   6.006  17.862  0.00  0.00    +0.000 N 
ENDROOT
BRANCH   7   8
ATOM      8  C   UNL     1       2.655   7.086  18.493  0.00  0.00    +0.000 A 
ATOM      9  C   UNL     1       2.340   6.958  19.850  0.00  0.00    +0.000 A 
ATOM     10  C   UNL     1       1.594   7.931  20.507  0.00  0.00    +0.000 A 
ATOM     11  C   UNL     1       1.119   9.045  19.811  0.00  0.00    +0.000 A 
ATOM     12  C   UNL     1       1.430   9.170  18.445  0.00  0.00    +0.000 A 
ATOM     13  C   UNL     1       2.216   8.210  17.793  0.00  0.00    +0.000 A 
BRANCH  11  14
ATOM     14  C   UNL     1       0.295  10.080  20.553  0.00  0.00    +0.000 C 
ATOM     15  C   UNL     1       0.034   9.629  21.989  0.00  0.00    +0.000 C 
ATOM     16  C   UNL     1       0.928  11.470  20.505  0.00  0.00    +0.000 C 
ENDBRANCH  11  14
ENDBRANCH   7   8
BRANCH   4  17
ATOM     17  C   UNL     1       6.210   4.393  16.567  0.00  0.00    +0.000 C 
BRANCH  17  18
ATOM     18  C   UNL     1       6.316   3.828  15.186  0.00  0.00    +0.000 C 
ATOM     19  C   UNL     1       5.477   4.295  14.019  0.00  0.00    +0.000 C 
ATOM     20  C   UNL     1       6.920   4.699  14.105  0.00  0.00    +0.000 C 
ENDBRANCH  17  18
ENDBRANCH   4  17
TORSDOF 4
ENDMDL
MODEL 3
REMARK VINA RESULT:      -7.3      3.363      4.903
REMARK  Name = 
REMARK  7 active torsions:
REMARK  status: ('A' for Active; 'I' for Inactive)
REMARK    1  A    between atoms: C_1  and  C_2
REMARK    2  A    between atoms: N_4  and  C_5
REMARK    3  A    between atoms: C_5  and  C_6
REMARK    4  A    between atoms: N_11  and  C_12
REMARK    5  A    between atoms: C_15  and  C_16
REMARK    6  A    between atoms: C_16  and  C_17
REMARK    7  A    between atoms: C_16  and  C_18
REMARK                            x       y       z     vdW  Elec       q    Type
REMARK                         _______ _______ _______ _____ _____    ______ ____
ROOT
ATOM      1  C   UNL     1       1.490   4.073  18.147  0.00  0.00    +0.000 C 
ATOM      2  C   UNL     1       2.834   4.652  17.827  0.00  0.00    +0.000 A 
ATOM      3  N   UNL     1       3.819   3.923  17.357  0.00  0.00    +0.000 NA
ATOM      4  N   UNL     1       4.819   4.843  17.111  0.00  0.00    +0.000 N 
ATOM      5  C   UNL     1       4.420   6.112  17.534  0.00  0.00    +0.000 A 
ATOM      6  O   UNL     1       5.129   7.106  17.610  0.00  0.00    +0.000 OA
ATOM      7  N   UNL     1       3.108   5.966  17.935  0.00  0.00    +0.000 N 
ENDROOT
BRANCH   7   8
ATOM      8  C   UNL     1       2.377   7.032  18.473  0.00  0.00    +0.000 A 
ATOM      9  C   UNL     1       1.991   8.063  17.609  0.00  0.00    +0.000 A 
ATOM     10  C   UNL     1       1.385   9.217  18.096  0.00  0.00    +0.000 A 
ATOM     11  C   UNL     1       1.178   9.379  19.469  0.00  0.00    +0.000 A 
ATOM     12  C   UNL     1       1.573   8.346  20.337  0.00  0.00    +0.000 A 
ATOM     13  C   UNL     1       2.147   7.166  19.842  0.00  0.00    +0.000 A 
BRANCH  11  14
ATOM     14  C   UNL     1       0.530  10.655  19.969  0.00  0.00    +0.000 C 
ATOM     15  C   UNL     1       1.316  11.878  19.497  0.00  0.00    +0.000 C 
ATOM     16  C   UNL     1      -0.945  10.749  19.577  0.00  0.00    +0.000 C 
ENDBRANCH  11  14
ENDBRANCH   7   8
BRANCH   4  17
ATOM     17  C   UNL     1       6.192   4.505  16.842  0.00  0.00    +0.000 C 
BRANCH  17  18
ATOM     18  C   UNL     1       6.404   3.946  15.471  0.00  0.00    +0.000 C 
ATOM     19  C   UNL     1       5.602   4.363  14.259  0.00  0.00    +0.000 C 
ATOM     20  C   UNL     1       7.013   4.850  14.420  0.00  0.00    +0.000 C 
ENDBRANCH  17  18
ENDBRANCH   4  17
TORSDOF 4
ENDMDL
MODEL 4
REMARK VINA RESULT:      -7.2      2.092      3.039
REMARK  Name = 
REMARK  7 active torsions:
REMARK  status: ('A' for Active; 'I' for Inactive)
REMARK    1  A    between atoms: C_1  and  C_2
REMARK    2  A    between atoms: N_4  and  C_5
REMARK    3  A    between atoms: C_5  and  C_6
REMARK    4  A    between atoms: N_11  and  C_12
REMARK    5  A    between atoms: C_15  and  C_16
REMARK    6  A    between atoms: C_16  and  C_17
REMARK    7  A    between atoms: C_16  and  C_18
REMARK                            x       y       z     vdW  Elec       q    Type
REMARK                         _______ _______ _______ _____ _____    ______ ____
ROOT
ATOM      1  C   UNL     1       6.884   7.634  17.501  0.00  0.00    +0.000 C 
ATOM      2  C   UNL     1       6.337   6.392  16.866  0.00  0.00    +0.000 A 
ATOM      3  N   UNL     1       7.047   5.650  16.048  0.00  0.00    +0.000 NA
ATOM      4  N   UNL     1       6.221   4.577  15.779  0.00  0.00    +0.000 N 
ATOM      5  C   UNL     1       4.981   4.759  16.393  0.00  0.00    +0.000 A 
ATOM      6  O   UNL     1       3.979   4.079  16.217  0.00  0.00    +0.000 OA
ATOM      7  N   UNL     1       5.109   5.912  17.140  0.00  0.00    +0.000 N 
ENDROOT
BRANCH   7   8
ATOM      8  C   UNL     1       4.038   6.444  17.868  0.00  0.00    +0.000 A 
ATOM      9  C   UNL     1       3.468   7.638  17.414  0.00  0.00    +0.000 A 
ATOM     10  C   UNL     1       2.495   8.296  18.160  0.00  0.00    +0.000 A 
ATOM     11  C   UNL     1       2.091   7.787  19.398  0.00  0.00    +0.000 A 
ATOM     12  C   UNL     1       2.670   6.591  19.856  0.00  0.00    +0.000 A 
ATOM     13  C   UNL     1       3.621   5.907  19.085  0.00  0.00    +0.000 A 
BRANCH  11  14
ATOM     14  C   UNL     1       1.040   8.537  20.193  0.00  0.00    +0.000 C 
ATOM     15  C   UNL     1       1.416   8.579  21.674  0.00  0.00    +0.000 C 
ATOM     16  C   UNL     1       0.782   9.938  19.638  0.00  0.00    +0.000 C 
ENDBRANCH  11  14
ENDBRANCH   7   8
BRANCH   4  17
ATOM     17  C   UNL     1       6.438   3.624  14.723  0.00  0.00    +0.000 C 
BRANCH  17  18
ATOM     18  C   UNL     1       6.120   4.164  13.366  0.00  0.00    +0.000 C 
ATOM     19  C   UNL     1       6.993   3.955  12.150  0.00  0.00    +0.000 C 
ATOM     20  C   UNL     1       5.712   3.184  12.287  0.00  0.00    +0.000 C 
ENDBRANCH  17  18
ENDBRANCH   4  17
TORSDOF 4
ENDMDL
MODEL 5
REMARK VINA RESULT:      -7.1      0.715      1.338
REMARK  Name = 
REMARK  7 active torsions:
REMARK  status: ('A' for Active; 'I' for Inactive)
REMARK    1  A    between atoms: C_1  and  C_2
REMARK    2  A    between atoms: N_4  and  C_5
REMARK    3  A    between atoms: C_5  and  C_6
REMARK    4  A    between atoms: N_11  and  C_12
REMARK    5  A    between atoms: C_15  and  C_16
REMARK    6  A    between atoms: C_16  and  C_17
REMARK    7  A    between atoms: C_16  and  C_18
REMARK                            x       y       z     vdW  Elec       q    Type
REMARK                         _______ _______ _______ _____ _____    ______ ____
ROOT
ATOM      1  C   UNL     1       7.501   6.617  17.720  0.00  0.00    +0.000 C 
ATOM      2  C   UNL     1       6.976   5.823  16.563  0.00  0.00    +0.000 A 
ATOM      3  N   UNL     1       7.600   5.766  15.409  0.00  0.00    +0.000 NA
ATOM      4  N   UNL     1       6.849   4.869  14.675  0.00  0.00    +0.000 N 
ATOM      5  C   UNL     1       5.725   4.475  15.402  0.00  0.00    +0.000 A 
ATOM      6  O   UNL     1       4.780   3.824  14.977  0.00  0.00    +0.000 OA
ATOM      7  N   UNL     1       5.868   5.062  16.643  0.00  0.00    +0.000 N 
ENDROOT
BRANCH   7   8
ATOM      8  C   UNL     1       4.895   4.929  17.640  0.00  0.00    +0.000 A 
ATOM      9  C   UNL     1       3.930   5.936  17.751  0.00  0.00    +0.000 A 
ATOM     10  C   UNL     1       3.018   5.941  18.802  0.00  0.00    +0.000 A 
ATOM     11  C   UNL     1       3.071   4.950  19.786  0.00  0.00    +0.000 A 
ATOM     12  C   UNL     1       4.045   3.942  19.677  0.00  0.00    +0.000 A 
ATOM     13  C   UNL     1       4.938   3.915  18.597  0.00  0.00    +0.000 A 
BRANCH  11  14
ATOM     14  C   UNL     1       2.072   4.995  20.927  0.00  0.00    +0.000 C 
ATOM     15  C   UNL     1       1.269   6.294  20.888  0.00  0.00    +0.000 C 
ATOM     16  C   UNL     1       1.160   3.768  20.947  0.00  0.00    +0.000 C 
ENDBRANCH  11  14
ENDBRANCH   7   8
BRANCH   4  17
ATOM     17  C   UNL     1       6.970   4.673  13.255  0.00  0.00    +0.000 C 
BRANCH  17  18
ATOM     18  C   UNL     1       6.466   3.341  12.798  0.00  0.00    +0.000 C 
ATOM     19  C   UNL     1       5.432   3.161  11.710  0.00  0.00    +0.000 C 
ATOM     20  C   UNL     1       6.874   2.859  11.422  0.00  0.00    +0.000 C 
ENDBRANCH  17  18
ENDBRANCH   4  17
TORSDOF 4
ENDMDL
MODEL 6
REMARK VINA RESULT:      -6.9      3.546      5.119
REMARK  Name = 
REMARK  7 active torsions:
REMARK  status: ('A' for Active; 'I' for Inactive)
REMARK    1  A    between atoms: C_1  and  C_2
REMARK    2  A    between atoms: N_4  and  C_5
REMARK    3  A    between atoms: C_5  and  C_6
REMARK    4  A    between atoms: N_11  and  C_12
REMARK    5  A    between atoms: C_15  and  C_16
REMARK    6  A    between atoms: C_16  and  C_17
REMARK    7  A    between atoms: C_16  and  C_18
REMARK                            x       y       z     vdW  Elec       q    Type
REMARK                         _______ _______ _______ _____ _____    ______ ____
ROOT
ATOM      1  C   UNL     1       1.684   4.537  19.568  0.00  0.00    +0.000 C 
ATOM      2  C   UNL     1       2.909   4.976  18.825  0.00  0.00    +0.000 A 
ATOM      3  N   UNL     1       3.831   4.130  18.429  0.00  0.00    +0.000 NA
ATOM      4  N   UNL     1       4.712   4.917  17.714  0.00  0.00    +0.000 N 
ATOM      5  C   UNL     1       4.323   6.256  17.780  0.00  0.00    +0.000 A 
ATOM      6  O   UNL     1       4.973   7.218  17.396  0.00  0.00    +0.000 OA
ATOM      7  N   UNL     1       3.119   6.253  18.454  0.00  0.00    +0.000 N 
ENDROOT
BRANCH   7   8
ATOM      8  C   UNL     1       2.438   7.439  18.755  0.00  0.00    +0.000 A 
ATOM      9  C   UNL     1       2.027   7.638  20.078  0.00  0.00    +0.000 A 
ATOM     10  C   UNL     1       1.228   8.724  20.423  0.00  0.00    +0.000 A 
ATOM     11  C   UNL     1       0.796   9.622  19.443  0.00  0.00    +0.000 A 
ATOM     12  C   UNL     1       1.205   9.417  18.113  0.00  0.00    +0.000 A 
ATOM     13  C   UNL     1       2.042   8.345  17.772  0.00  0.00    +0.000 A 
BRANCH  11  14
ATOM     14  C   UNL     1      -0.087  10.786  19.850  0.00  0.00    +0.000 C 
ATOM     15  C   UNL     1       0.758  12.026  20.138  0.00  0.00    +0.000 C 
ATOM     16  C   UNL     1      -1.178  11.075  18.819  0.00  0.00    +0.000 C 
ENDBRANCH  11  14
ENDBRANCH   7   8
BRANCH   4  17
ATOM     17  C   UNL     1       6.028   4.505  17.304  0.00  0.00    +0.000 C 
BRANCH  17  18
ATOM     18  C   UNL     1       6.071   3.968  15.909  0.00  0.00    +0.000 C 
ATOM     19  C   UNL     1       5.481   4.681  14.714  0.00  0.00    +0.000 C 
ATOM     20  C   UNL     1       6.969   4.660  14.907  0.00  0.00    +0.000 C 
ENDBRANCH  17  18
ENDBRANCH   4  17
TORSDOF 4
ENDMDL
MODEL 7
REMARK VINA RESULT:      -6.9      2.300      6.365
REMARK  Name = 
REMARK  7 active torsions:
REMARK  status: ('A' for Active; 'I' for Inactive)
REMARK    1  A    between atoms: C_1  and  C_2
REMARK    2  A    between atoms: N_4  and  C_5
REMARK    3  A    between atoms: C_5  and  C_6
REMARK    4  A    between atoms: N_11  and  C_12
REMARK    5  A    between atoms: C_15  and  C_16
REMARK    6  A    between atoms: C_16  and  C_17
REMARK    7  A    between atoms: C_16  and  C_18
REMARK                            x       y       z     vdW  Elec       q    Type
REMARK                         _______ _______ _______ _____ _____    ______ ____
ROOT
ATOM      1  C   UNL     1       5.991   4.168  15.429  0.00  0.00    +0.000 C 
ATOM      2  C   UNL     1       5.378   4.145  16.796  0.00  0.00    +0.000 A 
ATOM      3  N   UNL     1       4.522   3.222  17.166  0.00  0.00    +0.000 NA
ATOM      4  N   UNL     1       4.289   3.507  18.497  0.00  0.00    +0.000 N 
ATOM      5  C   UNL     1       4.964   4.672  18.865  0.00  0.00    +0.000 A 
ATOM      6  O   UNL     1       4.834   5.282  19.918  0.00  0.00    +0.000 OA
ATOM      7  N   UNL     1       5.709   5.026  17.759  0.00  0.00    +0.000 N 
ENDROOT
BRANCH   7   8
ATOM      8  C   UNL     1       6.491   6.187  17.736  0.00  0.00    +0.000 A 
ATOM      9  C   UNL     1       7.661   6.203  18.502  0.00  0.00    +0.000 A 
ATOM     10  C   UNL     1       8.414   7.366  18.637  0.00  0.00    +0.000 A 
ATOM     11  C   UNL     1       7.993   8.552  18.030  0.00  0.00    +0.000 A 
ATOM     12  C   UNL     1       6.813   8.537  17.265  0.00  0.00    +0.000 A 
ATOM     13  C   UNL     1       6.077   7.355  17.097  0.00  0.00    +0.000 A 
BRANCH  11  14
ATOM     14  C   UNL     1       8.827   9.805  18.210  0.00  0.00    +0.000 C 
ATOM     15  C   UNL     1       8.104  11.020  17.631  0.00  0.00    +0.000 C 
ATOM     16  C   UNL     1       9.230  10.030  19.667  0.00  0.00    +0.000 C 
ENDBRANCH  11  14
ENDBRANCH   7   8
BRANCH   4  17
ATOM     17  C   UNL     1       3.219   2.944  19.278  0.00  0.00    +0.000 C 
BRANCH  17  18
ATOM     18  C   UNL     1       1.885   3.546  18.971  0.00  0.00    +0.000 C 
ATOM     19  C   UNL     1       0.568   2.843  19.212  0.00  0.00    +0.000 C 
ATOM     20  C   UNL     1       1.001   3.947  20.132  0.00  0.00    +0.000 C 
ENDBRANCH  17  18
ENDBRANCH   4  17
TORSDOF 4
ENDMDL
MODEL 8
REMARK VINA RESULT:      -6.9      1.867      6.900
REMARK  Name = 
REMARK  7 active torsions:
REMARK  status: ('A' for Active; 'I' for Inactive)
REMARK    1  A    between atoms: C_1  and  C_2
REMARK    2  A    between atoms: N_4  and  C_5
REMARK    3  A    between atoms: C_5  and  C_6
REMARK    4  A    between atoms: N_11  and  C_12
REMARK    5  A    between atoms: C_15  and  C_16
REMARK    6  A    between atoms: C_16  and  C_17
REMARK    7  A    between atoms: C_16  and  C_18
REMARK                            x       y       z     vdW  Elec       q    Type
REMARK                         _______ _______ _______ _____ _____    ______ ____
ROOT
ATOM      1  C   UNL     1       3.288   7.773  17.507  0.00  0.00    +0.000 C 
ATOM      2  C   UNL     1       3.473   6.486  18.251  0.00  0.00    +0.000 A 
ATOM      3  N   UNL     1       2.896   6.254  19.407  0.00  0.00    +0.000 NA
ATOM      4  N   UNL     1       3.240   4.946  19.688  0.00  0.00    +0.000 N 
ATOM      5  C   UNL     1       4.105   4.456  18.708  0.00  0.00    +0.000 A 
ATOM      6  O   UNL     1       4.720   3.399  18.749  0.00  0.00    +0.000 OA
ATOM      7  N   UNL     1       4.186   5.455  17.760  0.00  0.00    +0.000 N 
ENDROOT
BRANCH   7   8
ATOM      8  C   UNL     1       5.011   5.340  16.634  0.00  0.00    +0.000 A 
ATOM      9  C   UNL     1       4.532   4.605  15.544  0.00  0.00    +0.000 A 
ATOM     10  C   UNL     1       5.347   4.334  14.450  0.00  0.00    +0.000 A 
ATOM     11  C   UNL     1       6.676   4.767  14.435  0.00  0.00    +0.000 A 
ATOM     12  C   UNL     1       7.158   5.500  15.534  0.00  0.00    +0.000 A 
ATOM     13  C   UNL     1       6.325   5.808  16.619  0.00  0.00    +0.000 A 
BRANCH  11  14
ATOM     14  C   UNL     1       7.542   4.440  13.235  0.00  0.00    +0.000 C 
ATOM     15  C   UNL     1       6.747   3.647  12.198  0.00  0.00    +0.000 C 
ATOM     16  C   UNL     1       8.180   5.687  12.622  0.00  0.00    +0.000 C 
ENDBRANCH  11  14
ENDBRANCH   7   8
BRANCH   4  17
ATOM     17  C   UNL     1       3.074   4.315  20.970  0.00  0.00    +0.000 C 
BRANCH  17  18
ATOM     18  C   UNL     1       1.665   3.896  21.243  0.00  0.00    +0.000 C 
ATOM     19  C   UNL     1       0.867   2.986  20.338  0.00  0.00    +0.000 C 
ATOM     20  C   UNL     1       1.413   2.455  21.631  0.00  0.00    +0.000 C 
ENDBRANCH  17  18
ENDBRANCH   4  17
TORSDOF 4
ENDMDL
MODEL 9
REMARK VINA RESULT:      -6.9      3.314      4.784
REMARK  Name = 
REMARK  7 active torsions:
REMARK  status: ('A' for Active; 'I' for Inactive)
REMARK    1  A    between atoms: C_1  and  C_2
REMARK    2  A    between atoms: N_4  and  C_5
REMARK    3  A    between atoms: C_5  and  C_6
REMARK    4  A    between atoms: N_11  and  C_12
REMARK    5  A    between atoms: C_15  and  C_16
REMARK    6  A    between atoms: C_16  and  C_17
REMARK    7  A    between atoms: C_16  and  C_18
REMARK                            x       y       z     vdW  Elec       q    Type
REMARK                         _______ _______ _______ _____ _____    ______ ____
ROOT
ATOM      1  C   UNL     1       1.517   4.051  18.260  0.00  0.00    +0.000 C 
ATOM      2  C   UNL     1       2.760   4.739  17.782  0.00  0.00    +0.000 A 
ATOM      3  N   UNL     1       3.708   4.106  17.132  0.00  0.00    +0.000 NA
ATOM      4  N   UNL     1       4.599   5.106  16.797  0.00  0.00    +0.000 N 
ATOM      5  C   UNL     1       4.187   6.321  17.345  0.00  0.00    +0.000 A 
ATOM      6  O   UNL     1       4.835   7.359  17.374  0.00  0.00    +0.000 OA
ATOM      7  N   UNL     1       2.961   6.063  17.924  0.00  0.00    +0.000 N 
ENDROOT
BRANCH   7   8
ATOM      8  C   UNL     1       2.252   7.048  18.622  0.00  0.00    +0.000 A 
ATOM      9  C   UNL     1       1.811   8.167  17.908  0.00  0.00    +0.000 A 
ATOM     10  C   UNL     1       1.222   9.246  18.560  0.00  0.00    +0.000 A 
ATOM     11  C   UNL     1       1.089   9.243  19.951  0.00  0.00    +0.000 A 
ATOM     12  C   UNL     1       1.540   8.120  20.669  0.00  0.00    +0.000 A 
ATOM     13  C   UNL     1       2.096   7.016  20.008  0.00  0.00    +0.000 A 
BRANCH  11  14
ATOM     14  C   UNL     1       0.459  10.442  20.632  0.00  0.00    +0.000 C 
ATOM     15  C   UNL     1       0.181  10.139  22.104  0.00  0.00    +0.000 C 
ATOM     16  C   UNL     1       1.295  11.710  20.465  0.00  0.00    +0.000 C 
ENDBRANCH  11  14
ENDBRANCH   7   8
BRANCH   4  17
ATOM     17  C   UNL     1       5.935   4.880  16.312  0.00  0.00    +0.000 C 
BRANCH  17  18
ATOM     18  C   UNL     1       6.079   5.122  14.843  0.00  0.00    +0.000 C 
ATOM     19  C   UNL     1       7.338   4.830  14.061  0.00  0.00    +0.000 C 
ATOM     20  C   UNL     1       6.153   3.919  13.927  0.00  0.00    +0.000 C 
ENDBRANCH  17  18
ENDBRANCH   4  17
TORSDOF 4
ENDMDL
