MODEL 1
REMARK VINA RESULT:      -8.1      0.000      0.000
REMARK  Name = 
REMARK  10 active torsions:
REMARK  status: ('A' for Active; 'I' for Inactive)
REMARK    1  A    between atoms: C_1  and  C_2
REMARK    2  A    between atoms: C_2  and  C_3
REMARK    3  A    between atoms: C_2  and  C_4
REMARK    4  A    between atoms: C_4  and  N_5
REMARK    5  A    between atoms: C_6  and  C_8
REMARK    6  A    between atoms: C_8  and  O_9
REMARK    7  A    between atoms: O_9  and  C_10
REMARK    8  A    between atoms: C_10  and  C_12
REMARK    9  A    between atoms: C_13  and  C_14
REMARK   10  A    between atoms: C_19  and  N_20
REMARK                            x       y       z     vdW  Elec       q    Type
REMARK                         _______ _______ _______ _____ _____    ______ ____
ROOT
ATOM      1  C   UNL     1       6.883   4.862  17.767  0.00  0.00    +0.000 C 
ATOM      2  O   UNL     1       7.895   4.393  18.263  0.00  0.00    +0.000 OA
ENDROOT
BRANCH   1   3
ATOM      3  C   UNL     1       5.507   4.394  18.064  0.00  0.00    +0.000 C 
ATOM      4  C   UNL     1       4.908   4.801  19.196  0.00  0.00    +0.000 C 
BRANCH   4   5
ATOM      5  C   UNL     1       3.583   4.348  19.649  0.00  0.00    +0.000 A 
ATOM      6  C   UNL     1       2.626   5.325  19.965  0.00  0.00    +0.000 A 
ATOM      7  C   UNL     1       1.383   4.969  20.510  0.00  0.00    +0.000 A 
ATOM      8  C   UNL     1       1.065   3.633  20.739  0.00  0.00    +0.000 A 
ATOM      9  C   UNL     1       1.989   2.640  20.423  0.00  0.00    +0.000 A 
ATOM     10  C   UNL     1       3.238   3.007  19.885  0.00  0.00    +0.000 A 
BRANCH  10  11
ATOM     11  N   UNL     1       4.171   1.920  19.613  0.00  0.00    +0.000 N 
ATOM     12  O   UNL     1       3.961   1.228  18.610  0.00  0.00    +0.000 OA
ATOM     13  O   UNL     1       5.080   1.743  20.435  0.00  0.00    +0.000 OA
ENDBRANCH  10  11
ENDBRANCH   4   5
ENDBRANCH   1   3
BRANCH   1  14
ATOM     14  O   UNL     1       6.822   5.837  16.832  0.00  0.00    +0.000 OA
BRANCH  14  15
ATOM     15  C   UNL     1       5.898   5.620  15.755  0.00  0.00    +0.000 C 
BRANCH  15  17
ATOM     16  N   UNL     1       5.832   4.245  13.726  0.00  0.00    +0.000 N 
ATOM     17  C   UNL     1       6.610   5.060  14.524  0.00  0.00    +0.000 C 
ATOM     18  O   UNL     1       7.794   5.289  14.293  0.00  0.00    +0.000 OA
ATOM     19  H   UNL     1       4.864   4.084  13.981  0.00  0.00    +0.000 HD
BRANCH  16  20
ATOM     20  C   UNL     1       6.354   3.600  12.533  0.00  0.00    +0.000 C 
BRANCH  20  22
ATOM     21  C   UNL     1       4.269   3.080  11.192  0.00  0.00    +0.000 C 
ATOM     22  C   UNL     1       5.433   2.492  11.989  0.00  0.00    +0.000 C 
ATOM     23  C   UNL     1       6.222   1.526  11.100  0.00  0.00    +0.000 C 
ENDBRANCH  20  22
ENDBRANCH  16  20
ENDBRANCH  15  17
ENDBRANCH  14  15
ENDBRANCH   1  14
TORSDOF 8
ENDMDL
MODEL 2
REMARK VINA RESULT:      -7.9      1.066      1.441
REMARK  Name = 
REMARK  10 active torsions:
REMARK  status: ('A' for Active; 'I' for Inactive)
REMARK    1  A    between atoms: C_1  and  C_2
REMARK    2  A    between atoms: C_2  and  C_3
REMARK    3  A    between atoms: C_2  and  C_4
REMARK    4  A    between atoms: C_4  and  N_5
REMARK    5  A    between atoms: C_6  and  C_8
REMARK    6  A    between atoms: C_8  and  O_9
REMARK    7  A    between atoms: O_9  and  C_10
REMARK    8  A    between atoms: C_10  and  C_12
REMARK    9  A    between atoms: C_13  and  C_14
REMARK   10  A    between atoms: C_19  and  N_20
REMARK                            x       y       z     vdW  Elec       q    Type
REMARK                         _______ _______ _______ _____ _____    ______ ____
ROOT
ATOM      1  C   UNL     1       6.681   6.578  17.199  0.00  0.00    +0.000 C 
ATOM      2  O   UNL     1       7.085   7.727  17.119  0.00  0.00    +0.000 OA
ENDROOT
BRANCH   1   3
ATOM      3  C   UNL     1       5.301   6.198  17.593  0.00  0.00    +0.000 C 
ATOM      4  C   UNL     1       5.061   5.840  18.866  0.00  0.00    +0.000 C 
BRANCH   4   5
ATOM      5  C   UNL     1       3.762   5.363  19.368  0.00  0.00    +0.000 A 
ATOM      6  C   UNL     1       2.846   6.318  19.833  0.00  0.00    +0.000 A 
ATOM      7  C   UNL     1       1.636   5.929  20.429  0.00  0.00    +0.000 A 
ATOM      8  C   UNL     1       1.312   4.582  20.560  0.00  0.00    +0.000 A 
ATOM      9  C   UNL     1       2.195   3.610  20.095  0.00  0.00    +0.000 A 
ATOM     10  C   UNL     1       3.411   4.011  19.507  0.00  0.00    +0.000 A 
BRANCH  10  11
ATOM     11  N   UNL     1       4.305   2.942  19.077  0.00  0.00    +0.000 N 
ATOM     12  O   UNL     1       5.129   2.524  19.899  0.00  0.00    +0.000 OA
ATOM     13  O   UNL     1       4.201   2.564  17.902  0.00  0.00    +0.000 OA
ENDBRANCH  10  11
ENDBRANCH   4   5
ENDBRANCH   1   3
BRANCH   1  14
ATOM     14  O   UNL     1       7.406   5.454  17.005  0.00  0.00    +0.000 OA
BRANCH  14  15
ATOM     15  C   UNL     1       6.749   4.394  16.294  0.00  0.00    +0.000 C 
BRANCH  15  17
ATOM     16  N   UNL     1       6.234   3.630  14.023  0.00  0.00    +0.000 N 
ATOM     17  C   UNL     1       6.919   4.555  14.784  0.00  0.00    +0.000 C 
ATOM     18  O   UNL     1       7.643   5.419  14.297  0.00  0.00    +0.000 OA
ATOM     19  H   UNL     1       5.664   2.932  14.488  0.00  0.00    +0.000 HD
BRANCH  16  20
ATOM     20  C   UNL     1       6.308   3.613  12.571  0.00  0.00    +0.000 C 
BRANCH  20  22
ATOM     21  C   UNL     1       4.280   3.138  11.129  0.00  0.00    +0.000 C 
ATOM     22  C   UNL     1       5.428   2.524  11.931  0.00  0.00    +0.000 C 
ATOM     23  C   UNL     1       6.265   1.626  11.014  0.00  0.00    +0.000 C 
ENDBRANCH  20  22
ENDBRANCH  16  20
ENDBRANCH  15  17
ENDBRANCH  14  15
ENDBRANCH   1  14
TORSDOF 8
ENDMDL
MODEL 3
REMARK VINA RESULT:      -7.6      0.812      1.286
REMARK  Name = 
REMARK  10 active torsions:
REMARK  status: ('A' for Active; 'I' for Inactive)
REMARK    1  A    between atoms: C_1  and  C_2
REMARK    2  A    between atoms: C_2  and  C_3
REMARK    3  A    between atoms: C_2  and  C_4
REMARK    4  A    between atoms: C_4  and  N_5
REMARK    5  A    between atoms: C_6  and  C_8
REMARK    6  A    between atoms: C_8  and  O_9
REMARK    7  A    between atoms: O_9  and  C_10
REMARK    8  A    between atoms: C_10  and  C_12
REMARK    9  A    between atoms: C_13  and  C_14
REMARK   10  A    between atoms: C_19  and  N_20
REMARK                            x       y       z     vdW  Elec       q    Type
REMARK                         _______ _______ _______ _____ _____    ______ ____
ROOT
ATOM      1  C   UNL     1       6.241   6.325  17.232  0.00  0.00    +0.000 C 
ATOM      2  O   UNL     1       6.706   7.433  17.017  0.00  0.00    +0.000 OA
ENDROOT
BRANCH   1   3
ATOM      3  C   UNL     1       4.950   6.074  17.919  0.00  0.00    +0.000 C 
ATOM      4  C   UNL     1       4.840   5.011  18.734  0.00  0.00    +0.000 C 
BRANCH   4   5
ATOM      5  C   UNL     1       3.598   4.602  19.410  0.00  0.00    +0.000 A 
ATOM      6  C   UNL     1       2.700   5.607  19.800  0.00  0.00    +0.000 A 
ATOM      7  C   UNL     1       1.552   5.301  20.547  0.00  0.00    +0.000 A 
ATOM      8  C   UNL     1       1.271   3.985  20.908  0.00  0.00    +0.000 A 
ATOM      9  C   UNL     1       2.138   2.964  20.523  0.00  0.00    +0.000 A 
ATOM     10  C   UNL     1       3.292   3.283  19.782  0.00  0.00    +0.000 A 
BRANCH  10  11
ATOM     11  N   UNL     1       4.173   2.171  19.445  0.00  0.00    +0.000 N 
ATOM     12  O   UNL     1       3.941   1.559  18.395  0.00  0.00    +0.000 OA
ATOM     13  O   UNL     1       5.062   1.894  20.261  0.00  0.00    +0.000 OA
ENDBRANCH  10  11
ENDBRANCH   4   5
ENDBRANCH   1   3
BRANCH   1  14
ATOM     14  O   UNL     1       6.821   5.138  16.943  0.00  0.00    +0.000 OA
BRANCH  14  15
ATOM     15  C   UNL     1       6.133   4.316  15.988  0.00  0.00    +0.000 C 
BRANCH  15  17
ATOM     16  N   UNL     1       6.236   3.602  13.645  0.00  0.00    +0.000 N 
ATOM     17  C   UNL     1       6.733   4.476  14.591  0.00  0.00    +0.000 C 
ATOM     18  O   UNL     1       7.616   5.294  14.349  0.00  0.00    +0.000 OA
ATOM     19  H   UNL     1       5.517   2.940  13.914  0.00  0.00    +0.000 HD
BRANCH  16  20
ATOM     20  C   UNL     1       6.716   3.590  12.273  0.00  0.00    +0.000 C 
BRANCH  20  22
ATOM     21  C   UNL     1       5.935   1.349  11.387  0.00  0.00    +0.000 C 
ATOM     22  C   UNL     1       5.764   2.866  11.303  0.00  0.00    +0.000 C 
ATOM     23  C   UNL     1       4.308   3.231  11.607  0.00  0.00    +0.000 C 
ENDBRANCH  20  22
ENDBRANCH  16  20
ENDBRANCH  15  17
ENDBRANCH  14  15
ENDBRANCH   1  14
TORSDOF 8
ENDMDL
MODEL 4
REMARK VINA RESULT:      -7.3      2.000      2.396
REMARK  Name = 
REMARK  10 active torsions:
REMARK  status: ('A' for Active; 'I' for Inactive)
REMARK    1  A    between atoms: C_1  and  C_2
REMARK    2  A    between atoms: C_2  and  C_3
REMARK    3  A    between atoms: C_2  and  C_4
REMARK    4  A    between atoms: C_4  and  N_5
REMARK    5  A    between atoms: C_6  and  C_8
REMARK    6  A    between atoms: C_8  and  O_9
REMARK    7  A    between atoms: O_9  and  C_10
REMARK    8  A    between atoms: C_10  and  C_12
REMARK    9  A    between atoms: C_13  and  C_14
REMARK   10  A    between atoms: C_19  and  N_20
REMARK                            x       y       z     vdW  Elec       q    Type
REMARK                         _______ _______ _______ _____ _____    ______ ____
ROOT
ATOM      1  C   UNL     1       6.756   5.202  18.996  0.00  0.00    +0.000 C 
ATOM      2  O   UNL     1       7.054   5.467  20.149  0.00  0.00    +0.000 OA
ENDROOT
BRANCH   1   3
ATOM      3  C   UNL     1       5.495   4.534  18.586  0.00  0.00    +0.000 C 
ATOM      4  C   UNL     1       4.613   4.168  19.531  0.00  0.00    +0.000 C 
BRANCH   4   5
ATOM      5  C   UNL     1       3.368   3.427  19.269  0.00  0.00    +0.000 A 
ATOM      6  C   UNL     1       3.283   2.682  18.083  0.00  0.00    +0.000 A 
ATOM      7  C   UNL     1       2.090   2.044  17.715  0.00  0.00    +0.000 A 
ATOM      8  C   UNL     1       0.962   2.125  18.527  0.00  0.00    +0.000 A 
ATOM      9  C   UNL     1       1.019   2.847  19.717  0.00  0.00    +0.000 A 
ATOM     10  C   UNL     1       2.219   3.492  20.074  0.00  0.00    +0.000 A 
BRANCH  10  11
ATOM     11  N   UNL     1       2.198   4.259  21.313  0.00  0.00    +0.000 N 
ATOM     12  O   UNL     1       1.926   5.464  21.232  0.00  0.00    +0.000 OA
ATOM     13  O   UNL     1       2.498   3.656  22.352  0.00  0.00    +0.000 OA
ENDBRANCH  10  11
ENDBRANCH   4   5
ENDBRANCH   1   3
BRANCH   1  14
ATOM     14  O   UNL     1       7.519   5.407  17.898  0.00  0.00    +0.000 OA
BRANCH  14  15
ATOM     15  C   UNL     1       7.561   4.331  16.949  0.00  0.00    +0.000 C 
BRANCH  15  17
ATOM     16  N   UNL     1       6.016   4.042  15.069  0.00  0.00    +0.000 N 
ATOM     17  C   UNL     1       7.061   4.785  15.579  0.00  0.00    +0.000 C 
ATOM     18  O   UNL     1       7.582   5.714  14.968  0.00  0.00    +0.000 OA
ATOM     19  H   UNL     1       5.640   3.277  15.617  0.00  0.00    +0.000 HD
BRANCH  16  20
ATOM     20  C   UNL     1       5.436   4.312  13.763  0.00  0.00    +0.000 C 
BRANCH  20  22
ATOM     21  C   UNL     1       4.857   3.011  11.667  0.00  0.00    +0.000 C 
ATOM     22  C   UNL     1       5.962   3.375  12.660  0.00  0.00    +0.000 C 
ATOM     23  C   UNL     1       7.125   4.029  11.909  0.00  0.00    +0.000 C 
ENDBRANCH  20  22
ENDBRANCH  16  20
ENDBRANCH  15  17
ENDBRANCH  14  15
ENDBRANCH   1  14
TORSDOF 8
ENDMDL
MODEL 5
REMARK VINA RESULT:      -7.3      1.759      2.335
REMARK  Name = 
REMARK  10 active torsions:
REMARK  status: ('A' for Active; 'I' for Inactive)
REMARK    1  A    between atoms: C_1  and  C_2
REMARK    2  A    between atoms: C_2  and  C_3
REMARK    3  A    between atoms: C_2  and  C_4
REMARK    4  A    between atoms: C_4  and  N_5
REMARK    5  A    between atoms: C_6  and  C_8
REMARK    6  A    between atoms: C_8  and  O_9
REMARK    7  A    between atoms: O_9  and  C_10
REMARK    8  A    between atoms: C_10  and  C_12
REMARK    9  A    between atoms: C_13  and  C_14
REMARK   10  A    between atoms: C_19  and  N_20
REMARK                            x       y       z     vdW  Elec       q    Type
REMARK                         _______ _______ _______ _____ _____    ______ ____
ROOT
ATOM      1  C   UNL     1       7.284   5.282  19.391  0.00  0.00    +0.000 C 
ATOM      2  O   UNL     1       7.609   5.314  20.567  0.00  0.00    +0.000 OA
ENDROOT
BRANCH   1   3
ATOM      3  C   UNL     1       6.090   4.572  18.868  0.00  0.00    +0.000 C 
ATOM      4  C   UNL     1       4.881   4.868  19.374  0.00  0.00    +0.000 C 
BRANCH   4   5
ATOM      5  C   UNL     1       3.631   4.183  19.005  0.00  0.00    +0.000 A 
ATOM      6  C   UNL     1       2.848   4.746  17.986  0.00  0.00    +0.000 A 
ATOM      7  C   UNL     1       1.593   4.212  17.660  0.00  0.00    +0.000 A 
ATOM      8  C   UNL     1       1.099   3.098  18.334  0.00  0.00    +0.000 A 
ATOM      9  C   UNL     1       1.859   2.509  19.342  0.00  0.00    +0.000 A 
ATOM     10  C   UNL     1       3.114   3.058  19.668  0.00  0.00    +0.000 A 
BRANCH  10  11
ATOM     11  N   UNL     1       3.839   2.414  20.757  0.00  0.00    +0.000 N 
ATOM     12  O   UNL     1       4.914   1.867  20.480  0.00  0.00    +0.000 OA
ATOM     13  O   UNL     1       3.301   2.424  21.872  0.00  0.00    +0.000 OA
ENDBRANCH  10  11
ENDBRANCH   4   5
ENDBRANCH   1   3
BRANCH   1  14
ATOM     14  O   UNL     1       7.960   5.824  18.353  0.00  0.00    +0.000 OA
BRANCH  14  15
ATOM     15  C   UNL     1       7.344   6.956  17.721  0.00  0.00    +0.000 C 
BRANCH  15  17
ATOM     16  N   UNL     1       7.494   5.700  15.622  0.00  0.00    +0.000 N 
ATOM     17  C   UNL     1       6.733   6.571  16.375  0.00  0.00    +0.000 C 
ATOM     18  O   UNL     1       5.666   7.036  15.984  0.00  0.00    +0.000 OA
ATOM     19  H   UNL     1       8.374   5.363  15.996  0.00  0.00    +0.000 HD
BRANCH  16  20
ATOM     20  C   UNL     1       7.082   5.252  14.302  0.00  0.00    +0.000 C 
BRANCH  20  22
ATOM     21  C   UNL     1       5.266   3.816  15.328  0.00  0.00    +0.000 C 
ATOM     22  C   UNL     1       6.407   3.869  14.313  0.00  0.00    +0.000 C 
ATOM     23  C   UNL     1       5.866   3.523  12.922  0.00  0.00    +0.000 C 
ENDBRANCH  20  22
ENDBRANCH  16  20
ENDBRANCH  15  17
ENDBRANCH  14  15
ENDBRANCH   1  14
TORSDOF 8
ENDMDL
MODEL 6
REMARK VINA RESULT:      -7.3      1.734      2.198
REMARK  Name = 
REMARK  10 active torsions:
REMARK  status: ('A' for Active; 'I' for Inactive)
REMARK    1  A    between atoms: C_1  and  C_2
REMARK    2  A    between atoms: C_2  and  C_3
REMARK    3  A    between atoms: C_2  and  C_4
REMARK    4  A    between atoms: C_4  and  N_5
REMARK    5  A    between atoms: C_6  and  C_8
REMARK    6  A    between atoms: C_8  and  O_9
REMARK    7  A    between atoms: O_9  and  C_10
REMARK    8  A    between atoms: C_10  and  C_12
REMARK    9  A    between atoms: C_13  and  C_14
REMARK   10  A    between atoms: C_19  and  N_20
REMARK                            x       y       z     vdW  Elec       q    Type
REMARK                         _______ _______ _______ _____ _____    ______ ____
ROOT
ATOM      1  C   UNL     1       6.567   4.713  18.081  0.00  0.00    +0.000 C 
ATOM      2  O   UNL     1       7.593   5.283  18.416  0.00  0.00    +0.000 OA
ENDROOT
BRANCH   1   3
ATOM      3  C   UNL     1       5.308   4.718  18.866  0.00  0.00    +0.000 C 
ATOM      4  C   UNL     1       4.686   3.553  19.111  0.00  0.00    +0.000 C 
BRANCH   4   5
ATOM      5  C   UNL     1       3.392   3.426  19.802  0.00  0.00    +0.000 A 
ATOM      6  C   UNL     1       3.389   2.887  21.098  0.00  0.00    +0.000 A 
ATOM      7  C   UNL     1       2.186   2.633  21.772  0.00  0.00    +0.000 A 
ATOM      8  C   UNL     1       0.962   2.922  21.173  0.00  0.00    +0.000 A 
ATOM      9  C   UNL     1       0.934   3.469  19.892  0.00  0.00    +0.000 A 
ATOM     10  C   UNL     1       2.147   3.712  19.220  0.00  0.00    +0.000 A 
BRANCH  10  11
ATOM     11  N   UNL     1       2.042   4.251  17.870  0.00  0.00    +0.000 N 
ATOM     12  O   UNL     1       2.024   5.483  17.748  0.00  0.00    +0.000 OA
ATOM     13  O   UNL     1       1.933   3.433  16.947  0.00  0.00    +0.000 OA
ENDBRANCH  10  11
ENDBRANCH   4   5
ENDBRANCH   1   3
BRANCH   1  14
ATOM     14  O   UNL     1       6.397   3.936  16.987  0.00  0.00    +0.000 OA
BRANCH  14  15
ATOM     15  C   UNL     1       5.488   4.436  15.995  0.00  0.00    +0.000 C 
BRANCH  15  17
ATOM     16  N   UNL     1       6.084   3.570  13.781  0.00  0.00    +0.000 N 
ATOM     17  C   UNL     1       6.192   4.634  14.653  0.00  0.00    +0.000 C 
ATOM     18  O   UNL     1       6.835   5.648  14.396  0.00  0.00    +0.000 OA
ATOM     19  H   UNL     1       5.550   2.755  14.060  0.00  0.00    +0.000 HD
BRANCH  16  20
ATOM     20  C   UNL     1       6.719   3.572  12.473  0.00  0.00    +0.000 C 
BRANCH  20  22
ATOM     21  C   UNL     1       6.030   1.417  11.332  0.00  0.00    +0.000 C 
ATOM     22  C   UNL     1       5.849   2.935  11.375  0.00  0.00    +0.000 C 
ATOM     23  C   UNL     1       4.370   3.264  11.602  0.00  0.00    +0.000 C 
ENDBRANCH  20  22
ENDBRANCH  16  20
ENDBRANCH  15  17
ENDBRANCH  14  15
ENDBRANCH   1  14
TORSDOF 8
ENDMDL
MODEL 7
REMARK VINA RESULT:      -7.3      1.768      2.274
REMARK  Name = 
REMARK  10 active torsions:
REMARK  status: ('A' for Active; 'I' for Inactive)
REMARK    1  A    between atoms: C_1  and  C_2
REMARK    2  A    between atoms: C_2  and  C_3
REMARK    3  A    between atoms: C_2  and  C_4
REMARK    4  A    between atoms: C_4  and  N_5
REMARK    5  A    between atoms: C_6  and  C_8
REMARK    6  A    between atoms: C_8  and  O_9
REMARK    7  A    between atoms: O_9  and  C_10
REMARK    8  A    between atoms: C_10  and  C_12
REMARK    9  A    between atoms: C_13  and  C_14
REMARK   10  A    between atoms: C_19  and  N_20
REMARK                            x       y       z     vdW  Elec       q    Type
REMARK                         _______ _______ _______ _____ _____    ______ ____
ROOT
ATOM      1  C   UNL     1       5.093   5.961  16.916  0.00  0.00    +0.000 C 
ATOM      2  O   UNL     1       4.729   7.061  16.532  0.00  0.00    +0.000 OA
ENDROOT
BRANCH   1   3
ATOM      3  C   UNL     1       4.227   4.991  17.632  0.00  0.00    +0.000 C 
ATOM      4  C   UNL     1       3.538   5.402  18.710  0.00  0.00    +0.000 C 
BRANCH   4   5
ATOM      5  C   UNL     1       2.712   4.527  19.556  0.00  0.00    +0.000 A 
ATOM      6  C   UNL     1       2.899   4.587  20.945  0.00  0.00    +0.000 A 
ATOM      7  C   UNL     1       2.228   3.704  21.804  0.00  0.00    +0.000 A 
ATOM      8  C   UNL     1       1.348   2.751  21.296  0.00  0.00    +0.000 A 
ATOM      9  C   UNL     1       1.132   2.676  19.922  0.00  0.00    +0.000 A 
ATOM     10  C   UNL     1       1.817   3.561  19.068  0.00  0.00    +0.000 A 
BRANCH  10  11
ATOM     11  N   UNL     1       1.571   3.402  17.639  0.00  0.00    +0.000 N 
ATOM     12  O   UNL     1       0.847   4.241  17.089  0.00  0.00    +0.000 OA
ATOM     13  O   UNL     1       2.071   2.410  17.092  0.00  0.00    +0.000 OA
ENDBRANCH  10  11
ENDBRANCH   4   5
ENDBRANCH   1   3
BRANCH   1  14
ATOM     14  O   UNL     1       6.339   5.446  16.818  0.00  0.00    +0.000 OA
BRANCH  14  15
ATOM     15  C   UNL     1       6.462   4.231  16.062  0.00  0.00    +0.000 C 
BRANCH  15  17
ATOM     16  N   UNL     1       6.411   3.627  13.687  0.00  0.00    +0.000 N 
ATOM     17  C   UNL     1       6.892   4.519  14.624  0.00  0.00    +0.000 C 
ATOM     18  O   UNL     1       7.640   5.450  14.340  0.00  0.00    +0.000 OA
ATOM     19  H   UNL     1       5.808   2.870  13.990  0.00  0.00    +0.000 HD
BRANCH  16  20
ATOM     20  C   UNL     1       6.745   3.729  12.276  0.00  0.00    +0.000 C 
BRANCH  20  22
ATOM     21  C   UNL     1       6.009   1.445  11.465  0.00  0.00    +0.000 C 
ATOM     22  C   UNL     1       5.777   2.953  11.365  0.00  0.00    +0.000 C 
ATOM     23  C   UNL     1       4.324   3.269  11.732  0.00  0.00    +0.000 C 
ENDBRANCH  20  22
ENDBRANCH  16  20
ENDBRANCH  15  17
ENDBRANCH  14  15
ENDBRANCH   1  14
TORSDOF 8
ENDMDL
MODEL 8
REMARK VINA RESULT:      -7.2      3.706      5.626
REMARK  Name = 
REMARK  10 active torsions:
REMARK  status: ('A' for Active; 'I' for Inactive)
REMARK    1  A    between atoms: C_1  and  C_2
REMARK    2  A    between atoms: C_2  and  C_3
REMARK    3  A    between atoms: C_2  and  C_4
REMARK    4  A    between atoms: C_4  and  N_5
REMARK    5  A    between atoms: C_6  and  C_8
REMARK    6  A    between atoms: C_8  and  O_9
REMARK    7  A    between atoms: O_9  and  C_10
REMARK    8  A    between atoms: C_10  and  C_12
REMARK    9  A    between atoms: C_13  and  C_14
REMARK   10  A    between atoms: C_19  and  N_20
REMARK                            x       y       z     vdW  Elec       q    Type
REMARK                         _______ _______ _______ _____ _____    ______ ____
ROOT
ATOM      1  C   UNL     1       7.291   5.110  16.943  0.00  0.00    +0.000 C 
ATOM      2  O   UNL     1       7.785   4.065  16.549  0.00  0.00    +0.000 OA
ENDROOT
BRANCH   1   3
ATOM      3  C   UNL     1       6.250   5.203  17.997  0.00  0.00    +0.000 C 
ATOM      4  C   UNL     1       5.098   4.530  17.838  0.00  0.00    +0.000 C 
BRANCH   4   5
ATOM      5  C   UNL     1       3.955   4.601  18.763  0.00  0.00    +0.000 A 
ATOM      6  C   UNL     1       3.319   5.842  18.928  0.00  0.00    +0.000 A 
ATOM      7  C   UNL     1       2.298   6.009  19.875  0.00  0.00    +0.000 A 
ATOM      8  C   UNL     1       1.882   4.942  20.666  0.00  0.00    +0.000 A 
ATOM      9  C   UNL     1       2.485   3.695  20.515  0.00  0.00    +0.000 A 
ATOM     10  C   UNL     1       3.515   3.539  19.569  0.00  0.00    +0.000 A 
BRANCH  10  11
ATOM     11  N   UNL     1       4.127   2.218  19.489  0.00  0.00    +0.000 N 
ATOM     12  O   UNL     1       5.056   1.973  20.269  0.00  0.00    +0.000 OA
ATOM     13  O   UNL     1       3.699   1.454  18.614  0.00  0.00    +0.000 OA
ENDBRANCH  10  11
ENDBRANCH   4   5
ENDBRANCH   1   3
BRANCH   1  14
ATOM     14  O   UNL     1       7.546   6.350  16.469  0.00  0.00    +0.000 OA
BRANCH  14  15
ATOM     15  C   UNL     1       6.970   7.438  17.209  0.00  0.00    +0.000 C 
BRANCH  15  17
ATOM     16  N   UNL     1       8.195   9.426  17.954  0.00  0.00    +0.000 N 
ATOM     17  C   UNL     1       7.999   8.073  18.144  0.00  0.00    +0.000 C 
ATOM     18  O   UNL     1       8.627   7.415  18.968  0.00  0.00    +0.000 OA
ATOM     19  H   UNL     1       7.654   9.909  17.246  0.00  0.00    +0.000 HD
BRANCH  16  20
ATOM     20  C   UNL     1       9.159  10.187  18.732  0.00  0.00    +0.000 C 
BRANCH  20  22
ATOM     21  C   UNL     1       8.939  12.532  17.800  0.00  0.00    +0.000 C 
ATOM     22  C   UNL     1       9.843  11.306  17.925  0.00  0.00    +0.000 C 
ATOM     23  C   UNL     1      11.165  11.713  18.584  0.00  0.00    +0.000 C 
ENDBRANCH  20  22
ENDBRANCH  16  20
ENDBRANCH  15  17
ENDBRANCH  14  15
ENDBRANCH   1  14
TORSDOF 8
ENDMDL
MODEL 9
REMARK VINA RESULT:      -7.2      3.662      5.777
REMARK  Name = 
REMARK  10 active torsions:
REMARK  status: ('A' for Active; 'I' for Inactive)
REMARK    1  A    between atoms: C_1  and  C_2
REMARK    2  A    between atoms: C_2  and  C_3
REMARK    3  A    between atoms: C_2  and  C_4
REMARK    4  A    between atoms: C_4  and  N_5
REMARK    5  A    between atoms: C_6  and  C_8
REMARK    6  A    between atoms: C_8  and  O_9
REMARK    7  A    between atoms: O_9  and  C_10
REMARK    8  A    between atoms: C_10  and  C_12
REMARK    9  A    between atoms: C_13  and  C_14
REMARK   10  A    between atoms: C_19  and  N_20
REMARK                            x       y       z     vdW  Elec       q    Type
REMARK                         _______ _______ _______ _____ _____    ______ ____
ROOT
ATOM      1  C   UNL     1       2.242   3.401  21.222  0.00  0.00    +0.000 C 
ATOM      2  O   UNL     1       2.232   3.109  22.407  0.00  0.00    +0.000 OA
ENDROOT
BRANCH   1   3
ATOM      3  C   UNL     1       1.704   4.666  20.663  0.00  0.00    +0.000 C 
ATOM      4  C   UNL     1       2.502   5.745  20.604  0.00  0.00    +0.000 C 
BRANCH   4   5
ATOM      5  C   UNL     1       2.072   7.078  20.152  0.00  0.00    +0.000 A 
ATOM      6  C   UNL     1       1.302   7.855  21.032  0.00  0.00    +0.000 A 
ATOM      7  C   UNL     1       0.763   9.085  20.627  0.00  0.00    +0.000 A 
ATOM      8  C   UNL     1       0.992   9.571  19.343  0.00  0.00    +0.000 A 
ATOM      9  C   UNL     1       1.763   8.829  18.451  0.00  0.00    +0.000 A 
ATOM     10  C   UNL     1       2.291   7.591  18.863  0.00  0.00    +0.000 A 
BRANCH  10  11
ATOM     11  N   UNL     1       3.057   6.850  17.868  0.00  0.00    +0.000 N 
ATOM     12  O   UNL     1       2.622   5.745  17.521  0.00  0.00    +0.000 OA
ATOM     13  O   UNL     1       4.114   7.365  17.477  0.00  0.00    +0.000 OA
ENDBRANCH  10  11
ENDBRANCH   4   5
ENDBRANCH   1   3
BRANCH   1  14
ATOM     14  O   UNL     1       2.681   2.625  20.205  0.00  0.00    +0.000 OA
BRANCH  14  15
ATOM     15  C   UNL     1       4.106   2.507  20.073  0.00  0.00    +0.000 C 
BRANCH  15  17
ATOM     16  N   UNL     1       5.695   3.926  18.861  0.00  0.00    +0.000 N 
ATOM     17  C   UNL     1       4.588   3.108  18.754  0.00  0.00    +0.000 C 
ATOM     18  O   UNL     1       4.006   2.905  17.692  0.00  0.00    +0.000 OA
ATOM     19  H   UNL     1       6.121   4.064  19.771  0.00  0.00    +0.000 HD
BRANCH  16  20
ATOM     20  C   UNL     1       6.269   4.608  17.713  0.00  0.00    +0.000 C 
BRANCH  20  22
ATOM     21  C   UNL     1       7.452   6.824  17.387  0.00  0.00    +0.000 C 
ATOM     22  C   UNL     1       7.505   5.455  18.066  0.00  0.00    +0.000 C 
ATOM     23  C   UNL     1       7.612   5.644  19.582  0.00  0.00    +0.000 C 
ENDBRANCH  20  22
ENDBRANCH  16  20
ENDBRANCH  15  17
ENDBRANCH  14  15
ENDBRANCH   1  14
TORSDOF 8
ENDMDL
