MODEL 1
REMARK VINA RESULT:      -7.5      0.000      0.000
REMARK  Name = 
REMARK  4 active torsions:
REMARK  status: ('A' for Active; 'I' for Inactive)
REMARK    1  A    between atoms: C_1  and  O_2
REMARK    2  A    between atoms: O_2  and  C_3
REMARK    3  A    between atoms: C_8  and  N_9
REMARK    4  A    between atoms: C_10  and  C_12
REMARK                            x       y       z     vdW  Elec       q    Type
REMARK                         _______ _______ _______ _____ _____    ______ ____
ROOT
ATOM      1  N   UNL     1       4.144   4.274  17.609  0.00  0.00    +0.000 N 
ATOM      2  C   UNL     1       5.511   4.371  17.756  0.00  0.00    +0.000 C 
ATOM      3  O   UNL     1       6.039   4.627  18.833  0.00  0.00    +0.000 OA
ATOM      4  H   UNL     1       3.749   3.869  16.767  0.00  0.00    +0.000 HD
ENDROOT
BRANCH   2   5
ATOM      5  C   UNL     1       6.303   4.078  16.498  0.00  0.00    +0.000 C 
ATOM      6  C   UNL     1       5.439   3.490  15.365  0.00  0.00    +0.000 C 
ATOM      7  C   UNL     1       6.209   3.919  14.154  0.00  0.00    +0.000 A 
ATOM      8  C   UNL     1       6.115   3.431  12.862  0.00  0.00    +0.000 A 
ATOM      9  C   UNL     1       6.920   4.008  11.876  0.00  0.00    +0.000 A 
ATOM     10  C   UNL     1       7.785   5.069  12.188  0.00  0.00    +0.000 A 
ATOM     11  C   UNL     1       7.861   5.563  13.490  0.00  0.00    +0.000 A 
ATOM     12  C   UNL     1       7.074   4.973  14.463  0.00  0.00    +0.000 A 
ATOM     13  C   UNL     1       6.958   5.346  15.911  0.00  0.00    +0.000 C 
ENDBRANCH   2   5
BRANCH   1  19
ATOM     14  C   UNL     1       3.165   3.218  19.651  0.00  0.00    +0.000 C 
ATOM     15  C   UNL     1       2.261   2.147  19.025  0.00  0.00    +0.000 C 
ATOM     16  C   UNL     1       0.928   2.746  18.607  0.00  0.00    +0.000 C 
ATOM     17  O   UNL     1       1.151   3.792  17.662  0.00  0.00    +0.000 OA
ATOM     18  C   UNL     1       1.843   4.892  18.266  0.00  0.00    +0.000 C 
ATOM     19  C   UNL     1       3.241   4.477  18.750  0.00  0.00    +0.000 C 
BRANCH  14  21
ATOM     20  C   UNL     1       2.257   2.535  21.759  0.00  0.00    +0.000 C 
ATOM     21  O   UNL     1       2.660   3.624  20.936  0.00  0.00    +0.000 OA
ENDBRANCH  14  21
ENDBRANCH   1  19
TORSDOF 3
ENDMDL
MODEL 2
REMARK VINA RESULT:      -7.0      5.013      7.766
REMARK  Name = 
REMARK  4 active torsions:
REMARK  status: ('A' for Active; 'I' for Inactive)
REMARK    1  A    between atoms: C_1  and  O_2
REMARK    2  A    between atoms: O_2  and  C_3
REMARK    3  A    between atoms: C_8  and  N_9
REMARK    4  A    between atoms: C_10  and  C_12
REMARK                            x       y       z     vdW  Elec       q    Type
REMARK                         _______ _______ _______ _____ _____    ______ ____
ROOT
ATOM      1  N   UNL     1       1.512   8.895  19.099  0.00  0.00    +0.000 N 
ATOM      2  C   UNL     1       2.282   8.119  18.259  0.00  0.00    +0.000 C 
ATOM      3  O   UNL     1       2.689   8.528  17.176  0.00  0.00    +0.000 OA
ATOM      4  H   UNL     1       1.360   8.609  20.060  0.00  0.00    +0.000 HD
ENDROOT
BRANCH   2   5
ATOM      5  C   UNL     1       2.629   6.750  18.807  0.00  0.00    +0.000 C 
ATOM      6  C   UNL     1       1.960   6.456  20.164  0.00  0.00    +0.000 C 
ATOM      7  C   UNL     1       1.885   4.961  20.138  0.00  0.00    +0.000 A 
ATOM      8  C   UNL     1       1.678   4.095  21.198  0.00  0.00    +0.000 A 
ATOM      9  C   UNL     1       1.614   2.724  20.932  0.00  0.00    +0.000 A 
ATOM     10  C   UNL     1       1.739   2.244  19.619  0.00  0.00    +0.000 A 
ATOM     11  C   UNL     1       1.933   3.126  18.555  0.00  0.00    +0.000 A 
ATOM     12  C   UNL     1       2.012   4.479  18.832  0.00  0.00    +0.000 A 
ATOM     13  C   UNL     1       2.182   5.612  17.864  0.00  0.00    +0.000 C 
ENDBRANCH   2   5
BRANCH   1  19
ATOM     14  C   UNL     1       1.379  11.258  19.901  0.00  0.00    +0.000 C 
ATOM     15  C   UNL     1       0.269  11.149  20.955  0.00  0.00    +0.000 C 
ATOM     16  C   UNL     1      -1.102  11.218  20.300  0.00  0.00    +0.000 C 
ATOM     17  O   UNL     1      -1.234  10.153  19.359  0.00  0.00    +0.000 OA
ATOM     18  C   UNL     1      -0.326  10.320  18.264  0.00  0.00    +0.000 C 
ATOM     19  C   UNL     1       1.136  10.267  18.733  0.00  0.00    +0.000 C 
BRANCH  14  21
ATOM     20  C   UNL     1       2.451  12.755  18.371  0.00  0.00    +0.000 C 
ATOM     21  O   UNL     1       1.432  12.585  19.349  0.00  0.00    +0.000 OA
ENDBRANCH  14  21
ENDBRANCH   1  19
TORSDOF 3
ENDMDL
MODEL 3
REMARK VINA RESULT:      -7.0      1.137      1.804
REMARK  Name = 
REMARK  4 active torsions:
REMARK  status: ('A' for Active; 'I' for Inactive)
REMARK    1  A    between atoms: C_1  and  O_2
REMARK    2  A    between atoms: O_2  and  C_3
REMARK    3  A    between atoms: C_8  and  N_9
REMARK    4  A    between atoms: C_10  and  C_12
REMARK                            x       y       z     vdW  Elec       q    Type
REMARK                         _______ _______ _______ _____ _____    ______ ____
ROOT
ATOM      1  N   UNL     1       4.186   4.408  18.258  0.00  0.00    +0.000 N 
ATOM      2  C   UNL     1       5.471   4.557  17.781  0.00  0.00    +0.000 C 
ATOM      3  O   UNL     1       6.459   4.388  18.490  0.00  0.00    +0.000 OA
ATOM      4  H   UNL     1       3.406   4.356  17.612  0.00  0.00    +0.000 HD
ENDROOT
BRANCH   2   5
ATOM      5  C   UNL     1       5.562   4.885  16.305  0.00  0.00    +0.000 C 
ATOM      6  C   UNL     1       6.975   5.323  15.871  0.00  0.00    +0.000 C 
ATOM      7  C   UNL     1       6.972   4.935  14.424  0.00  0.00    +0.000 A 
ATOM      8  C   UNL     1       7.831   5.355  13.423  0.00  0.00    +0.000 A 
ATOM      9  C   UNL     1       7.657   4.832  12.138  0.00  0.00    +0.000 A 
ATOM     10  C   UNL     1       6.648   3.891  11.879  0.00  0.00    +0.000 A 
ATOM     11  C   UNL     1       5.796   3.464  12.898  0.00  0.00    +0.000 A 
ATOM     12  C   UNL     1       5.966   4.000  14.162  0.00  0.00    +0.000 A 
ATOM     13  C   UNL     1       5.205   3.677  15.413  0.00  0.00    +0.000 C 
ENDBRANCH   2   5
BRANCH   1  19
ATOM     14  C   UNL     1       3.645   2.521  19.804  0.00  0.00    +0.000 C 
ATOM     15  C   UNL     1       2.210   2.190  19.373  0.00  0.00    +0.000 C 
ATOM     16  C   UNL     1       1.217   3.124  20.049  0.00  0.00    +0.000 C 
ATOM     17  O   UNL     1       1.520   4.474  19.698  0.00  0.00    +0.000 OA
ATOM     18  C   UNL     1       2.785   4.874  20.238  0.00  0.00    +0.000 C 
ATOM     19  C   UNL     1       3.934   4.037  19.656  0.00  0.00    +0.000 C 
BRANCH  14  21
ATOM     20  C   UNL     1       4.991   1.320  21.377  0.00  0.00    +0.000 C 
ATOM     21  O   UNL     1       3.861   2.162  21.180  0.00  0.00    +0.000 OA
ENDBRANCH  14  21
ENDBRANCH   1  19
TORSDOF 3
ENDMDL
MODEL 4
REMARK VINA RESULT:      -6.9      4.525      8.230
REMARK  Name = 
REMARK  4 active torsions:
REMARK  status: ('A' for Active; 'I' for Inactive)
REMARK    1  A    between atoms: C_1  and  O_2
REMARK    2  A    between atoms: O_2  and  C_3
REMARK    3  A    between atoms: C_8  and  N_9
REMARK    4  A    between atoms: C_10  and  C_12
REMARK                            x       y       z     vdW  Elec       q    Type
REMARK                         _______ _______ _______ _____ _____    ______ ____
ROOT
ATOM      1  N   UNL     1       2.421   6.039  20.205  0.00  0.00    +0.000 N 
ATOM      2  C   UNL     1       2.231   7.192  19.473  0.00  0.00    +0.000 C 
ATOM      3  O   UNL     1       2.325   7.216  18.249  0.00  0.00    +0.000 OA
ATOM      4  H   UNL     1       2.144   6.004  21.180  0.00  0.00    +0.000 HD
ENDROOT
BRANCH   2   5
ATOM      5  C   UNL     1       1.843   8.404  20.294  0.00  0.00    +0.000 C 
ATOM      6  C   UNL     1       0.932   9.384  19.528  0.00  0.00    +0.000 C 
ATOM      7  C   UNL     1       0.195  10.041  20.655  0.00  0.00    +0.000 A 
ATOM      8  C   UNL     1      -0.526  11.223  20.632  0.00  0.00    +0.000 A 
ATOM      9  C   UNL     1      -1.164  11.633  21.806  0.00  0.00    +0.000 A 
ATOM     10  C   UNL     1      -1.088  10.853  22.971  0.00  0.00    +0.000 A 
ATOM     11  C   UNL     1      -0.371   9.656  22.979  0.00  0.00    +0.000 A 
ATOM     12  C   UNL     1       0.271   9.269  21.817  0.00  0.00    +0.000 A 
ATOM     13  C   UNL     1       1.067   8.022  21.572  0.00  0.00    +0.000 C 
ENDBRANCH   2   5
BRANCH   1  19
ATOM     14  C   UNL     1       1.489   4.087  18.955  0.00  0.00    +0.000 C 
ATOM     15  C   UNL     1       0.666   3.399  20.053  0.00  0.00    +0.000 C 
ATOM     16  C   UNL     1       1.554   2.515  20.915  0.00  0.00    +0.000 C 
ATOM     17  O   UNL     1       2.578   3.309  21.514  0.00  0.00    +0.000 OA
ATOM     18  C   UNL     1       3.473   3.827  20.523  0.00  0.00    +0.000 C 
ATOM     19  C   UNL     1       2.749   4.767  19.548  0.00  0.00    +0.000 C 
BRANCH  14  21
ATOM     20  C   UNL     1       2.921   3.639  17.090  0.00  0.00    +0.000 C 
ATOM     21  O   UNL     1       1.923   3.133  17.969  0.00  0.00    +0.000 OA
ENDBRANCH  14  21
ENDBRANCH   1  19
TORSDOF 3
ENDMDL
MODEL 5
REMARK VINA RESULT:      -6.9      4.672      8.392
REMARK  Name = 
REMARK  4 active torsions:
REMARK  status: ('A' for Active; 'I' for Inactive)
REMARK    1  A    between atoms: C_1  and  O_2
REMARK    2  A    between atoms: O_2  and  C_3
REMARK    3  A    between atoms: C_8  and  N_9
REMARK    4  A    between atoms: C_10  and  C_12
REMARK                            x       y       z     vdW  Elec       q    Type
REMARK                         _______ _______ _______ _____ _____    ______ ____
ROOT
ATOM      1  N   UNL     1       2.569   6.946  18.969  0.00  0.00    +0.000 N 
ATOM      2  C   UNL     1       2.140   8.189  18.556  0.00  0.00    +0.000 C 
ATOM      3  O   UNL     1       2.049   8.492  17.370  0.00  0.00    +0.000 OA
ATOM      4  H   UNL     1       2.445   6.659  19.934  0.00  0.00    +0.000 HD
ENDROOT
BRANCH   2   5
ATOM      5  C   UNL     1       1.739   9.123  19.679  0.00  0.00    +0.000 C 
ATOM      6  C   UNL     1       0.599  10.083  19.286  0.00  0.00    +0.000 C 
ATOM      7  C   UNL     1      -0.024  10.361  20.619  0.00  0.00    +0.000 A 
ATOM      8  C   UNL     1      -0.884  11.390  20.964  0.00  0.00    +0.000 A 
ATOM      9  C   UNL     1      -1.370  11.436  22.274  0.00  0.00    +0.000 A 
ATOM     10  C   UNL     1      -1.007  10.452  23.207  0.00  0.00    +0.000 A 
ATOM     11  C   UNL     1      -0.151   9.411  22.845  0.00  0.00    +0.000 A 
ATOM     12  C   UNL     1       0.337   9.385  21.551  0.00  0.00    +0.000 A 
ATOM     13  C   UNL     1       1.236   8.361  20.923  0.00  0.00    +0.000 C 
ENDBRANCH   2   5
BRANCH   1  19
ATOM     14  C   UNL     1       2.655   4.486  18.539  0.00  0.00    +0.000 C 
ATOM     15  C   UNL     1       3.734   4.050  19.539  0.00  0.00    +0.000 C 
ATOM     16  C   UNL     1       5.124   4.273  18.962  0.00  0.00    +0.000 C 
ATOM     17  O   UNL     1       5.294   5.655  18.652  0.00  0.00    +0.000 OA
ATOM     18  C   UNL     1       4.417   6.056  17.592  0.00  0.00    +0.000 C 
ATOM     19  C   UNL     1       2.942   5.910  17.997  0.00  0.00    +0.000 C 
BRANCH  14  21
ATOM     20  C   UNL     1       2.350   2.236  17.780  0.00  0.00    +0.000 C 
ATOM     21  O   UNL     1       2.607   3.587  17.416  0.00  0.00    +0.000 OA
ENDBRANCH  14  21
ENDBRANCH   1  19
TORSDOF 3
ENDMDL
MODEL 6
REMARK VINA RESULT:      -6.7      3.915      7.279
REMARK  Name = 
REMARK  4 active torsions:
REMARK  status: ('A' for Active; 'I' for Inactive)
REMARK    1  A    between atoms: C_1  and  O_2
REMARK    2  A    between atoms: O_2  and  C_3
REMARK    3  A    between atoms: C_8  and  N_9
REMARK    4  A    between atoms: C_10  and  C_12
REMARK                            x       y       z     vdW  Elec       q    Type
REMARK                         _______ _______ _______ _____ _____    ______ ____
ROOT
ATOM      1  N   UNL     1       3.236   5.601  18.609  0.00  0.00    +0.000 N 
ATOM      2  C   UNL     1       3.168   6.881  18.101  0.00  0.00    +0.000 C 
ATOM      3  O   UNL     1       4.003   7.321  17.317  0.00  0.00    +0.000 OA
ATOM      4  H   UNL     1       2.438   5.201  19.090  0.00  0.00    +0.000 HD
ENDROOT
BRANCH   2   5
ATOM      5  C   UNL     1       1.955   7.672  18.545  0.00  0.00    +0.000 C 
ATOM      6  C   UNL     1       1.860   7.822  20.076  0.00  0.00    +0.000 C 
ATOM      7  C   UNL     1       1.081   9.096  20.199  0.00  0.00    +0.000 A 
ATOM      8  C   UNL     1       0.408   9.584  21.306  0.00  0.00    +0.000 A 
ATOM      9  C   UNL     1      -0.232  10.822  21.199  0.00  0.00    +0.000 A 
ATOM     10  C   UNL     1      -0.174  11.557  20.005  0.00  0.00    +0.000 A 
ATOM     11  C   UNL     1       0.520  11.063  18.899  0.00  0.00    +0.000 A 
ATOM     12  C   UNL     1       1.134   9.828  19.010  0.00  0.00    +0.000 A 
ATOM     13  C   UNL     1       1.956   9.110  17.982  0.00  0.00    +0.000 C 
ENDBRANCH   2   5
BRANCH   1  19
ATOM     14  C   UNL     1       3.962   3.854  16.978  0.00  0.00    +0.000 C 
ATOM     15  C   UNL     1       3.017   2.701  17.340  0.00  0.00    +0.000 C 
ATOM     16  C   UNL     1       3.554   1.918  18.528  0.00  0.00    +0.000 C 
ATOM     17  O   UNL     1       3.692   2.790  19.649  0.00  0.00    +0.000 OA
ATOM     18  C   UNL     1       4.700   3.779  19.410  0.00  0.00    +0.000 C 
ATOM     19  C   UNL     1       4.325   4.691  18.231  0.00  0.00    +0.000 C 
BRANCH  14  21
ATOM     20  C   UNL     1       6.043   4.372  15.913  0.00  0.00    +0.000 C 
ATOM     21  O   UNL     1       5.186   3.352  16.413  0.00  0.00    +0.000 OA
ENDBRANCH  14  21
ENDBRANCH   1  19
TORSDOF 3
ENDMDL
MODEL 7
REMARK VINA RESULT:      -6.7      0.938      1.141
REMARK  Name = 
REMARK  4 active torsions:
REMARK  status: ('A' for Active; 'I' for Inactive)
REMARK    1  A    between atoms: C_1  and  O_2
REMARK    2  A    between atoms: O_2  and  C_3
REMARK    3  A    between atoms: C_8  and  N_9
REMARK    4  A    between atoms: C_10  and  C_12
REMARK                            x       y       z     vdW  Elec       q    Type
REMARK                         _______ _______ _______ _____ _____    ______ ____
ROOT
ATOM      1  N   UNL     1       3.613   4.275  17.441  0.00  0.00    +0.000 N 
ATOM      2  C   UNL     1       4.876   4.826  17.495  0.00  0.00    +0.000 C 
ATOM      3  O   UNL     1       5.228   5.573  18.403  0.00  0.00    +0.000 OA
ATOM      4  H   UNL     1       3.416   3.514  16.800  0.00  0.00    +0.000 HD
ENDROOT
BRANCH   2   5
ATOM      5  C   UNL     1       5.804   4.387  16.381  0.00  0.00    +0.000 C 
ATOM      6  C   UNL     1       5.058   3.748  15.193  0.00  0.00    +0.000 C 
ATOM      7  C   UNL     1       6.002   4.033  14.066  0.00  0.00    +0.000 A 
ATOM      8  C   UNL     1       6.046   3.441  12.815  0.00  0.00    +0.000 A 
ATOM      9  C   UNL     1       7.004   3.891  11.902  0.00  0.00    +0.000 A 
ATOM     10  C   UNL     1       7.884   4.931  12.242  0.00  0.00    +0.000 A 
ATOM     11  C   UNL     1       7.822   5.530  13.500  0.00  0.00    +0.000 A 
ATOM     12  C   UNL     1       6.882   5.065  14.402  0.00  0.00    +0.000 A 
ATOM     13  C   UNL     1       6.604   5.566  15.788  0.00  0.00    +0.000 C 
ENDBRANCH   2   5
BRANCH   1  19
ATOM     14  C   UNL     1       3.058   4.023  19.864  0.00  0.00    +0.000 C 
ATOM     15  C   UNL     1       2.841   2.507  19.960  0.00  0.00    +0.000 C 
ATOM     16  C   UNL     1       1.432   2.137  19.525  0.00  0.00    +0.000 C 
ATOM     17  O   UNL     1       1.222   2.563  18.178  0.00  0.00    +0.000 OA
ATOM     18  C   UNL     1       1.244   3.992  18.083  0.00  0.00    +0.000 C 
ATOM     19  C   UNL     1       2.615   4.561  18.480  0.00  0.00    +0.000 C 
BRANCH  14  21
ATOM     20  C   UNL     1       2.062   6.083  20.568  0.00  0.00    +0.000 C 
ATOM     21  O   UNL     1       2.296   4.712  20.871  0.00  0.00    +0.000 OA
ENDBRANCH  14  21
ENDBRANCH   1  19
TORSDOF 3
ENDMDL
MODEL 8
REMARK VINA RESULT:      -6.6      4.122      7.655
REMARK  Name = 
REMARK  4 active torsions:
REMARK  status: ('A' for Active; 'I' for Inactive)
REMARK    1  A    between atoms: C_1  and  O_2
REMARK    2  A    between atoms: O_2  and  C_3
REMARK    3  A    between atoms: C_8  and  N_9
REMARK    4  A    between atoms: C_10  and  C_12
REMARK                            x       y       z     vdW  Elec       q    Type
REMARK                         _______ _______ _______ _____ _____    ______ ____
ROOT
ATOM      1  N   UNL     1       3.316   6.284  18.896  0.00  0.00    +0.000 N 
ATOM      2  C   UNL     1       2.340   6.529  19.839  0.00  0.00    +0.000 C 
ATOM      3  O   UNL     1       1.812   5.630  20.486  0.00  0.00    +0.000 OA
ATOM      4  H   UNL     1       3.870   7.049  18.526  0.00  0.00    +0.000 HD
ENDROOT
BRANCH   2   5
ATOM      5  C   UNL     1       2.020   7.994  20.050  0.00  0.00    +0.000 C 
ATOM      6  C   UNL     1       1.497   8.686  18.776  0.00  0.00    +0.000 C 
ATOM      7  C   UNL     1       0.671   9.792  19.359  0.00  0.00    +0.000 A 
ATOM      8  C   UNL     1       0.208  10.936  18.733  0.00  0.00    +0.000 A 
ATOM      9  C   UNL     1      -0.579  11.824  19.473  0.00  0.00    +0.000 A 
ATOM     10  C   UNL     1      -0.904  11.548  20.810  0.00  0.00    +0.000 A 
ATOM     11  C   UNL     1      -0.443  10.385  21.428  0.00  0.00    +0.000 A 
ATOM     12  C   UNL     1       0.349   9.522  20.692  0.00  0.00    +0.000 A 
ATOM     13  C   UNL     1       0.929   8.207  21.121  0.00  0.00    +0.000 C 
ENDBRANCH   2   5
BRANCH   1  19
ATOM     14  C   UNL     1       5.042   4.560  19.433  0.00  0.00    +0.000 C 
ATOM     15  C   UNL     1       6.295   5.193  18.812  0.00  0.00    +0.000 C 
ATOM     16  C   UNL     1       6.362   4.901  17.321  0.00  0.00    +0.000 C 
ATOM     17  O   UNL     1       5.197   5.422  16.681  0.00  0.00    +0.000 OA
ATOM     18  C   UNL     1       4.020   4.728  17.111  0.00  0.00    +0.000 C 
ATOM     19  C   UNL     1       3.775   4.917  18.616  0.00  0.00    +0.000 C 
BRANCH  14  21
ATOM     20  C   UNL     1       4.041   2.478  20.063  0.00  0.00    +0.000 C 
ATOM     21  O   UNL     1       5.158   3.126  19.465  0.00  0.00    +0.000 OA
ENDBRANCH  14  21
ENDBRANCH   1  19
TORSDOF 3
ENDMDL
MODEL 9
REMARK VINA RESULT:      -6.6      5.014      6.436
REMARK  Name = 
REMARK  4 active torsions:
REMARK  status: ('A' for Active; 'I' for Inactive)
REMARK    1  A    between atoms: C_1  and  O_2
REMARK    2  A    between atoms: O_2  and  C_3
REMARK    3  A    between atoms: C_8  and  N_9
REMARK    4  A    between atoms: C_10  and  C_12
REMARK                            x       y       z     vdW  Elec       q    Type
REMARK                         _______ _______ _______ _____ _____    ______ ____
ROOT
ATOM      1  N   UNL     1       1.488   9.298  19.021  0.00  0.00    +0.000 N 
ATOM      2  C   UNL     1       1.867   8.021  19.376  0.00  0.00    +0.000 C 
ATOM      3  O   UNL     1       1.779   7.606  20.527  0.00  0.00    +0.000 OA
ATOM      4  H   UNL     1       1.383   9.546  18.044  0.00  0.00    +0.000 HD
ENDROOT
BRANCH   2   5
ATOM      5  C   UNL     1       2.340   7.161  18.223  0.00  0.00    +0.000 C 
ATOM      6  C   UNL     1       3.618   7.702  17.552  0.00  0.00    +0.000 C 
ATOM      7  C   UNL     1       4.212   6.446  16.992  0.00  0.00    +0.000 A 
ATOM      8  C   UNL     1       5.188   6.320  16.018  0.00  0.00    +0.000 A 
ATOM      9  C   UNL     1       5.615   5.036  15.671  0.00  0.00    +0.000 A 
ATOM     10  C   UNL     1       5.080   3.906  16.309  0.00  0.00    +0.000 A 
ATOM     11  C   UNL     1       4.106   4.045  17.300  0.00  0.00    +0.000 A 
ATOM     12  C   UNL     1       3.678   5.319  17.624  0.00  0.00    +0.000 A 
ATOM     13  C   UNL     1       2.678   5.721  18.666  0.00  0.00    +0.000 C 
ENDBRANCH   2   5
BRANCH   1  19
ATOM     14  C   UNL     1      -0.568  10.047  20.228  0.00  0.00    +0.000 C 
ATOM     15  C   UNL     1      -1.365  10.687  19.083  0.00  0.00    +0.000 C 
ATOM     16  C   UNL     1      -0.901  12.114  18.838  0.00  0.00    +0.000 C 
ATOM     17  O   UNL     1       0.488  12.114  18.508  0.00  0.00    +0.000 OA
ATOM     18  C   UNL     1       1.280  11.686  19.623  0.00  0.00    +0.000 C 
ATOM     19  C   UNL     1       0.957  10.237  20.018  0.00  0.00    +0.000 C 
BRANCH  14  21
ATOM     20  C   UNL     1      -0.383   9.953  22.613  0.00  0.00    +0.000 C 
ATOM     21  O   UNL     1      -0.918  10.643  21.490  0.00  0.00    +0.000 OA
ENDBRANCH  14  21
ENDBRANCH   1  19
TORSDOF 3
ENDMDL
