MODEL 1
REMARK VINA RESULT:      -6.3      0.000      0.000
REMARK  Name = 
REMARK  7 active torsions:
REMARK  status: ('A' for Active; 'I' for Inactive)
REMARK    1  A    between atoms: C_1  and  C_2
REMARK    2  A    between atoms: C_3  and  S_4
REMARK    3  A    between atoms: S_4  and  S_5
REMARK    4  A    between atoms: S_5  and  C_6
REMARK    5  A    between atoms: C_7  and  C_8
REMARK    6  A    between atoms: N_15  and  C_16
REMARK    7  A    between atoms: N_17  and  C_18
REMARK                            x       y       z     vdW  Elec       q    Type
REMARK                         _______ _______ _______ _____ _____    ______ ____
ROOT
ATOM      1  S   UNL     1      -1.693  12.453  21.520  0.00  0.00    +0.000 S 
ENDROOT
BRANCH   1   4
ATOM      2  C   UNL     1      -0.272   9.692  23.043  0.00  0.00    +0.000 C 
ATOM      3  C   UNL     1      -0.184  10.024  21.595  0.00  0.00    +0.000 A 
ATOM      4  C   UNL     1      -0.776  11.078  20.910  0.00  0.00    +0.000 A 
ATOM      5  N   UNL     1      -0.422  10.969  19.581  0.00  0.00    +0.000 N 
ATOM      6  C   UNL     1      -0.820  11.821  18.479  0.00  0.00    +0.000 C 
ATOM      7  C   UNL     1       0.443   9.892  19.402  0.00  0.00    +0.000 A 
ATOM      8  C   UNL     1       1.093   9.413  18.249  0.00  0.00    +0.000 A 
ATOM      9  C   UNL     1       1.946   8.315  18.376  0.00  0.00    +0.000 A 
ATOM     10  C   UNL     1       2.141   7.703  19.609  0.00  0.00    +0.000 A 
ATOM     11  C   UNL     1       1.471   8.175  20.745  0.00  0.00    +0.000 A 
ATOM     12  C   UNL     1       0.608   9.290  20.646  0.00  0.00    +0.000 A 
ENDBRANCH   1   4
BRANCH   1  13
ATOM     13  S   UNL     1      -0.173  13.725  22.058  0.00  0.00    +0.000 S 
BRANCH  13  14
ATOM     14  C   UNL     1       0.189  14.589  20.562  0.00  0.00    +0.000 A 
ATOM     15  C   UNL     1      -0.507  15.642  19.988  0.00  0.00    +0.000 A 
ATOM     16  C   UNL     1      -1.854  16.160  20.352  0.00  0.00    +0.000 C 
ATOM     17  C   UNL     1       0.366  16.252  19.026  0.00  0.00    +0.000 A 
ATOM     18  C   UNL     1       0.273  17.415  18.227  0.00  0.00    +0.000 A 
ATOM     19  C   UNL     1       1.350  17.801  17.422  0.00  0.00    +0.000 A 
ATOM     20  C   UNL     1       2.504  17.029  17.378  0.00  0.00    +0.000 A 
ATOM     21  C   UNL     1       2.611  15.857  18.139  0.00  0.00    +0.000 A 
ATOM     22  C   UNL     1       1.536  15.492  18.975  0.00  0.00    +0.000 A 
ATOM     23  N   UNL     1       1.376  14.441  19.871  0.00  0.00    +0.000 N 
ATOM     24  C   UNL     1       2.340  13.376  20.044  0.00  0.00    +0.000 C 
ENDBRANCH  13  14
ENDBRANCH   1  13
TORSDOF 3
ENDMDL
MODEL 2
REMARK VINA RESULT:      -6.2      5.039      9.172
REMARK  Name = 
REMARK  7 active torsions:
REMARK  status: ('A' for Active; 'I' for Inactive)
REMARK    1  A    between atoms: C_1  and  C_2
REMARK    2  A    between atoms: C_3  and  S_4
REMARK    3  A    between atoms: S_4  and  S_5
REMARK    4  A    between atoms: S_5  and  C_6
REMARK    5  A    between atoms: C_7  and  C_8
REMARK    6  A    between atoms: N_15  and  C_16
REMARK    7  A    between atoms: N_17  and  C_18
REMARK                            x       y       z     vdW  Elec       q    Type
REMARK                         _______ _______ _______ _____ _____    ______ ____
ROOT
ATOM      1  S   UNL     1       2.635   7.378  17.997  0.00  0.00    +0.000 S 
ENDROOT
BRANCH   1   4
ATOM      2  C   UNL     1       1.524   6.271  21.080  0.00  0.00    +0.000 C 
ATOM      3  C   UNL     1       1.400   7.661  20.563  0.00  0.00    +0.000 A 
ATOM      4  C   UNL     1       1.873   8.185  19.366  0.00  0.00    +0.000 A 
ATOM      5  N   UNL     1       1.532   9.521  19.327  0.00  0.00    +0.000 N 
ATOM      6  C   UNL     1       1.834  10.489  18.292  0.00  0.00    +0.000 C 
ATOM      7  C   UNL     1       0.791   9.860  20.456  0.00  0.00    +0.000 A 
ATOM      8  C   UNL     1       0.196  11.077  20.837  0.00  0.00    +0.000 A 
ATOM      9  C   UNL     1      -0.532  11.116  22.028  0.00  0.00    +0.000 A 
ATOM     10  C   UNL     1      -0.658   9.982  22.823  0.00  0.00    +0.000 A 
ATOM     11  C   UNL     1      -0.043   8.782  22.443  0.00  0.00    +0.000 A 
ATOM     12  C   UNL     1       0.693   8.713  21.239  0.00  0.00    +0.000 A 
ENDBRANCH   1   4
BRANCH   1  13
ATOM     13  S   UNL     1       4.031   6.219  18.960  0.00  0.00    +0.000 S 
BRANCH  13  14
ATOM     14  C   UNL     1       4.874   5.408  17.639  0.00  0.00    +0.000 A 
ATOM     15  C   UNL     1       4.421   4.367  16.841  0.00  0.00    +0.000 A 
ATOM     16  C   UNL     1       3.215   3.516  17.039  0.00  0.00    +0.000 C 
ATOM     17  C   UNL     1       5.270   4.320  15.685  0.00  0.00    +0.000 A 
ATOM     18  C   UNL     1       5.239   3.572  14.485  0.00  0.00    +0.000 A 
ATOM     19  C   UNL     1       6.188   3.811  13.485  0.00  0.00    +0.000 A 
ATOM     20  C   UNL     1       7.185   4.759  13.679  0.00  0.00    +0.000 A 
ATOM     21  C   UNL     1       7.255   5.492  14.870  0.00  0.00    +0.000 A 
ATOM     22  C   UNL     1       6.275   5.273  15.858  0.00  0.00    +0.000 A 
ATOM     23  N   UNL     1       6.052   5.876  17.091  0.00  0.00    +0.000 N 
ATOM     24  C   UNL     1       6.935   6.862  17.678  0.00  0.00    +0.000 C 
ENDBRANCH  13  14
ENDBRANCH   1  13
TORSDOF 3
ENDMDL
MODEL 3
REMARK VINA RESULT:      -6.1      3.391      7.224
REMARK  Name = 
REMARK  7 active torsions:
REMARK  status: ('A' for Active; 'I' for Inactive)
REMARK    1  A    between atoms: C_1  and  C_2
REMARK    2  A    between atoms: C_3  and  S_4
REMARK    3  A    between atoms: S_4  and  S_5
REMARK    4  A    between atoms: S_5  and  C_6
REMARK    5  A    between atoms: C_7  and  C_8
REMARK    6  A    between atoms: N_15  and  C_16
REMARK    7  A    between atoms: N_17  and  C_18
REMARK                            x       y       z     vdW  Elec       q    Type
REMARK                         _______ _______ _______ _____ _____    ______ ____
ROOT
ATOM      1  S   UNL     1       0.035  12.411  18.914  0.00  0.00    +0.000 S 
ENDROOT
BRANCH   1   4
ATOM      2  C   UNL     1      -1.794  10.054  17.164  0.00  0.00    +0.000 C 
ATOM      3  C   UNL     1      -2.351  11.037  18.133  0.00  0.00    +0.000 A 
ATOM      4  C   UNL     1      -1.671  11.967  18.911  0.00  0.00    +0.000 A 
ATOM      5  N   UNL     1      -2.603  12.647  19.666  0.00  0.00    +0.000 N 
ATOM      6  C   UNL     1      -2.370  13.690  20.644  0.00  0.00    +0.000 C 
ATOM      7  C   UNL     1      -3.887  12.214  19.346  0.00  0.00    +0.000 A 
ATOM      8  C   UNL     1      -5.146  12.633  19.817  0.00  0.00    +0.000 A 
ATOM      9  C   UNL     1      -6.288  12.034  19.281  0.00  0.00    +0.000 A 
ATOM     10  C   UNL     1      -6.184  11.041  18.314  0.00  0.00    +0.000 A 
ATOM     11  C   UNL     1      -4.926  10.617  17.870  0.00  0.00    +0.000 A 
ATOM     12  C   UNL     1      -3.754  11.212  18.389  0.00  0.00    +0.000 A 
ENDBRANCH   1   4
BRANCH   1  13
ATOM     13  S   UNL     1       0.678  11.465  20.620  0.00  0.00    +0.000 S 
BRANCH  13  14
ATOM     14  C   UNL     1       0.974   9.810  20.085  0.00  0.00    +0.000 A 
ATOM     15  C   UNL     1       1.638   9.381  18.945  0.00  0.00    +0.000 A 
ATOM     16  C   UNL     1       2.064  10.191  17.771  0.00  0.00    +0.000 C 
ATOM     17  C   UNL     1       1.966   7.998  19.142  0.00  0.00    +0.000 A 
ATOM     18  C   UNL     1       2.731   7.065  18.403  0.00  0.00    +0.000 A 
ATOM     19  C   UNL     1       2.939   5.776  18.904  0.00  0.00    +0.000 A 
ATOM     20  C   UNL     1       2.370   5.394  20.113  0.00  0.00    +0.000 A 
ATOM     21  C   UNL     1       1.585   6.290  20.850  0.00  0.00    +0.000 A 
ATOM     22  C   UNL     1       1.408   7.599  20.357  0.00  0.00    +0.000 A 
ATOM     23  N   UNL     1       0.747   8.704  20.882  0.00  0.00    +0.000 N 
ATOM     24  C   UNL     1      -0.038   8.672  22.097  0.00  0.00    +0.000 C 
ENDBRANCH  13  14
ENDBRANCH   1  13
TORSDOF 3
ENDMDL
MODEL 4
REMARK VINA RESULT:      -6.1      2.788      7.647
REMARK  Name = 
REMARK  7 active torsions:
REMARK  status: ('A' for Active; 'I' for Inactive)
REMARK    1  A    between atoms: C_1  and  C_2
REMARK    2  A    between atoms: C_3  and  S_4
REMARK    3  A    between atoms: S_4  and  S_5
REMARK    4  A    between atoms: S_5  and  C_6
REMARK    5  A    between atoms: C_7  and  C_8
REMARK    6  A    between atoms: N_15  and  C_16
REMARK    7  A    between atoms: N_17  and  C_18
REMARK                            x       y       z     vdW  Elec       q    Type
REMARK                         _______ _______ _______ _____ _____    ______ ____
ROOT
ATOM      1  S   UNL     1      -0.262   9.496  19.945  0.00  0.00    +0.000 S 
ENDROOT
BRANCH   1   4
ATOM      2  C   UNL     1      -1.058  10.353  23.200  0.00  0.00    +0.000 C 
ATOM      3  C   UNL     1      -0.658  11.304  22.128  0.00  0.00    +0.000 A 
ATOM      4  C   UNL     1      -0.271  11.025  20.823  0.00  0.00    +0.000 A 
ATOM      5  N   UNL     1       0.020  12.222  20.203  0.00  0.00    +0.000 N 
ATOM      6  C   UNL     1       0.492  12.435  18.851  0.00  0.00    +0.000 C 
ATOM      7  C   UNL     1      -0.230  13.282  21.070  0.00  0.00    +0.000 A 
ATOM      8  C   UNL     1      -0.122  14.673  20.880  0.00  0.00    +0.000 A 
ATOM      9  C   UNL     1      -0.482  15.516  21.934  0.00  0.00    +0.000 A 
ATOM     10  C   UNL     1      -0.926  14.995  23.144  0.00  0.00    +0.000 A 
ATOM     11  C   UNL     1      -1.008  13.609  23.327  0.00  0.00    +0.000 A 
ATOM     12  C   UNL     1      -0.658  12.733  22.275  0.00  0.00    +0.000 A 
ENDBRANCH   1   4
BRANCH   1  13
ATOM     13  S   UNL     1       1.248   8.499  20.917  0.00  0.00    +0.000 S 
BRANCH  13  14
ATOM     14  C   UNL     1       2.003   7.547  19.637  0.00  0.00    +0.000 A 
ATOM     15  C   UNL     1       2.507   7.988  18.422  0.00  0.00    +0.000 A 
ATOM     16  C   UNL     1       2.336   9.323  17.787  0.00  0.00    +0.000 C 
ATOM     17  C   UNL     1       3.353   6.946  17.914  0.00  0.00    +0.000 A 
ATOM     18  C   UNL     1       4.222   6.854  16.801  0.00  0.00    +0.000 A 
ATOM     19  C   UNL     1       4.992   5.703  16.606  0.00  0.00    +0.000 A 
ATOM     20  C   UNL     1       4.885   4.631  17.484  0.00  0.00    +0.000 A 
ATOM     21  C   UNL     1       4.010   4.685  18.577  0.00  0.00    +0.000 A 
ATOM     22  C   UNL     1       3.264   5.862  18.789  0.00  0.00    +0.000 A 
ATOM     23  N   UNL     1       2.378   6.227  19.796  0.00  0.00    +0.000 N 
ATOM     24  C   UNL     1       1.948   5.338  20.854  0.00  0.00    +0.000 C 
ENDBRANCH  13  14
ENDBRANCH   1  13
TORSDOF 3
ENDMDL
MODEL 5
REMARK VINA RESULT:      -6.0      1.290      7.046
REMARK  Name = 
REMARK  7 active torsions:
REMARK  status: ('A' for Active; 'I' for Inactive)
REMARK    1  A    between atoms: C_1  and  C_2
REMARK    2  A    between atoms: C_3  and  S_4
REMARK    3  A    between atoms: S_4  and  S_5
REMARK    4  A    between atoms: S_5  and  C_6
REMARK    5  A    between atoms: C_7  and  C_8
REMARK    6  A    between atoms: N_15  and  C_16
REMARK    7  A    between atoms: N_17  and  C_18
REMARK                            x       y       z     vdW  Elec       q    Type
REMARK                         _______ _______ _______ _____ _____    ______ ____
ROOT
ATOM      1  S   UNL     1       0.102  13.740  21.841  0.00  0.00    +0.000 S 
ENDROOT
BRANCH   1   4
ATOM      2  C   UNL     1       1.418  14.704  18.791  0.00  0.00    +0.000 C 
ATOM      3  C   UNL     1       0.226  15.306  19.449  0.00  0.00    +0.000 A 
ATOM      4  C   UNL     1      -0.389  14.931  20.638  0.00  0.00    +0.000 A 
ATOM      5  N   UNL     1      -1.466  15.769  20.838  0.00  0.00    +0.000 N 
ATOM      6  C   UNL     1      -2.422  15.748  21.926  0.00  0.00    +0.000 C 
ATOM      7  C   UNL     1      -1.526  16.723  19.826  0.00  0.00    +0.000 A 
ATOM      8  C   UNL     1      -2.412  17.798  19.623  0.00  0.00    +0.000 A 
ATOM      9  C   UNL     1      -2.206  18.628  18.519  0.00  0.00    +0.000 A 
ATOM     10  C   UNL     1      -1.159  18.392  17.636  0.00  0.00    +0.000 A 
ATOM     11  C   UNL     1      -0.297  17.306  17.836  0.00  0.00    +0.000 A 
ATOM     12  C   UNL     1      -0.478  16.455  18.949  0.00  0.00    +0.000 A 
ENDBRANCH   1   4
BRANCH   1  13
ATOM     13  S   UNL     1      -1.438  12.388  21.697  0.00  0.00    +0.000 S 
BRANCH  13  14
ATOM     14  C   UNL     1      -0.745  11.077  20.740  0.00  0.00    +0.000 A 
ATOM     15  C   UNL     1      -0.505  11.044  19.374  0.00  0.00    +0.000 A 
ATOM     16  C   UNL     1      -0.978  12.000  18.335  0.00  0.00    +0.000 C 
ATOM     17  C   UNL     1       0.408   9.964  19.131  0.00  0.00    +0.000 A 
ATOM     18  C   UNL     1       1.102   9.516  17.983  0.00  0.00    +0.000 A 
ATOM     19  C   UNL     1       2.006   8.453  18.080  0.00  0.00    +0.000 A 
ATOM     20  C   UNL     1       2.202   7.809  19.296  0.00  0.00    +0.000 A 
ATOM     21  C   UNL     1       1.505   8.215  20.442  0.00  0.00    +0.000 A 
ATOM     22  C   UNL     1       0.623   9.310  20.345  0.00  0.00    +0.000 A 
ATOM     23  N   UNL     1      -0.147   9.965  21.300  0.00  0.00    +0.000 N 
ATOM     24  C   UNL     1      -0.266   9.531  22.675  0.00  0.00    +0.000 C 
ENDBRANCH  13  14
ENDBRANCH   1  13
TORSDOF 3
ENDMDL
MODEL 6
REMARK VINA RESULT:      -6.0      3.642      8.774
REMARK  Name = 
REMARK  7 active torsions:
REMARK  status: ('A' for Active; 'I' for Inactive)
REMARK    1  A    between atoms: C_1  and  C_2
REMARK    2  A    between atoms: C_3  and  S_4
REMARK    3  A    between atoms: S_4  and  S_5
REMARK    4  A    between atoms: S_5  and  C_6
REMARK    5  A    between atoms: C_7  and  C_8
REMARK    6  A    between atoms: N_15  and  C_16
REMARK    7  A    between atoms: N_17  and  C_18
REMARK                            x       y       z     vdW  Elec       q    Type
REMARK                         _______ _______ _______ _____ _____    ______ ____
ROOT
ATOM      1  S   UNL     1       1.216   9.000  19.127  0.00  0.00    +0.000 S 
ENDROOT
BRANCH   1   4
ATOM      2  C   UNL     1      -0.599   8.778  22.063  0.00  0.00    +0.000 C 
ATOM      3  C   UNL     1      -0.103  10.038  21.444  0.00  0.00    +0.000 A 
ATOM      4  C   UNL     1       0.677  10.195  20.305  0.00  0.00    +0.000 A 
ATOM      5  N   UNL     1       0.899  11.544  20.128  0.00  0.00    +0.000 N 
ATOM      6  C   UNL     1       1.679  12.193  19.094  0.00  0.00    +0.000 C 
ATOM      7  C   UNL     1       0.222  12.273  21.103  0.00  0.00    +0.000 A 
ATOM      8  C   UNL     1       0.116  13.662  21.308  0.00  0.00    +0.000 A 
ATOM      9  C   UNL     1      -0.675  14.117  22.366  0.00  0.00    +0.000 A 
ATOM     10  C   UNL     1      -1.331  13.221  23.202  0.00  0.00    +0.000 A 
ATOM     11  C   UNL     1      -1.199  11.841  23.001  0.00  0.00    +0.000 A 
ATOM     12  C   UNL     1      -0.412  11.353  21.933  0.00  0.00    +0.000 A 
ENDBRANCH   1   4
BRANCH   1  13
ATOM     13  S   UNL     1       2.061   7.592  20.361  0.00  0.00    +0.000 S 
BRANCH  13  14
ATOM     14  C   UNL     1       2.364   6.229  19.283  0.00  0.00    +0.000 A 
ATOM     15  C   UNL     1       3.193   6.180  18.172  0.00  0.00    +0.000 A 
ATOM     16  C   UNL     1       3.854   7.313  17.469  0.00  0.00    +0.000 C 
ATOM     17  C   UNL     1       3.414   4.794  17.871  0.00  0.00    +0.000 A 
ATOM     18  C   UNL     1       4.249   4.120  16.949  0.00  0.00    +0.000 A 
ATOM     19  C   UNL     1       4.303   2.722  16.944  0.00  0.00    +0.000 A 
ATOM     20  C   UNL     1       3.516   1.988  17.823  0.00  0.00    +0.000 A 
ATOM     21  C   UNL     1       2.660   2.630  18.727  0.00  0.00    +0.000 A 
ATOM     22  C   UNL     1       2.636   4.039  18.750  0.00  0.00    +0.000 A 
ATOM     23  N   UNL     1       1.949   4.940  19.557  0.00  0.00    +0.000 N 
ATOM     24  C   UNL     1       0.965   4.550  20.544  0.00  0.00    +0.000 C 
ENDBRANCH  13  14
ENDBRANCH   1  13
TORSDOF 3
ENDMDL
MODEL 7
REMARK VINA RESULT:      -6.0      3.112      8.181
REMARK  Name = 
REMARK  7 active torsions:
REMARK  status: ('A' for Active; 'I' for Inactive)
REMARK    1  A    between atoms: C_1  and  C_2
REMARK    2  A    between atoms: C_3  and  S_4
REMARK    3  A    between atoms: S_4  and  S_5
REMARK    4  A    between atoms: S_5  and  C_6
REMARK    5  A    between atoms: C_7  and  C_8
REMARK    6  A    between atoms: N_15  and  C_16
REMARK    7  A    between atoms: N_17  and  C_18
REMARK                            x       y       z     vdW  Elec       q    Type
REMARK                         _______ _______ _______ _____ _____    ______ ____
ROOT
ATOM      1  S   UNL     1      -0.281   8.036  20.853  0.00  0.00    +0.000 S 
ENDROOT
BRANCH   1   4
ATOM      2  C   UNL     1      -0.553  10.063  18.064  0.00  0.00    +0.000 C 
ATOM      3  C   UNL     1      -0.569  10.529  19.477  0.00  0.00    +0.000 A 
ATOM      4  C   UNL     1      -0.523   9.770  20.640  0.00  0.00    +0.000 A 
ATOM      5  N   UNL     1      -0.576  10.635  21.712  0.00  0.00    +0.000 N 
ATOM      6  C   UNL     1      -0.585  10.309  23.124  0.00  0.00    +0.000 C 
ATOM      7  C   UNL     1      -0.594  11.953  21.263  0.00  0.00    +0.000 A 
ATOM      8  C   UNL     1      -0.607  13.169  21.973  0.00  0.00    +0.000 A 
ATOM      9  C   UNL     1      -0.587  14.361  21.246  0.00  0.00    +0.000 A 
ATOM     10  C   UNL     1      -0.565  14.348  19.856  0.00  0.00    +0.000 A 
ATOM     11  C   UNL     1      -0.574  13.132  19.162  0.00  0.00    +0.000 A 
ATOM     12  C   UNL     1      -0.587  11.911  19.872  0.00  0.00    +0.000 A 
ENDBRANCH   1   4
BRANCH   1  13
ATOM     13  S   UNL     1       1.760   7.955  21.074  0.00  0.00    +0.000 S 
BRANCH  13  14
ATOM     14  C   UNL     1       2.267   6.853  19.793  0.00  0.00    +0.000 A 
ATOM     15  C   UNL     1       2.744   7.167  18.528  0.00  0.00    +0.000 A 
ATOM     16  C   UNL     1       2.731   8.488  17.844  0.00  0.00    +0.000 C 
ATOM     17  C   UNL     1       3.384   5.990  18.014  0.00  0.00    +0.000 A 
ATOM     18  C   UNL     1       4.147   5.726  16.853  0.00  0.00    +0.000 A 
ATOM     19  C   UNL     1       4.719   4.464  16.661  0.00  0.00    +0.000 A 
ATOM     20  C   UNL     1       4.514   3.453  17.593  0.00  0.00    +0.000 A 
ATOM     21  C   UNL     1       3.739   3.680  18.737  0.00  0.00    +0.000 A 
ATOM     22  C   UNL     1       3.195   4.964  18.943  0.00  0.00    +0.000 A 
ATOM     23  N   UNL     1       2.450   5.497  19.988  0.00  0.00    +0.000 N 
ATOM     24  C   UNL     1       1.968   4.723  21.112  0.00  0.00    +0.000 C 
ENDBRANCH  13  14
ENDBRANCH   1  13
TORSDOF 3
ENDMDL
MODEL 8
REMARK VINA RESULT:      -5.9      1.106      2.113
REMARK  Name = 
REMARK  7 active torsions:
REMARK  status: ('A' for Active; 'I' for Inactive)
REMARK    1  A    between atoms: C_1  and  C_2
REMARK    2  A    between atoms: C_3  and  S_4
REMARK    3  A    between atoms: S_4  and  S_5
REMARK    4  A    between atoms: S_5  and  C_6
REMARK    5  A    between atoms: C_7  and  C_8
REMARK    6  A    between atoms: N_15  and  C_16
REMARK    7  A    between atoms: N_17  and  C_18
REMARK                            x       y       z     vdW  Elec       q    Type
REMARK                         _______ _______ _______ _____ _____    ______ ____
ROOT
ATOM      1  S   UNL     1      -1.717  13.659  21.090  0.00  0.00    +0.000 S 
ENDROOT
BRANCH   1   4
ATOM      2  C   UNL     1      -0.958  10.816  22.908  0.00  0.00    +0.000 C 
ATOM      3  C   UNL     1      -0.607  11.051  21.481  0.00  0.00    +0.000 A 
ATOM      4  C   UNL     1      -0.929  12.137  20.677  0.00  0.00    +0.000 A 
ATOM      5  N   UNL     1      -0.401  11.907  19.424  0.00  0.00    +0.000 N 
ATOM      6  C   UNL     1      -0.501  12.743  18.245  0.00  0.00    +0.000 C 
ATOM      7  C   UNL     1       0.313  10.712  19.418  0.00  0.00    +0.000 A 
ATOM      8  C   UNL     1       1.051  10.084  18.396  0.00  0.00    +0.000 A 
ATOM      9  C   UNL     1       1.706   8.886  18.692  0.00  0.00    +0.000 A 
ATOM     10  C   UNL     1       1.623   8.322  19.960  0.00  0.00    +0.000 A 
ATOM     11  C   UNL     1       0.867   8.945  20.961  0.00  0.00    +0.000 A 
ATOM     12  C   UNL     1       0.201  10.162  20.692  0.00  0.00    +0.000 A 
ENDBRANCH   1   4
BRANCH   1  13
ATOM     13  S   UNL     1      -0.259  14.552  22.230  0.00  0.00    +0.000 S 
BRANCH  13  14
ATOM     14  C   UNL     1       0.846  15.225  21.031  0.00  0.00    +0.000 A 
ATOM     15  C   UNL     1       1.935  14.613  20.427  0.00  0.00    +0.000 A 
ATOM     16  C   UNL     1       2.589  13.328  20.797  0.00  0.00    +0.000 C 
ATOM     17  C   UNL     1       2.266  15.390  19.267  0.00  0.00    +0.000 A 
ATOM     18  C   UNL     1       3.183  15.210  18.204  0.00  0.00    +0.000 A 
ATOM     19  C   UNL     1       3.223  16.128  17.150  0.00  0.00    +0.000 A 
ATOM     20  C   UNL     1       2.387  17.238  17.155  0.00  0.00    +0.000 A 
ATOM     21  C   UNL     1       1.491  17.455  18.210  0.00  0.00    +0.000 A 
ATOM     22  C   UNL     1       1.430  16.507  19.251  0.00  0.00    +0.000 A 
ATOM     23  N   UNL     1       0.619  16.420  20.378  0.00  0.00    +0.000 N 
ATOM     24  C   UNL     1      -0.330  17.441  20.769  0.00  0.00    +0.000 C 
ENDBRANCH  13  14
ENDBRANCH   1  13
TORSDOF 3
ENDMDL
MODEL 9
REMARK VINA RESULT:      -5.9      5.361      8.430
REMARK  Name = 
REMARK  7 active torsions:
REMARK  status: ('A' for Active; 'I' for Inactive)
REMARK    1  A    between atoms: C_1  and  C_2
REMARK    2  A    between atoms: C_3  and  S_4
REMARK    3  A    between atoms: S_4  and  S_5
REMARK    4  A    between atoms: S_5  and  C_6
REMARK    5  A    between atoms: C_7  and  C_8
REMARK    6  A    between atoms: N_15  and  C_16
REMARK    7  A    between atoms: N_17  and  C_18
REMARK                            x       y       z     vdW  Elec       q    Type
REMARK                         _______ _______ _______ _____ _____    ______ ____
ROOT
ATOM      1  S   UNL     1       4.394   5.848  18.819  0.00  0.00    +0.000 S 
ENDROOT
BRANCH   1   4
ATOM      2  C   UNL     1       7.257   6.977  17.240  0.00  0.00    +0.000 C 
ATOM      3  C   UNL     1       6.359   5.901  16.739  0.00  0.00    +0.000 A 
ATOM      4  C   UNL     1       5.232   5.360  17.347  0.00  0.00    +0.000 A 
ATOM      5  N   UNL     1       4.733   4.380  16.515  0.00  0.00    +0.000 N 
ATOM      6  C   UNL     1       3.588   3.521  16.735  0.00  0.00    +0.000 C 
ATOM      7  C   UNL     1       5.486   4.316  15.345  0.00  0.00    +0.000 A 
ATOM      8  C   UNL     1       5.342   3.511  14.199  0.00  0.00    +0.000 A 
ATOM      9  C   UNL     1       6.239   3.693  13.144  0.00  0.00    +0.000 A 
ATOM     10  C   UNL     1       7.255   4.637  13.228  0.00  0.00    +0.000 A 
ATOM     11  C   UNL     1       7.402   5.416  14.383  0.00  0.00    +0.000 A 
ATOM     12  C   UNL     1       6.503   5.259  15.462  0.00  0.00    +0.000 A 
ENDBRANCH   1   4
BRANCH   1  13
ATOM     13  S   UNL     1       2.605   6.500  18.049  0.00  0.00    +0.000 S 
BRANCH  13  14
ATOM     14  C   UNL     1       2.049   7.677  19.240  0.00  0.00    +0.000 A 
ATOM     15  C   UNL     1       1.793   9.028  19.058  0.00  0.00    +0.000 A 
ATOM     16  C   UNL     1       2.138   9.879  17.886  0.00  0.00    +0.000 C 
ATOM     17  C   UNL     1       1.004   9.463  20.175  0.00  0.00    +0.000 A 
ATOM     18  C   UNL     1       0.346  10.675  20.489  0.00  0.00    +0.000 A 
ATOM     19  C   UNL     1      -0.429  10.772  21.649  0.00  0.00    +0.000 A 
ATOM     20  C   UNL     1      -0.532   9.691  22.515  0.00  0.00    +0.000 A 
ATOM     21  C   UNL     1       0.133   8.489  22.242  0.00  0.00    +0.000 A 
ATOM     22  C   UNL     1       0.884   8.385  21.054  0.00  0.00    +0.000 A 
ATOM     23  N   UNL     1       1.590   7.326  20.495  0.00  0.00    +0.000 N 
ATOM     24  C   UNL     1       1.780   6.049  21.148  0.00  0.00    +0.000 C 
ENDBRANCH  13  14
ENDBRANCH   1  13
TORSDOF 3
ENDMDL
