MODEL 1
REMARK VINA RESULT:      -9.1      0.000      0.000
REMARK  Name = 
REMARK  3 active torsions:
REMARK  status: ('A' for Active; 'I' for Inactive)
REMARK    1  A    between atoms: C_5  and  C_6
REMARK    2  A    between atoms: N_10  and  C_11
REMARK    3  A    between atoms: C_16  and  C_17
REMARK                            x       y       z     vdW  Elec       q    Type
REMARK                         _______ _______ _______ _____ _____    ______ ____
ROOT
ATOM      1  C   UNL     1       2.713   5.626  19.179  0.00  0.00    +0.000 A 
ATOM      2  C   UNL     1       2.619   6.461  18.051  0.00  0.00    +0.000 A 
ATOM      3  C   UNL     1       2.400   7.824  18.184  0.00  0.00    +0.000 A 
ATOM      4  C   UNL     1       1.816   8.250  19.371  0.00  0.00    +0.000 A 
ATOM      5  N   UNL     1       1.197   9.430  19.608  0.00  0.00    +0.000 NA
ATOM      6  C   UNL     1       0.642   9.288  20.797  0.00  0.00    +0.000 A 
ATOM      7  O   UNL     1       0.993   8.093  21.433  0.00  0.00    +0.000 OA
ATOM      8  C   UNL     1       1.746   7.405  20.469  0.00  0.00    +0.000 A 
ATOM      9  C   UNL     1       2.325   6.106  20.464  0.00  0.00    +0.000 A 
ENDROOT
BRANCH   6  10
ATOM     10  C   UNL     1      -0.321  10.261  21.357  0.00  0.00    +0.000 A 
ATOM     11  C   UNL     1      -0.878  11.200  20.442  0.00  0.00    +0.000 A 
ATOM     12  C   UNL     1      -1.751  12.216  20.841  0.00  0.00    +0.000 A 
ATOM     13  C   UNL     1      -2.099  12.325  22.180  0.00  0.00    +0.000 A 
ATOM     14  C   UNL     1      -1.588  11.406  23.103  0.00  0.00    +0.000 A 
ATOM     15  C   UNL     1      -0.708  10.379  22.692  0.00  0.00    +0.000 A 
ENDBRANCH   6  10
BRANCH   1  20
ATOM     16  C   UNL     1       3.764   3.594  17.923  0.00  0.00    +0.000 A 
ATOM     17  N   UNL     1       3.321   2.351  17.820  0.00  0.00    +0.000 NA
ATOM     18  N   UNL     1       2.239   2.158  18.614  0.00  0.00    +0.000 NA
ATOM     19  C   UNL     1       2.035   3.285  19.240  0.00  0.00    +0.000 A 
ATOM     20  N   UNL     1       2.969   4.248  18.889  0.00  0.00    +0.000 N 
BRANCH  16  25
ATOM     21  F   UNL     1       7.855   5.145  14.352  0.00  0.00    +0.000 F 
ATOM     22  C   UNL     1       6.888   4.785  15.213  0.00  0.00    +0.000 A 
ATOM     23  C   UNL     1       5.652   4.415  14.726  0.00  0.00    +0.000 A 
ATOM     24  C   UNL     1       4.661   4.054  15.652  0.00  0.00    +0.000 A 
ATOM     25  C   UNL     1       4.892   4.027  17.047  0.00  0.00    +0.000 A 
ATOM     26  C   UNL     1       6.148   4.422  17.509  0.00  0.00    +0.000 A 
ATOM     27  C   UNL     1       7.148   4.802  16.584  0.00  0.00    +0.000 A 
ENDBRANCH  16  25
ENDBRANCH   1  20
TORSDOF 3
ENDMDL
MODEL 2
REMARK VINA RESULT:      -8.9      3.774      8.888
REMARK  Name = 
REMARK  3 active torsions:
REMARK  status: ('A' for Active; 'I' for Inactive)
REMARK    1  A    between atoms: C_5  and  C_6
REMARK    2  A    between atoms: N_10  and  C_11
REMARK    3  A    between atoms: C_16  and  C_17
REMARK                            x       y       z     vdW  Elec       q    Type
REMARK                         _______ _______ _______ _____ _____    ______ ____
ROOT
ATOM      1  C   UNL     1       0.052  10.153  20.247  0.00  0.00    +0.000 A 
ATOM      2  C   UNL     1      -0.026   9.083  21.157  0.00  0.00    +0.000 A 
ATOM      3  C   UNL     1       0.971   8.120  21.218  0.00  0.00    +0.000 A 
ATOM      4  C   UNL     1       1.762   7.969  20.085  0.00  0.00    +0.000 A 
ATOM      5  N   UNL     1       2.542   6.911  19.760  0.00  0.00    +0.000 NA
ATOM      6  C   UNL     1       2.929   7.145  18.521  0.00  0.00    +0.000 A 
ATOM      7  O   UNL     1       2.549   8.405  18.050  0.00  0.00    +0.000 OA
ATOM      8  C   UNL     1       1.755   8.928  19.083  0.00  0.00    +0.000 A 
ATOM      9  C   UNL     1       1.009  10.133  19.192  0.00  0.00    +0.000 A 
ENDROOT
BRANCH   6  10
ATOM     10  C   UNL     1       3.623   6.136  17.690  0.00  0.00    +0.000 A 
ATOM     11  C   UNL     1       4.587   6.630  16.766  0.00  0.00    +0.000 A 
ATOM     12  C   UNL     1       5.273   5.801  15.874  0.00  0.00    +0.000 A 
ATOM     13  C   UNL     1       5.015   4.437  15.880  0.00  0.00    +0.000 A 
ATOM     14  C   UNL     1       4.091   3.914  16.791  0.00  0.00    +0.000 A 
ATOM     15  C   UNL     1       3.403   4.758  17.692  0.00  0.00    +0.000 A 
ENDBRANCH   6  10
BRANCH   1  20
ATOM     16  C   UNL     1      -1.977  11.546  19.376  0.00  0.00    +0.000 A 
ATOM     17  N   UNL     1      -2.471  12.686  19.834  0.00  0.00    +0.000 NA
ATOM     18  N   UNL     1      -1.867  13.040  20.995  0.00  0.00    +0.000 NA
ATOM     19  C   UNL     1      -1.016  12.090  21.273  0.00  0.00    +0.000 A 
ATOM     20  N   UNL     1      -1.034  11.084  20.319  0.00  0.00    +0.000 N 
BRANCH  16  25
ATOM     21  F   UNL     1      -4.034   9.799  14.415  0.00  0.00    +0.000 F 
ATOM     22  C   UNL     1      -3.530  10.211  15.591  0.00  0.00    +0.000 A 
ATOM     23  C   UNL     1      -4.217  11.152  16.328  0.00  0.00    +0.000 A 
ATOM     24  C   UNL     1      -3.659  11.569  17.547  0.00  0.00    +0.000 A 
ATOM     25  C   UNL     1      -2.448  11.043  18.053  0.00  0.00    +0.000 A 
ATOM     26  C   UNL     1      -1.768  10.104  17.274  0.00  0.00    +0.000 A 
ATOM     27  C   UNL     1      -2.316   9.690  16.038  0.00  0.00    +0.000 A 
ENDBRANCH  16  25
ENDBRANCH   1  20
TORSDOF 3
ENDMDL
MODEL 3
REMARK VINA RESULT:      -8.9      1.113      1.564
REMARK  Name = 
REMARK  3 active torsions:
REMARK  status: ('A' for Active; 'I' for Inactive)
REMARK    1  A    between atoms: C_5  and  C_6
REMARK    2  A    between atoms: N_10  and  C_11
REMARK    3  A    between atoms: C_16  and  C_17
REMARK                            x       y       z     vdW  Elec       q    Type
REMARK                         _______ _______ _______ _____ _____    ______ ____
ROOT
ATOM      1  C   UNL     1       2.857   6.285  19.485  0.00  0.00    +0.000 A 
ATOM      2  C   UNL     1       2.950   6.795  18.177  0.00  0.00    +0.000 A 
ATOM      3  C   UNL     1       2.608   8.109  17.895  0.00  0.00    +0.000 A 
ATOM      4  C   UNL     1       1.751   8.738  18.790  0.00  0.00    +0.000 A 
ATOM      5  N   UNL     1       1.011   9.852  18.580  0.00  0.00    +0.000 NA
ATOM      6  C   UNL     1       0.224   9.939  19.635  0.00  0.00    +0.000 A 
ATOM      7  O   UNL     1       0.514   8.994  20.623  0.00  0.00    +0.000 OA
ATOM      8  C   UNL     1       1.507   8.189  20.041  0.00  0.00    +0.000 A 
ATOM      9  C   UNL     1       2.166   7.014  20.495  0.00  0.00    +0.000 A 
ENDROOT
BRANCH   6  10
ATOM     10  C   UNL     1      -0.906  10.891  19.720  0.00  0.00    +0.000 A 
ATOM     11  C   UNL     1      -1.041  11.605  20.946  0.00  0.00    +0.000 A 
ATOM     12  C   UNL     1      -2.096  12.489  21.191  0.00  0.00    +0.000 A 
ATOM     13  C   UNL     1      -3.057  12.689  20.209  0.00  0.00    +0.000 A 
ATOM     14  C   UNL     1      -2.942  12.022  18.986  0.00  0.00    +0.000 A 
ATOM     15  C   UNL     1      -1.871  11.131  18.743  0.00  0.00    +0.000 A 
ENDBRANCH   6  10
BRANCH   1  20
ATOM     16  C   UNL     1       4.073   4.065  18.845  0.00  0.00    +0.000 A 
ATOM     17  N   UNL     1       3.790   2.821  19.199  0.00  0.00    +0.000 NA
ATOM     18  N   UNL     1       2.802   2.798  20.127  0.00  0.00    +0.000 NA
ATOM     19  C   UNL     1       2.498   4.043  20.374  0.00  0.00    +0.000 A 
ATOM     20  N   UNL     1       3.270   4.921  19.629  0.00  0.00    +0.000 N 
BRANCH  16  25
ATOM     21  F   UNL     1       7.625   4.807  14.517  0.00  0.00    +0.000 F 
ATOM     22  C   UNL     1       6.788   4.640  15.556  0.00  0.00    +0.000 A 
ATOM     23  C   UNL     1       5.476   4.290  15.318  0.00  0.00    +0.000 A 
ATOM     24  C   UNL     1       4.626   4.133  16.424  0.00  0.00    +0.000 A 
ATOM     25  C   UNL     1       5.069   4.290  17.758  0.00  0.00    +0.000 A 
ATOM     26  C   UNL     1       6.399   4.662  17.964  0.00  0.00    +0.000 A 
ATOM     27  C   UNL     1       7.258   4.836  16.855  0.00  0.00    +0.000 A 
ENDBRANCH  16  25
ENDBRANCH   1  20
TORSDOF 3
ENDMDL
MODEL 4
REMARK VINA RESULT:      -8.8      0.416      1.370
REMARK  Name = 
REMARK  3 active torsions:
REMARK  status: ('A' for Active; 'I' for Inactive)
REMARK    1  A    between atoms: C_5  and  C_6
REMARK    2  A    between atoms: N_10  and  C_11
REMARK    3  A    between atoms: C_16  and  C_17
REMARK                            x       y       z     vdW  Elec       q    Type
REMARK                         _______ _______ _______ _____ _____    ______ ____
ROOT
ATOM      1  C   UNL     1       2.630   5.871  19.380  0.00  0.00    +0.000 A 
ATOM      2  C   UNL     1       2.599   6.612  18.184  0.00  0.00    +0.000 A 
ATOM      3  C   UNL     1       2.383   7.982  18.196  0.00  0.00    +0.000 A 
ATOM      4  C   UNL     1       1.743   8.504  19.314  0.00  0.00    +0.000 A 
ATOM      5  N   UNL     1       1.121   9.701  19.425  0.00  0.00    +0.000 NA
ATOM      6  C   UNL     1       0.506   9.656  20.591  0.00  0.00    +0.000 A 
ATOM      7  O   UNL     1       0.816   8.516  21.338  0.00  0.00    +0.000 OA
ATOM      8  C   UNL     1       1.612   7.750  20.471  0.00  0.00    +0.000 A 
ATOM      9  C   UNL     1       2.182   6.453  20.600  0.00  0.00    +0.000 A 
ENDROOT
BRANCH   6  10
ATOM     10  C   UNL     1      -0.477  10.675  21.022  0.00  0.00    +0.000 A 
ATOM     11  C   UNL     1      -0.680  10.805  22.426  0.00  0.00    +0.000 A 
ATOM     12  C   UNL     1      -1.621  11.680  22.975  0.00  0.00    +0.000 A 
ATOM     13  C   UNL     1      -2.397  12.461  22.129  0.00  0.00    +0.000 A 
ATOM     14  C   UNL     1      -2.208  12.375  20.745  0.00  0.00    +0.000 A 
ATOM     15  C   UNL     1      -1.251  11.490  20.197  0.00  0.00    +0.000 A 
ENDBRANCH   6  10
BRANCH   1  20
ATOM     16  C   UNL     1       3.644   3.733  18.277  0.00  0.00    +0.000 A 
ATOM     17  N   UNL     1       3.215   2.482  18.322  0.00  0.00    +0.000 NA
ATOM     18  N   UNL     1       2.180   2.359  19.188  0.00  0.00    +0.000 NA
ATOM     19  C   UNL     1       1.992   3.541  19.710  0.00  0.00    +0.000 A 
ATOM     20  N   UNL     1       2.892   4.473  19.214  0.00  0.00    +0.000 N 
BRANCH  16  25
ATOM     21  F   UNL     1       7.888   5.164  14.837  0.00  0.00    +0.000 F 
ATOM     22  C   UNL     1       6.872   4.815  15.644  0.00  0.00    +0.000 A 
ATOM     23  C   UNL     1       7.064   4.810  17.009  0.00  0.00    +0.000 A 
ATOM     24  C   UNL     1       5.986   4.430  17.824  0.00  0.00    +0.000 A 
ATOM     25  C   UNL     1       4.717   4.087  17.302  0.00  0.00    +0.000 A 
ATOM     26  C   UNL     1       4.560   4.087  15.915  0.00  0.00    +0.000 A 
ATOM     27  C   UNL     1       5.646   4.453  15.086  0.00  0.00    +0.000 A 
ENDBRANCH  16  25
ENDBRANCH   1  20
TORSDOF 3
ENDMDL
MODEL 5
REMARK VINA RESULT:      -8.8      1.015      1.551
REMARK  Name = 
REMARK  3 active torsions:
REMARK  status: ('A' for Active; 'I' for Inactive)
REMARK    1  A    between atoms: C_5  and  C_6
REMARK    2  A    between atoms: N_10  and  C_11
REMARK    3  A    between atoms: C_16  and  C_17
REMARK                            x       y       z     vdW  Elec       q    Type
REMARK                         _______ _______ _______ _____ _____    ______ ____
ROOT
ATOM      1  C   UNL     1       2.977   6.136  19.408  0.00  0.00    +0.000 A 
ATOM      2  C   UNL     1       3.034   6.693  18.117  0.00  0.00    +0.000 A 
ATOM      3  C   UNL     1       2.687   8.017  17.892  0.00  0.00    +0.000 A 
ATOM      4  C   UNL     1       1.855   8.613  18.832  0.00  0.00    +0.000 A 
ATOM      5  N   UNL     1       1.111   9.734  18.683  0.00  0.00    +0.000 NA
ATOM      6  C   UNL     1       0.353   9.783  19.762  0.00  0.00    +0.000 A 
ATOM      7  O   UNL     1       0.669   8.803  20.706  0.00  0.00    +0.000 OA
ATOM      8  C   UNL     1       1.645   8.020  20.069  0.00  0.00    +0.000 A 
ATOM      9  C   UNL     1       2.315   6.829  20.462  0.00  0.00    +0.000 A 
ENDROOT
BRANCH   6  10
ATOM     10  C   UNL     1      -0.773  10.731  19.912  0.00  0.00    +0.000 A 
ATOM     11  C   UNL     1      -1.651  10.854  18.796  0.00  0.00    +0.000 A 
ATOM     12  C   UNL     1      -2.718  11.756  18.772  0.00  0.00    +0.000 A 
ATOM     13  C   UNL     1      -2.945  12.569  19.874  0.00  0.00    +0.000 A 
ATOM     14  C   UNL     1      -2.117  12.459  20.995  0.00  0.00    +0.000 A 
ATOM     15  C   UNL     1      -1.040  11.542  21.014  0.00  0.00    +0.000 A 
ENDBRANCH   6  10
BRANCH   1  20
ATOM     16  C   UNL     1       4.122   3.924  18.628  0.00  0.00    +0.000 A 
ATOM     17  N   UNL     1       3.862   2.675  18.981  0.00  0.00    +0.000 NA
ATOM     18  N   UNL     1       2.955   2.638  19.988  0.00  0.00    +0.000 NA
ATOM     19  C   UNL     1       2.680   3.880  20.282  0.00  0.00    +0.000 A 
ATOM     20  N   UNL     1       3.393   4.769  19.491  0.00  0.00    +0.000 N 
BRANCH  16  25
ATOM     21  F   UNL     1       7.753   4.966  14.430  0.00  0.00    +0.000 F 
ATOM     22  C   UNL     1       6.881   4.708  15.419  0.00  0.00    +0.000 A 
ATOM     23  C   UNL     1       7.271   4.892  16.729  0.00  0.00    +0.000 A 
ATOM     24  C   UNL     1       6.341   4.604  17.740  0.00  0.00    +0.000 A 
ATOM     25  C   UNL     1       5.025   4.165  17.465  0.00  0.00    +0.000 A 
ATOM     26  C   UNL     1       4.667   3.973  16.129  0.00  0.00    +0.000 A 
ATOM     27  C   UNL     1       5.603   4.247  15.106  0.00  0.00    +0.000 A 
ENDBRANCH  16  25
ENDBRANCH   1  20
TORSDOF 3
ENDMDL
MODEL 6
REMARK VINA RESULT:      -8.8      3.786      9.004
REMARK  Name = 
REMARK  3 active torsions:
REMARK  status: ('A' for Active; 'I' for Inactive)
REMARK    1  A    between atoms: C_5  and  C_6
REMARK    2  A    between atoms: N_10  and  C_11
REMARK    3  A    between atoms: C_16  and  C_17
REMARK                            x       y       z     vdW  Elec       q    Type
REMARK                         _______ _______ _______ _____ _____    ______ ____
ROOT
ATOM      1  C   UNL     1      -0.119  10.383  20.398  0.00  0.00    +0.000 A 
ATOM      2  C   UNL     1      -0.170   9.369  21.372  0.00  0.00    +0.000 A 
ATOM      3  C   UNL     1       0.815   8.395  21.444  0.00  0.00    +0.000 A 
ATOM      4  C   UNL     1       1.553   8.166  20.289  0.00  0.00    +0.000 A 
ATOM      5  N   UNL     1       2.304   7.079  19.992  0.00  0.00    +0.000 NA
ATOM      6  C   UNL     1       2.638   7.235  18.725  0.00  0.00    +0.000 A 
ATOM      7  O   UNL     1       2.254   8.471  18.199  0.00  0.00    +0.000 OA
ATOM      8  C   UNL     1       1.514   9.065  19.234  0.00  0.00    +0.000 A 
ATOM      9  C   UNL     1       0.789  10.287  19.305  0.00  0.00    +0.000 A 
ENDROOT
BRANCH   6  10
ATOM     10  C   UNL     1       3.280   6.169  17.925  0.00  0.00    +0.000 A 
ATOM     11  C   UNL     1       2.643   4.895  17.940  0.00  0.00    +0.000 A 
ATOM     12  C   UNL     1       3.169   3.780  17.282  0.00  0.00    +0.000 A 
ATOM     13  C   UNL     1       4.362   3.905  16.582  0.00  0.00    +0.000 A 
ATOM     14  C   UNL     1       5.003   5.147  16.528  0.00  0.00    +0.000 A 
ATOM     15  C   UNL     1       4.462   6.271  17.193  0.00  0.00    +0.000 A 
ENDBRANCH   6  10
BRANCH   1  20
ATOM     16  C   UNL     1      -2.125  11.803  19.518  0.00  0.00    +0.000 A 
ATOM     17  N   UNL     1      -2.598  12.955  19.966  0.00  0.00    +0.000 NA
ATOM     18  N   UNL     1      -1.985  13.310  21.122  0.00  0.00    +0.000 NA
ATOM     19  C   UNL     1      -1.151  12.348  21.408  0.00  0.00    +0.000 A 
ATOM     20  N   UNL     1      -1.188  11.333  20.463  0.00  0.00    +0.000 N 
BRANCH  16  25
ATOM     21  F   UNL     1      -4.236  10.012  14.595  0.00  0.00    +0.000 F 
ATOM     22  C   UNL     1      -3.719  10.436  15.761  0.00  0.00    +0.000 A 
ATOM     23  C   UNL     1      -4.457  11.284  16.559  0.00  0.00    +0.000 A 
ATOM     24  C   UNL     1      -3.885  11.717  17.766  0.00  0.00    +0.000 A 
ATOM     25  C   UNL     1      -2.607  11.296  18.200  0.00  0.00    +0.000 A 
ATOM     26  C   UNL     1      -1.879  10.450  17.361  0.00  0.00    +0.000 A 
ATOM     27  C   UNL     1      -2.442  10.021  16.137  0.00  0.00    +0.000 A 
ENDBRANCH  16  25
ENDBRANCH   1  20
TORSDOF 3
ENDMDL
MODEL 7
REMARK VINA RESULT:      -8.8      5.403      7.752
REMARK  Name = 
REMARK  3 active torsions:
REMARK  status: ('A' for Active; 'I' for Inactive)
REMARK    1  A    between atoms: C_5  and  C_6
REMARK    2  A    between atoms: N_10  and  C_11
REMARK    3  A    between atoms: C_16  and  C_17
REMARK                            x       y       z     vdW  Elec       q    Type
REMARK                         _______ _______ _______ _____ _____    ______ ____
ROOT
ATOM      1  C   UNL     1       6.632   6.224  17.012  0.00  0.00    +0.000 A 
ATOM      2  C   UNL     1       7.515   5.654  17.947  0.00  0.00    +0.000 A 
ATOM      3  C   UNL     1       8.119   6.429  18.927  0.00  0.00    +0.000 A 
ATOM      4  C   UNL     1       8.212   7.792  18.675  0.00  0.00    +0.000 A 
ATOM      5  N   UNL     1       9.031   8.688  19.276  0.00  0.00    +0.000 NA
ATOM      6  C   UNL     1       8.898   9.794  18.570  0.00  0.00    +0.000 A 
ATOM      7  O   UNL     1       7.899   9.713  17.596  0.00  0.00    +0.000 OA
ATOM      8  C   UNL     1       7.473   8.377  17.657  0.00  0.00    +0.000 A 
ATOM      9  C   UNL     1       6.540   7.639  16.878  0.00  0.00    +0.000 A 
ENDROOT
BRANCH   6  10
ATOM     10  C   UNL     1       9.778  10.971  18.744  0.00  0.00    +0.000 A 
ATOM     11  C   UNL     1      10.117  11.316  20.084  0.00  0.00    +0.000 A 
ATOM     12  C   UNL     1      10.888  12.438  20.402  0.00  0.00    +0.000 A 
ATOM     13  C   UNL     1      11.350  13.256  19.381  0.00  0.00    +0.000 A 
ATOM     14  C   UNL     1      11.056  12.933  18.052  0.00  0.00    +0.000 A 
ATOM     15  C   UNL     1      10.278  11.796  17.737  0.00  0.00    +0.000 A 
ENDBRANCH   6  10
BRANCH   1  20
ATOM     16  C   UNL     1       5.006   4.366  16.163  0.00  0.00    +0.000 A 
ATOM     17  N   UNL     1       5.172   3.489  15.185  0.00  0.00    +0.000 NA
ATOM     18  N   UNL     1       6.311   3.747  14.496  0.00  0.00    +0.000 NA
ATOM     19  C   UNL     1       6.834   4.815  15.032  0.00  0.00    +0.000 A 
ATOM     20  N   UNL     1       6.064   5.298  16.080  0.00  0.00    +0.000 N 
BRANCH  16  25
ATOM     21  F   UNL     1       0.653   3.377  19.622  0.00  0.00    +0.000 F 
ATOM     22  C   UNL     1       1.692   3.626  18.806  0.00  0.00    +0.000 A 
ATOM     23  C   UNL     1       2.335   2.574  18.190  0.00  0.00    +0.000 A 
ATOM     24  C   UNL     1       3.423   2.866  17.352  0.00  0.00    +0.000 A 
ATOM     25  C   UNL     1       3.858   4.187  17.098  0.00  0.00    +0.000 A 
ATOM     26  C   UNL     1       3.196   5.229  17.751  0.00  0.00    +0.000 A 
ATOM     27  C   UNL     1       2.109   4.942  18.608  0.00  0.00    +0.000 A 
ENDBRANCH  16  25
ENDBRANCH   1  20
TORSDOF 3
ENDMDL
MODEL 8
REMARK VINA RESULT:      -8.7      5.798      7.661
REMARK  Name = 
REMARK  3 active torsions:
REMARK  status: ('A' for Active; 'I' for Inactive)
REMARK    1  A    between atoms: C_5  and  C_6
REMARK    2  A    between atoms: N_10  and  C_11
REMARK    3  A    between atoms: C_16  and  C_17
REMARK                            x       y       z     vdW  Elec       q    Type
REMARK                         _______ _______ _______ _____ _____    ______ ____
ROOT
ATOM      1  C   UNL     1       6.639   6.166  17.118  0.00  0.00    +0.000 A 
ATOM      2  C   UNL     1       7.588   5.675  18.033  0.00  0.00    +0.000 A 
ATOM      3  C   UNL     1       8.198   6.515  18.953  0.00  0.00    +0.000 A 
ATOM      4  C   UNL     1       8.217   7.870  18.644  0.00  0.00    +0.000 A 
ATOM      5  N   UNL     1       9.019   8.825  19.171  0.00  0.00    +0.000 NA
ATOM      6  C   UNL     1       8.804   9.895  18.429  0.00  0.00    +0.000 A 
ATOM      7  O   UNL     1       7.768   9.729  17.505  0.00  0.00    +0.000 OA
ATOM      8  C   UNL     1       7.408   8.379  17.638  0.00  0.00    +0.000 A 
ATOM      9  C   UNL     1       6.476   7.569  16.932  0.00  0.00    +0.000 A 
ENDROOT
BRANCH   6  10
ATOM     10  C   UNL     1       9.636  11.115  18.515  0.00  0.00    +0.000 A 
ATOM     11  C   UNL     1       9.185  12.243  17.771  0.00  0.00    +0.000 A 
ATOM     12  C   UNL     1       9.902  13.441  17.709  0.00  0.00    +0.000 A 
ATOM     13  C   UNL     1      11.103  13.551  18.396  0.00  0.00    +0.000 A 
ATOM     14  C   UNL     1      11.564  12.470  19.155  0.00  0.00    +0.000 A 
ATOM     15  C   UNL     1      10.832  11.262  19.217  0.00  0.00    +0.000 A 
ENDBRANCH   6  10
BRANCH   1  20
ATOM     16  C   UNL     1       5.180   4.105  16.457  0.00  0.00    +0.000 A 
ATOM     17  N   UNL     1       5.319   3.270  15.439  0.00  0.00    +0.000 NA
ATOM     18  N   UNL     1       6.297   3.692  14.600  0.00  0.00    +0.000 NA
ATOM     19  C   UNL     1       6.740   4.819  15.088  0.00  0.00    +0.000 A 
ATOM     20  N   UNL     1       6.074   5.177  16.250  0.00  0.00    +0.000 N 
BRANCH  16  25
ATOM     21  F   UNL     1       1.299   2.823  20.354  0.00  0.00    +0.000 F 
ATOM     22  C   UNL     1       2.233   3.122  19.436  0.00  0.00    +0.000 A 
ATOM     23  C   UNL     1       1.862   3.270  18.116  0.00  0.00    +0.000 A 
ATOM     24  C   UNL     1       2.863   3.571  17.180  0.00  0.00    +0.000 A 
ATOM     25  C   UNL     1       4.218   3.756  17.542  0.00  0.00    +0.000 A 
ATOM     26  C   UNL     1       4.564   3.582  18.884  0.00  0.00    +0.000 A 
ATOM     27  C   UNL     1       3.564   3.264  19.831  0.00  0.00    +0.000 A 
ENDBRANCH  16  25
ENDBRANCH   1  20
TORSDOF 3
ENDMDL
MODEL 9
REMARK VINA RESULT:      -8.6      2.821      3.544
REMARK  Name = 
REMARK  3 active torsions:
REMARK  status: ('A' for Active; 'I' for Inactive)
REMARK    1  A    between atoms: C_5  and  C_6
REMARK    2  A    between atoms: N_10  and  C_11
REMARK    3  A    between atoms: C_16  and  C_17
REMARK                            x       y       z     vdW  Elec       q    Type
REMARK                         _______ _______ _______ _____ _____    ______ ____
ROOT
ATOM      1  C   UNL     1       4.976   6.075  18.006  0.00  0.00    +0.000 A 
ATOM      2  C   UNL     1       4.394   5.745  19.243  0.00  0.00    +0.000 A 
ATOM      3  C   UNL     1       3.094   6.121  19.547  0.00  0.00    +0.000 A 
ATOM      4  C   UNL     1       2.574   7.197  18.838  0.00  0.00    +0.000 A 
ATOM      5  N   UNL     1       1.505   7.962  19.164  0.00  0.00    +0.000 NA
ATOM      6  C   UNL     1       1.527   8.961  18.303  0.00  0.00    +0.000 A 
ATOM      7  O   UNL     1       2.499   8.814  17.310  0.00  0.00    +0.000 OA
ATOM      8  C   UNL     1       3.202   7.660  17.690  0.00  0.00    +0.000 A 
ATOM      9  C   UNL     1       4.350   7.021  17.144  0.00  0.00    +0.000 A 
ENDROOT
BRANCH   6  10
ATOM     10  C   UNL     1       0.663  10.155  18.432  0.00  0.00    +0.000 A 
ATOM     11  C   UNL     1      -0.684  10.013  17.989  0.00  0.00    +0.000 A 
ATOM     12  C   UNL     1      -1.595  11.072  17.992  0.00  0.00    +0.000 A 
ATOM     13  C   UNL     1      -1.185  12.319  18.445  0.00  0.00    +0.000 A 
ATOM     14  C   UNL     1       0.123  12.488  18.909  0.00  0.00    +0.000 A 
ATOM     15  C   UNL     1       1.039  11.411  18.906  0.00  0.00    +0.000 A 
ENDBRANCH   6  10
BRANCH   1  20
ATOM     16  C   UNL     1       6.942   4.848  16.804  0.00  0.00    +0.000 A 
ATOM     17  N   UNL     1       8.044   4.325  17.318  0.00  0.00    +0.000 NA
ATOM     18  N   UNL     1       8.152   4.629  18.635  0.00  0.00    +0.000 NA
ATOM     19  C   UNL     1       7.123   5.377  18.927  0.00  0.00    +0.000 A 
ATOM     20  N   UNL     1       6.312   5.595  17.823  0.00  0.00    +0.000 N 
BRANCH  16  25
ATOM     21  F   UNL     1       5.379   3.511  11.544  0.00  0.00    +0.000 F 
ATOM     22  C   UNL     1       5.760   3.840  12.790  0.00  0.00    +0.000 A 
ATOM     23  C   UNL     1       4.927   3.552  13.851  0.00  0.00    +0.000 A 
ATOM     24  C   UNL     1       5.350   3.919  15.138  0.00  0.00    +0.000 A 
ATOM     25  C   UNL     1       6.597   4.537  15.386  0.00  0.00    +0.000 A 
ATOM     26  C   UNL     1       7.410   4.830  14.289  0.00  0.00    +0.000 A 
ATOM     27  C   UNL     1       6.985   4.478  12.988  0.00  0.00    +0.000 A 
ENDBRANCH  16  25
ENDBRANCH   1  20
TORSDOF 3
ENDMDL
