MODEL 1
REMARK VINA RESULT:      -6.9      0.000      0.000
REMARK  Name = 
REMARK  4 active torsions:
REMARK  status: ('A' for Active; 'I' for Inactive)
REMARK    1  A    between atoms: C_1  and  N_2
REMARK    2  A    between atoms: N_2  and  C_3
REMARK    3  A    between atoms: N_2  and  C_14
REMARK    4  A    between atoms: C_3  and  C_4
REMARK                            x       y       z     vdW  Elec       q    Type
REMARK                         _______ _______ _______ _____ _____    ______ ____
ROOT
ATOM      1  C   UNL     1       4.849   4.160  17.462  0.00  0.00    +0.000 A 
ATOM      2  C   UNL     1       4.658   5.024  16.448  0.00  0.00    +0.000 A 
ATOM      3  C   UNL     1       5.500   6.237  16.340  0.00  0.00    +0.000 A 
ATOM      4  O   UNL     1       5.335   7.019  15.409  0.00  0.00    +0.000 OA
ATOM      5  N   UNL     1       6.450   6.350  17.327  0.00  0.00    +0.000 N 
ATOM      6  C   UNL     1       7.396   7.349  17.395  0.00  0.00    +0.000 A 
ATOM      7  C   UNL     1       8.217   7.242  18.446  0.00  0.00    +0.000 A 
ATOM      8  S   UNL     1       7.819   5.859  19.431  0.00  0.00    +0.000 S 
ATOM      9  C   UNL     1       6.522   5.412  18.333  0.00  0.00    +0.000 A 
ATOM     10  N   UNL     1       5.782   4.364  18.458  0.00  0.00    +0.000 NA
ENDROOT
BRANCH   1  11
ATOM     11  C   UNL     1       4.129   2.808  17.458  0.00  0.00    +0.000 C 
BRANCH  11  13
ATOM     12  C   UNL     1       3.756   0.930  18.924  0.00  0.00    +0.000 C 
ATOM     13  N   UNL     1       3.433   2.338  18.665  0.00  0.00    +0.000 NA
BRANCH  13  14
ATOM     14  C   UNL     1       1.977   2.607  18.754  0.00  0.00    +0.000 C 
ATOM     15  C   UNL     1       1.502   2.478  20.226  0.00  0.00    +0.000 C 
ATOM     16  C   UNL     1       2.072   3.596  21.101  0.00  0.00    +0.000 C 
ATOM     17  C   UNL     1       1.518   4.937  20.640  0.00  0.00    +0.000 C 
ATOM     18  C   UNL     1       1.814   5.186  19.163  0.00  0.00    +0.000 C 
ATOM     19  C   UNL     1       1.476   3.994  18.259  0.00  0.00    +0.000 C 
ENDBRANCH  13  14
ENDBRANCH  11  13
ENDBRANCH   1  11
TORSDOF 3
ENDMDL
MODEL 2
REMARK VINA RESULT:      -6.7      3.688      4.671
REMARK  Name = 
REMARK  4 active torsions:
REMARK  status: ('A' for Active; 'I' for Inactive)
REMARK    1  A    between atoms: C_1  and  N_2
REMARK    2  A    between atoms: N_2  and  C_3
REMARK    3  A    between atoms: N_2  and  C_14
REMARK    4  A    between atoms: C_3  and  C_4
REMARK                            x       y       z     vdW  Elec       q    Type
REMARK                         _______ _______ _______ _____ _____    ______ ____
ROOT
ATOM      1  C   UNL     1       2.777   6.985  18.485  0.00  0.00    +0.000 A 
ATOM      2  C   UNL     1       2.662   8.036  17.651  0.00  0.00    +0.000 A 
ATOM      3  C   UNL     1       1.959   9.261  18.094  0.00  0.00    +0.000 A 
ATOM      4  O   UNL     1       1.865  10.223  17.340  0.00  0.00    +0.000 OA
ATOM      5  N   UNL     1       1.489   9.201  19.385  0.00  0.00    +0.000 N 
ATOM      6  C   UNL     1       0.871  10.241  20.043  0.00  0.00    +0.000 A 
ATOM      7  C   UNL     1       0.507   9.944  21.296  0.00  0.00    +0.000 A 
ATOM      8  S   UNL     1       0.918   8.301  21.709  0.00  0.00    +0.000 S 
ATOM      9  C   UNL     1       1.641   8.052  20.128  0.00  0.00    +0.000 A 
ATOM     10  N   UNL     1       2.227   6.967  19.751  0.00  0.00    +0.000 NA
ENDROOT
BRANCH   1  11
ATOM     11  C   UNL     1       3.680   5.808  18.108  0.00  0.00    +0.000 C 
BRANCH  11  13
ATOM     12  C   UNL     1       5.548   4.936  19.361  0.00  0.00    +0.000 C 
ATOM     13  N   UNL     1       4.101   4.841  19.133  0.00  0.00    +0.000 NA
BRANCH  13  14
ATOM     14  C   UNL     1       3.647   3.439  18.966  0.00  0.00    +0.000 C 
ATOM     15  C   UNL     1       3.564   2.740  20.350  0.00  0.00    +0.000 C 
ATOM     16  C   UNL     1       2.439   3.323  21.208  0.00  0.00    +0.000 C 
ATOM     17  C   UNL     1       1.096   3.032  20.554  0.00  0.00    +0.000 C 
ATOM     18  C   UNL     1       1.039   3.572  19.127  0.00  0.00    +0.000 C 
ATOM     19  C   UNL     1       2.268   3.211  18.284  0.00  0.00    +0.000 C 
ENDBRANCH  13  14
ENDBRANCH  11  13
ENDBRANCH   1  11
TORSDOF 3
ENDMDL
MODEL 3
REMARK VINA RESULT:      -6.5      3.694      5.490
REMARK  Name = 
REMARK  4 active torsions:
REMARK  status: ('A' for Active; 'I' for Inactive)
REMARK    1  A    between atoms: C_1  and  N_2
REMARK    2  A    between atoms: N_2  and  C_3
REMARK    3  A    between atoms: N_2  and  C_14
REMARK    4  A    between atoms: C_3  and  C_4
REMARK                            x       y       z     vdW  Elec       q    Type
REMARK                         _______ _______ _______ _____ _____    ______ ____
ROOT
ATOM      1  C   UNL     1       2.454   6.622  19.354  0.00  0.00    +0.000 A 
ATOM      2  C   UNL     1       2.504   7.400  18.257  0.00  0.00    +0.000 A 
ATOM      3  C   UNL     1       1.949   8.772  18.294  0.00  0.00    +0.000 A 
ATOM      4  O   UNL     1       2.006   9.486  17.298  0.00  0.00    +0.000 OA
ATOM      5  N   UNL     1       1.431   9.133  19.516  0.00  0.00    +0.000 N 
ATOM      6  C   UNL     1       0.930  10.380  19.817  0.00  0.00    +0.000 A 
ATOM      7  C   UNL     1       0.488  10.492  21.074  0.00  0.00    +0.000 A 
ATOM      8  S   UNL     1       0.670   8.998  21.953  0.00  0.00    +0.000 S 
ATOM      9  C   UNL     1       1.409   8.231  20.556  0.00  0.00    +0.000 A 
ATOM     10  N   UNL     1       1.864   7.025  20.534  0.00  0.00    +0.000 NA
ENDROOT
BRANCH   1  11
ATOM     11  C   UNL     1       3.211   5.291  19.381  0.00  0.00    +0.000 C 
BRANCH  11  13
ATOM     12  C   UNL     1       2.407   3.538  17.933  0.00  0.00    +0.000 C 
ATOM     13  N   UNL     1       3.450   4.551  18.133  0.00  0.00    +0.000 NA
BRANCH  13  14
ATOM     14  C   UNL     1       4.813   4.007  17.921  0.00  0.00    +0.000 C 
ATOM     15  C   UNL     1       5.140   3.971  16.403  0.00  0.00    +0.000 C 
ATOM     16  C   UNL     1       5.282   5.381  15.826  0.00  0.00    +0.000 C 
ATOM     17  C   UNL     1       6.483   6.072  16.457  0.00  0.00    +0.000 C 
ATOM     18  C   UNL     1       6.372   6.107  17.979  0.00  0.00    +0.000 C 
ATOM     19  C   UNL     1       5.994   4.756  18.599  0.00  0.00    +0.000 C 
ENDBRANCH  13  14
ENDBRANCH  11  13
ENDBRANCH   1  11
TORSDOF 3
ENDMDL
MODEL 4
REMARK VINA RESULT:      -6.3      4.001      5.035
REMARK  Name = 
REMARK  4 active torsions:
REMARK  status: ('A' for Active; 'I' for Inactive)
REMARK    1  A    between atoms: C_1  and  N_2
REMARK    2  A    between atoms: N_2  and  C_3
REMARK    3  A    between atoms: N_2  and  C_14
REMARK    4  A    between atoms: C_3  and  C_4
REMARK                            x       y       z     vdW  Elec       q    Type
REMARK                         _______ _______ _______ _____ _____    ______ ____
ROOT
ATOM      1  C   UNL     1       2.610   7.019  18.799  0.00  0.00    +0.000 A 
ATOM      2  C   UNL     1       2.110   6.913  20.044  0.00  0.00    +0.000 A 
ATOM      3  C   UNL     1       1.436   8.071  20.673  0.00  0.00    +0.000 A 
ATOM      4  O   UNL     1       0.969   7.972  21.803  0.00  0.00    +0.000 OA
ATOM      5  N   UNL     1       1.371   9.186  19.871  0.00  0.00    +0.000 N 
ATOM      6  C   UNL     1       0.728  10.357  20.206  0.00  0.00    +0.000 A 
ATOM      7  C   UNL     1       0.797  11.298  19.257  0.00  0.00    +0.000 A 
ATOM      8  S   UNL     1       1.708  10.749  17.875  0.00  0.00    +0.000 S 
ATOM      9  C   UNL     1       1.952   9.178  18.622  0.00  0.00    +0.000 A 
ATOM     10  N   UNL     1       2.565   8.189  18.068  0.00  0.00    +0.000 NA
ENDROOT
BRANCH   1  11
ATOM     11  C   UNL     1       3.115   5.770  18.071  0.00  0.00    +0.000 C 
BRANCH  11  13
ATOM     12  C   UNL     1       5.082   4.495  18.639  0.00  0.00    +0.000 C 
ATOM     13  N   UNL     1       3.633   4.627  18.836  0.00  0.00    +0.000 NA
BRANCH  13  14
ATOM     14  C   UNL     1       2.923   3.333  18.683  0.00  0.00    +0.000 C 
ATOM     15  C   UNL     1       3.352   2.356  19.810  0.00  0.00    +0.000 C 
ATOM     16  C   UNL     1       2.848   2.818  21.178  0.00  0.00    +0.000 C 
ATOM     17  C   UNL     1       1.326   2.780  21.201  0.00  0.00    +0.000 C 
ATOM     18  C   UNL     1       0.729   3.623  20.077  0.00  0.00    +0.000 C 
ATOM     19  C   UNL     1       1.369   3.365  18.708  0.00  0.00    +0.000 C 
ENDBRANCH  13  14
ENDBRANCH  11  13
ENDBRANCH   1  11
TORSDOF 3
ENDMDL
MODEL 5
REMARK VINA RESULT:      -6.3      4.044      5.350
REMARK  Name = 
REMARK  4 active torsions:
REMARK  status: ('A' for Active; 'I' for Inactive)
REMARK    1  A    between atoms: C_1  and  N_2
REMARK    2  A    between atoms: N_2  and  C_3
REMARK    3  A    between atoms: N_2  and  C_14
REMARK    4  A    between atoms: C_3  and  C_4
REMARK                            x       y       z     vdW  Elec       q    Type
REMARK                         _______ _______ _______ _____ _____    ______ ____
ROOT
ATOM      1  C   UNL     1       1.975   6.966  20.039  0.00  0.00    +0.000 A 
ATOM      2  C   UNL     1       2.285   7.393  18.801  0.00  0.00    +0.000 A 
ATOM      3  C   UNL     1       1.930   8.766  18.379  0.00  0.00    +0.000 A 
ATOM      4  O   UNL     1       2.222   9.160  17.254  0.00  0.00    +0.000 OA
ATOM      5  N   UNL     1       1.304   9.508  19.354  0.00  0.00    +0.000 N 
ATOM      6  C   UNL     1       0.947  10.832  19.224  0.00  0.00    +0.000 A 
ATOM      7  C   UNL     1       0.357  11.338  20.312  0.00  0.00    +0.000 A 
ATOM      8  S   UNL     1       0.204  10.144  21.573  0.00  0.00    +0.000 S 
ATOM      9  C   UNL     1       1.013   8.944  20.576  0.00  0.00    +0.000 A 
ATOM     10  N   UNL     1       1.291   7.743  20.952  0.00  0.00    +0.000 NA
ENDROOT
BRANCH   1  11
ATOM     11  C   UNL     1       2.526   5.631  20.546  0.00  0.00    +0.000 C 
BRANCH  11  13
ATOM     12  C   UNL     1       1.064   3.713  20.487  0.00  0.00    +0.000 C 
ATOM     13  N   UNL     1       2.201   4.382  19.842  0.00  0.00    +0.000 NA
BRANCH  13  14
ATOM     14  C   UNL     1       3.322   3.450  19.566  0.00  0.00    +0.000 C 
ATOM     15  C   UNL     1       2.968   2.537  18.362  0.00  0.00    +0.000 C 
ATOM     16  C   UNL     1       2.904   3.329  17.055  0.00  0.00    +0.000 C 
ATOM     17  C   UNL     1       4.284   3.878  16.723  0.00  0.00    +0.000 C 
ATOM     18  C   UNL     1       4.835   4.733  17.861  0.00  0.00    +0.000 C 
ATOM     19  C   UNL     1       4.707   4.076  19.241  0.00  0.00    +0.000 C 
ENDBRANCH  13  14
ENDBRANCH  11  13
ENDBRANCH   1  11
TORSDOF 3
ENDMDL
MODEL 6
REMARK VINA RESULT:      -6.3      2.361      3.460
REMARK  Name = 
REMARK  4 active torsions:
REMARK  status: ('A' for Active; 'I' for Inactive)
REMARK    1  A    between atoms: C_1  and  N_2
REMARK    2  A    between atoms: N_2  and  C_3
REMARK    3  A    between atoms: N_2  and  C_14
REMARK    4  A    between atoms: C_3  and  C_4
REMARK                            x       y       z     vdW  Elec       q    Type
REMARK                         _______ _______ _______ _____ _____    ______ ____
ROOT
ATOM      1  C   UNL     1       4.777   5.324  18.750  0.00  0.00    +0.000 A 
ATOM      2  C   UNL     1       6.051   5.121  19.133  0.00  0.00    +0.000 A 
ATOM      3  C   UNL     1       7.083   4.783  18.128  0.00  0.00    +0.000 A 
ATOM      4  O   UNL     1       8.247   4.610  18.475  0.00  0.00    +0.000 OA
ATOM      5  N   UNL     1       6.612   4.727  16.837  0.00  0.00    +0.000 N 
ATOM      6  C   UNL     1       7.394   4.506  15.725  0.00  0.00    +0.000 A 
ATOM      7  C   UNL     1       6.707   4.503  14.577  0.00  0.00    +0.000 A 
ATOM      8  S   UNL     1       5.005   4.766  14.848  0.00  0.00    +0.000 S 
ATOM      9  C   UNL     1       5.274   4.922  16.577  0.00  0.00    +0.000 A 
ATOM     10  N   UNL     1       4.356   5.192  17.442  0.00  0.00    +0.000 NA
ENDROOT
BRANCH   1  11
ATOM     11  C   UNL     1       3.758   5.877  19.749  0.00  0.00    +0.000 C 
BRANCH  11  13
ATOM     12  C   UNL     1       1.478   6.129  20.496  0.00  0.00    +0.000 C 
ATOM     13  N   UNL     1       2.470   5.196  19.946  0.00  0.00    +0.000 NA
BRANCH  13  14
ATOM     14  C   UNL     1       2.493   3.904  20.674  0.00  0.00    +0.000 C 
ATOM     15  C   UNL     1       1.077   3.268  20.670  0.00  0.00    +0.000 C 
ATOM     16  C   UNL     1       0.666   2.818  19.267  0.00  0.00    +0.000 C 
ATOM     17  C   UNL     1       1.586   1.700  18.799  0.00  0.00    +0.000 C 
ATOM     18  C   UNL     1       3.051   2.129  18.836  0.00  0.00    +0.000 C 
ATOM     19  C   UNL     1       3.460   2.806  20.149  0.00  0.00    +0.000 C 
ENDBRANCH  13  14
ENDBRANCH  11  13
ENDBRANCH   1  11
TORSDOF 3
ENDMDL
MODEL 7
REMARK VINA RESULT:      -6.3      2.201      3.338
REMARK  Name = 
REMARK  4 active torsions:
REMARK  status: ('A' for Active; 'I' for Inactive)
REMARK    1  A    between atoms: C_1  and  N_2
REMARK    2  A    between atoms: N_2  and  C_3
REMARK    3  A    between atoms: N_2  and  C_14
REMARK    4  A    between atoms: C_3  and  C_4
REMARK                            x       y       z     vdW  Elec       q    Type
REMARK                         _______ _______ _______ _____ _____    ______ ____
ROOT
ATOM      1  C   UNL     1       5.456   5.297  18.350  0.00  0.00    +0.000 A 
ATOM      2  C   UNL     1       6.388   6.238  18.114  0.00  0.00    +0.000 A 
ATOM      3  C   UNL     1       7.074   6.292  16.804  0.00  0.00    +0.000 A 
ATOM      4  O   UNL     1       7.915   7.157  16.583  0.00  0.00    +0.000 OA
ATOM      5  N   UNL     1       6.650   5.335  15.910  0.00  0.00    +0.000 N 
ATOM      6  C   UNL     1       7.084   5.232  14.607  0.00  0.00    +0.000 A 
ATOM      7  C   UNL     1       6.522   4.224  13.932  0.00  0.00    +0.000 A 
ATOM      8  S   UNL     1       5.409   3.326  14.930  0.00  0.00    +0.000 S 
ATOM      9  C   UNL     1       5.708   4.403  16.285  0.00  0.00    +0.000 A 
ATOM     10  N   UNL     1       5.119   4.326  17.429  0.00  0.00    +0.000 NA
ENDROOT
BRANCH   1  11
ATOM     11  C   UNL     1       4.600   5.371  19.618  0.00  0.00    +0.000 C 
BRANCH  11  13
ATOM     12  C   UNL     1       2.477   6.514  19.668  0.00  0.00    +0.000 C 
ATOM     13  N   UNL     1       3.141   5.212  19.536  0.00  0.00    +0.000 NA
BRANCH  13  14
ATOM     14  C   UNL     1       2.525   4.174  20.399  0.00  0.00    +0.000 C 
ATOM     15  C   UNL     1       1.047   3.948  19.984  0.00  0.00    +0.000 C 
ATOM     16  C   UNL     1       0.944   3.295  18.605  0.00  0.00    +0.000 C 
ATOM     17  C   UNL     1       1.543   1.897  18.656  0.00  0.00    +0.000 C 
ATOM     18  C   UNL     1       2.987   1.924  19.148  0.00  0.00    +0.000 C 
ATOM     19  C   UNL     1       3.190   2.769  20.411  0.00  0.00    +0.000 C 
ENDBRANCH  13  14
ENDBRANCH  11  13
ENDBRANCH   1  11
TORSDOF 3
ENDMDL
MODEL 8
REMARK VINA RESULT:      -6.2      2.795      6.144
REMARK  Name = 
REMARK  4 active torsions:
REMARK  status: ('A' for Active; 'I' for Inactive)
REMARK    1  A    between atoms: C_1  and  N_2
REMARK    2  A    between atoms: N_2  and  C_3
REMARK    3  A    between atoms: N_2  and  C_14
REMARK    4  A    between atoms: C_3  and  C_4
REMARK                            x       y       z     vdW  Elec       q    Type
REMARK                         _______ _______ _______ _____ _____    ______ ____
ROOT
ATOM      1  C   UNL     1       4.241   3.828  18.254  0.00  0.00    +0.000 A 
ATOM      2  C   UNL     1       4.997   3.011  19.010  0.00  0.00    +0.000 A 
ATOM      3  C   UNL     1       4.454   2.449  20.267  0.00  0.00    +0.000 A 
ATOM      4  O   UNL     1       5.139   1.695  20.950  0.00  0.00    +0.000 OA
ATOM      5  N   UNL     1       3.158   2.824  20.534  0.00  0.00    +0.000 N 
ATOM      6  C   UNL     1       2.414   2.369  21.601  0.00  0.00    +0.000 A 
ATOM      7  C   UNL     1       1.176   2.873  21.645  0.00  0.00    +0.000 A 
ATOM      8  S   UNL     1       0.886   3.978  20.328  0.00  0.00    +0.000 S 
ATOM      9  C   UNL     1       2.499   3.694  19.695  0.00  0.00    +0.000 A 
ATOM     10  N   UNL     1       2.965   4.214  18.610  0.00  0.00    +0.000 NA
ENDROOT
BRANCH   1  11
ATOM     11  C   UNL     1       4.720   4.237  16.858  0.00  0.00    +0.000 C 
BRANCH  11  13
ATOM     12  C   UNL     1       4.944   6.258  15.561  0.00  0.00    +0.000 C 
ATOM     13  N   UNL     1       5.491   5.475  16.675  0.00  0.00    +0.000 NA
BRANCH  13  14
ATOM     14  C   UNL     1       6.968   5.348  16.604  0.00  0.00    +0.000 C 
ATOM     15  C   UNL     1       7.610   6.744  16.382  0.00  0.00    +0.000 C 
ATOM     16  C   UNL     1       7.443   7.642  17.609  0.00  0.00    +0.000 C 
ATOM     17  C   UNL     1       8.212   7.051  18.782  0.00  0.00    +0.000 C 
ATOM     18  C   UNL     1       7.768   5.621  19.079  0.00  0.00    +0.000 C 
ATOM     19  C   UNL     1       7.691   4.730  17.833  0.00  0.00    +0.000 C 
ENDBRANCH  13  14
ENDBRANCH  11  13
ENDBRANCH   1  11
TORSDOF 3
ENDMDL
MODEL 9
REMARK VINA RESULT:      -6.1      2.183      2.868
REMARK  Name = 
REMARK  4 active torsions:
REMARK  status: ('A' for Active; 'I' for Inactive)
REMARK    1  A    between atoms: C_1  and  N_2
REMARK    2  A    between atoms: N_2  and  C_3
REMARK    3  A    between atoms: N_2  and  C_14
REMARK    4  A    between atoms: C_3  and  C_4
REMARK                            x       y       z     vdW  Elec       q    Type
REMARK                         _______ _______ _______ _____ _____    ______ ____
ROOT
ATOM      1  C   UNL     1       4.657   3.418  18.573  0.00  0.00    +0.000 A 
ATOM      2  C   UNL     1       5.480   4.275  19.205  0.00  0.00    +0.000 A 
ATOM      3  C   UNL     1       6.470   5.058  18.432  0.00  0.00    +0.000 A 
ATOM      4  O   UNL     1       7.213   5.849  19.005  0.00  0.00    +0.000 OA
ATOM      5  N   UNL     1       6.430   4.830  17.076  0.00  0.00    +0.000 N 
ATOM      6  C   UNL     1       7.199   5.494  16.146  0.00  0.00    +0.000 A 
ATOM      7  C   UNL     1       6.977   5.101  14.887  0.00  0.00    +0.000 A 
ATOM      8  S   UNL     1       5.776   3.839  14.811  0.00  0.00    +0.000 S 
ATOM      9  C   UNL     1       5.560   3.899  16.554  0.00  0.00    +0.000 A 
ATOM     10  N   UNL     1       4.709   3.190  17.213  0.00  0.00    +0.000 NA
ENDROOT
BRANCH   1  11
ATOM     11  C   UNL     1       3.499   2.770  19.337  0.00  0.00    +0.000 C 
BRANCH  11  13
ATOM     12  C   UNL     1       2.416   2.781  21.492  0.00  0.00    +0.000 C 
ATOM     13  N   UNL     1       2.701   3.563  20.283  0.00  0.00    +0.000 NA
BRANCH  13  14
ATOM     14  C   UNL     1       1.492   4.237  19.750  0.00  0.00    +0.000 C 
ATOM     15  C   UNL     1       1.231   5.553  20.530  0.00  0.00    +0.000 C 
ATOM     16  C   UNL     1       2.311   6.599  20.248  0.00  0.00    +0.000 C 
ATOM     17  C   UNL     1       2.254   7.008  18.783  0.00  0.00    +0.000 C 
ATOM     18  C   UNL     1       2.398   5.802  17.859  0.00  0.00    +0.000 C 
ATOM     19  C   UNL     1       1.497   4.623  18.244  0.00  0.00    +0.000 C 
ENDBRANCH  13  14
ENDBRANCH  11  13
ENDBRANCH   1  11
TORSDOF 3
ENDMDL
