MODEL 1
REMARK VINA RESULT:      -8.4      0.000      0.000
REMARK  Name = 
REMARK  8 active torsions:
REMARK  status: ('A' for Active; 'I' for Inactive)
REMARK    1  A    between atoms: C_1  and  O_2
REMARK    2  A    between atoms: O_2  and  C_3
REMARK    3  A    between atoms: C_5  and  C_6
REMARK    4  A    between atoms: C_7  and  C_8
REMARK    5  A    between atoms: N_10  and  C_11
REMARK    6  A    between atoms: C_11  and  C_12
REMARK    7  A    between atoms: N_14  and  C_15
REMARK    8  A    between atoms: C_24  and  O_25
REMARK                            x       y       z     vdW  Elec       q    Type
REMARK                         _______ _______ _______ _____ _____    ______ ____
ROOT
ATOM      1  C   UNL     1       7.807   7.583  17.676  0.00  0.00    +0.000 C 
ATOM      2  O   UNL     1       7.394   7.297  16.559  0.00  0.00    +0.000 OA
ATOM      3  N   UNL     1       7.964   6.675  18.687  0.00  0.00    +0.000 N 
ATOM      4  H   UNL     1       8.300   6.957  19.604  0.00  0.00    +0.000 HD
ENDROOT
BRANCH   1   6
ATOM      5  C   UNL     1       9.068   9.197  19.068  0.00  0.00    +0.000 C 
ATOM      6  C   UNL     1       8.198   8.968  18.069  0.00  0.00    +0.000 C 
BRANCH   5   9
ATOM      7  C   UNL     1      10.628  12.670  19.050  0.00  0.00    +0.000 A 
ATOM      8  C   UNL     1      10.191  11.390  18.652  0.00  0.00    +0.000 A 
ATOM      9  C   UNL     1       9.481  10.541  19.521  0.00  0.00    +0.000 A 
ATOM     10  C   UNL     1       9.242  10.992  20.823  0.00  0.00    +0.000 A 
ATOM     11  C   UNL     1       9.666  12.258  21.235  0.00  0.00    +0.000 A 
ATOM     12  C   UNL     1      10.353  13.096  20.354  0.00  0.00    +0.000 A 
BRANCH   7  14
ATOM     13  C   UNL     1      10.604  14.406  17.398  0.00  0.00    +0.000 C 
ATOM     14  O   UNL     1      11.290  13.351  18.061  0.00  0.00    +0.000 OA
ENDBRANCH   7  14
BRANCH  12  15
ATOM     15  O   UNL     1      10.747  14.324  20.809  0.00  0.00    +0.000 OA
ATOM     16  H   UNL     1      11.715  14.385  20.771  0.00  0.00    +0.000 HD
ENDBRANCH  12  15
ENDBRANCH   5   9
ENDBRANCH   1   6
BRANCH   3  17
ATOM     17  C   UNL     1       7.644   5.260  18.541  0.00  0.00    +0.000 C 
BRANCH  17  18
ATOM     18  C   UNL     1       6.124   5.092  18.657  0.00  0.00    +0.000 C 
ATOM     19  O   UNL     1       5.414   6.080  18.859  0.00  0.00    +0.000 OA
ATOM     20  N   UNL     1       5.678   3.782  18.540  0.00  0.00    +0.000 N 
ATOM     21  H   UNL     1       6.378   3.048  18.553  0.00  0.00    +0.000 HD
BRANCH  20  22
ATOM     22  C   UNL     1       4.324   3.366  18.603  0.00  0.00    +0.000 A 
ATOM     23  C   UNL     1       3.552   3.119  17.462  0.00  0.00    +0.000 A 
ATOM     24  C   UNL     1       2.199   2.782  17.565  0.00  0.00    +0.000 A 
ATOM     25  C   UNL     1       1.600   2.679  18.815  0.00  0.00    +0.000 A 
ATOM     26  C   UNL     1       2.370   2.882  19.957  0.00  0.00    +0.000 A 
ATOM     27 BR   UNL     1       1.550   2.749  21.658  0.00  0.00    +0.000 Br
ATOM     28  C   UNL     1       3.729   3.207  19.861  0.00  0.00    +0.000 A 
ENDBRANCH  20  22
ENDBRANCH  17  18
ENDBRANCH   3  17
TORSDOF 7
ENDMDL
MODEL 2
REMARK VINA RESULT:      -8.2      1.666      1.822
REMARK  Name = 
REMARK  8 active torsions:
REMARK  status: ('A' for Active; 'I' for Inactive)
REMARK    1  A    between atoms: C_1  and  O_2
REMARK    2  A    between atoms: O_2  and  C_3
REMARK    3  A    between atoms: C_5  and  C_6
REMARK    4  A    between atoms: C_7  and  C_8
REMARK    5  A    between atoms: N_10  and  C_11
REMARK    6  A    between atoms: C_11  and  C_12
REMARK    7  A    between atoms: N_14  and  C_15
REMARK    8  A    between atoms: C_24  and  O_25
REMARK                            x       y       z     vdW  Elec       q    Type
REMARK                         _______ _______ _______ _____ _____    ______ ____
ROOT
ATOM      1  C   UNL     1       7.418   6.981  17.310  0.00  0.00    +0.000 C 
ATOM      2  O   UNL     1       6.568   7.250  16.470  0.00  0.00    +0.000 OA
ATOM      3  N   UNL     1       7.816   5.707  17.611  0.00  0.00    +0.000 N 
ATOM      4  H   UNL     1       8.518   5.527  18.324  0.00  0.00    +0.000 HD
ENDROOT
BRANCH   1   6
ATOM      5  C   UNL     1       8.098   9.319  17.762  0.00  0.00    +0.000 C 
ATOM      6  C   UNL     1       8.130   8.020  18.108  0.00  0.00    +0.000 C 
BRANCH   5   9
ATOM      7  C   UNL     1       9.594  12.723  18.577  0.00  0.00    +0.000 A 
ATOM      8  C   UNL     1       8.914  11.675  17.925  0.00  0.00    +0.000 A 
ATOM      9  C   UNL     1       8.797  10.394  18.495  0.00  0.00    +0.000 A 
ATOM     10  C   UNL     1       9.411  10.171  19.732  0.00  0.00    +0.000 A 
ATOM     11  C   UNL     1      10.090  11.199  20.393  0.00  0.00    +0.000 A 
ATOM     12  C   UNL     1      10.179  12.470  19.822  0.00  0.00    +0.000 A 
BRANCH   7  14
ATOM     13  C   UNL     1       8.480  14.775  18.034  0.00  0.00    +0.000 C 
ATOM     14  O   UNL     1       9.588  13.899  17.870  0.00  0.00    +0.000 OA
ENDBRANCH   7  14
BRANCH  12  15
ATOM     15  O   UNL     1      10.856  13.439  20.511  0.00  0.00    +0.000 OA
ATOM     16  H   UNL     1      10.572  14.312  20.200  0.00  0.00    +0.000 HD
ENDBRANCH  12  15
ENDBRANCH   5   9
ENDBRANCH   1   6
BRANCH   3  17
ATOM     17  C   UNL     1       7.260   4.526  16.963  0.00  0.00    +0.000 C 
BRANCH  17  18
ATOM     18  C   UNL     1       5.812   4.349  17.437  0.00  0.00    +0.000 C 
ATOM     19  O   UNL     1       4.891   4.390  16.618  0.00  0.00    +0.000 OA
ATOM     20  N   UNL     1       5.671   4.174  18.808  0.00  0.00    +0.000 N 
ATOM     21  H   UNL     1       6.489   4.337  19.385  0.00  0.00    +0.000 HD
BRANCH  20  22
ATOM     22  C   UNL     1       4.443   3.982  19.490  0.00  0.00    +0.000 A 
ATOM     23  C   UNL     1       3.969   2.719  19.860  0.00  0.00    +0.000 A 
ATOM     24  C   UNL     1       2.718   2.565  20.466  0.00  0.00    +0.000 A 
ATOM     25  C   UNL     1       1.926   3.679  20.718  0.00  0.00    +0.000 A 
ATOM     26  C   UNL     1       2.406   4.944  20.392  0.00  0.00    +0.000 A 
ATOM     27 BR   UNL     1       1.322   6.458  20.730  0.00  0.00    +0.000 Br
ATOM     28  C   UNL     1       3.664   5.105  19.797  0.00  0.00    +0.000 A 
ENDBRANCH  20  22
ENDBRANCH  17  18
ENDBRANCH   3  17
TORSDOF 7
ENDMDL
MODEL 3
REMARK VINA RESULT:      -8.1      1.443      2.155
REMARK  Name = 
REMARK  8 active torsions:
REMARK  status: ('A' for Active; 'I' for Inactive)
REMARK    1  A    between atoms: C_1  and  O_2
REMARK    2  A    between atoms: O_2  and  C_3
REMARK    3  A    between atoms: C_5  and  C_6
REMARK    4  A    between atoms: C_7  and  C_8
REMARK    5  A    between atoms: N_10  and  C_11
REMARK    6  A    between atoms: C_11  and  C_12
REMARK    7  A    between atoms: N_14  and  C_15
REMARK    8  A    between atoms: C_24  and  O_25
REMARK                            x       y       z     vdW  Elec       q    Type
REMARK                         _______ _______ _______ _____ _____    ______ ____
ROOT
ATOM      1  C   UNL     1       7.952   7.773  17.936  0.00  0.00    +0.000 C 
ATOM      2  O   UNL     1       8.311   7.050  18.857  0.00  0.00    +0.000 OA
ATOM      3  N   UNL     1       7.221   7.338  16.865  0.00  0.00    +0.000 N 
ATOM      4  H   UNL     1       6.952   7.970  16.116  0.00  0.00    +0.000 HD
ENDROOT
BRANCH   1   6
ATOM      5  C   UNL     1       9.061   9.818  18.787  0.00  0.00    +0.000 C 
ATOM      6  C   UNL     1       8.267   9.230  17.874  0.00  0.00    +0.000 C 
BRANCH   5   9
ATOM      7  C   UNL     1       9.368  13.425  19.964  0.00  0.00    +0.000 A 
ATOM      8  C   UNL     1       9.090  12.044  19.921  0.00  0.00    +0.000 A 
ATOM      9  C   UNL     1       9.396  11.256  18.796  0.00  0.00    +0.000 A 
ATOM     10  C   UNL     1       9.964  11.894  17.688  0.00  0.00    +0.000 A 
ATOM     11  C   UNL     1      10.247  13.262  17.713  0.00  0.00    +0.000 A 
ATOM     12  C   UNL     1       9.955  14.025  18.845  0.00  0.00    +0.000 A 
BRANCH   7  14
ATOM     13  C   UNL     1       9.060  13.230  22.333  0.00  0.00    +0.000 C 
ATOM     14  O   UNL     1       9.010  14.016  21.149  0.00  0.00    +0.000 OA
ENDBRANCH   7  14
BRANCH  12  15
ATOM     15  O   UNL     1      10.251  15.360  18.815  0.00  0.00    +0.000 OA
ATOM     16  H   UNL     1      10.286  15.661  17.893  0.00  0.00    +0.000 HD
ENDBRANCH  12  15
ENDBRANCH   5   9
ENDBRANCH   1   6
BRANCH   3  17
ATOM     17  C   UNL     1       6.795   5.953  16.703  0.00  0.00    +0.000 C 
BRANCH  17  18
ATOM     18  C   UNL     1       5.361   5.821  17.232  0.00  0.00    +0.000 C 
ATOM     19  O   UNL     1       4.659   6.828  17.351  0.00  0.00    +0.000 OA
ATOM     20  N   UNL     1       4.984   4.526  17.560  0.00  0.00    +0.000 N 
ATOM     21  H   UNL     1       5.712   3.819  17.581  0.00  0.00    +0.000 HD
BRANCH  20  22
ATOM     22  C   UNL     1       3.714   4.141  18.060  0.00  0.00    +0.000 A 
ATOM     23  C   UNL     1       2.547   4.197  17.291  0.00  0.00    +0.000 A 
ATOM     24  C   UNL     1       1.302   3.879  17.843  0.00  0.00    +0.000 A 
ATOM     25  C   UNL     1       1.210   3.490  19.174  0.00  0.00    +0.000 A 
ATOM     26  C   UNL     1       2.371   3.391  19.936  0.00  0.00    +0.000 A 
ATOM     27 BR   UNL     1       2.241   2.869  21.751  0.00  0.00    +0.000 Br
ATOM     28  C   UNL     1       3.622   3.695  19.385  0.00  0.00    +0.000 A 
ENDBRANCH  20  22
ENDBRANCH  17  18
ENDBRANCH   3  17
TORSDOF 7
ENDMDL
MODEL 4
REMARK VINA RESULT:      -8.1      1.602      1.787
REMARK  Name = 
REMARK  8 active torsions:
REMARK  status: ('A' for Active; 'I' for Inactive)
REMARK    1  A    between atoms: C_1  and  O_2
REMARK    2  A    between atoms: O_2  and  C_3
REMARK    3  A    between atoms: C_5  and  C_6
REMARK    4  A    between atoms: C_7  and  C_8
REMARK    5  A    between atoms: N_10  and  C_11
REMARK    6  A    between atoms: C_11  and  C_12
REMARK    7  A    between atoms: N_14  and  C_15
REMARK    8  A    between atoms: C_24  and  O_25
REMARK                            x       y       z     vdW  Elec       q    Type
REMARK                         _______ _______ _______ _____ _____    ______ ____
ROOT
ATOM      1  C   UNL     1       7.428   7.855  17.514  0.00  0.00    +0.000 C 
ATOM      2  O   UNL     1       6.622   7.646  16.615  0.00  0.00    +0.000 OA
ATOM      3  N   UNL     1       7.963   6.874  18.303  0.00  0.00    +0.000 N 
ATOM      4  H   UNL     1       8.621   7.093  19.046  0.00  0.00    +0.000 HD
ENDROOT
BRANCH   1   6
ATOM      5  C   UNL     1       8.876   9.405  18.793  0.00  0.00    +0.000 C 
ATOM      6  C   UNL     1       7.933   9.217  17.853  0.00  0.00    +0.000 C 
BRANCH   5   9
ATOM      7  C   UNL     1       9.700  13.120  18.697  0.00  0.00    +0.000 A 
ATOM      8  C   UNL     1       9.193  11.847  18.368  0.00  0.00    +0.000 A 
ATOM      9  C   UNL     1       9.404  10.726  19.192  0.00  0.00    +0.000 A 
ATOM     10  C   UNL     1      10.170  10.901  20.349  0.00  0.00    +0.000 A 
ATOM     11  C   UNL     1      10.680  12.156  20.691  0.00  0.00    +0.000 A 
ATOM     12  C   UNL     1      10.445  13.262  19.872  0.00  0.00    +0.000 A 
BRANCH   7  14
ATOM     13  C   UNL     1       8.172  14.817  17.967  0.00  0.00    +0.000 C 
ATOM     14  O   UNL     1       9.378  14.087  17.779  0.00  0.00    +0.000 OA
ENDBRANCH   7  14
BRANCH  12  15
ATOM     15  O   UNL     1      10.969  14.467  20.252  0.00  0.00    +0.000 OA
ATOM     16  H   UNL     1      11.035  15.047  19.478  0.00  0.00    +0.000 HD
ENDBRANCH  12  15
ENDBRANCH   5   9
ENDBRANCH   1   6
BRANCH   3  17
ATOM     17  C   UNL     1       7.619   5.465  18.161  0.00  0.00    +0.000 C 
BRANCH  17  18
ATOM     18  C   UNL     1       6.359   5.187  18.992  0.00  0.00    +0.000 C 
ATOM     19  O   UNL     1       6.469   4.786  20.153  0.00  0.00    +0.000 OA
ATOM     20  N   UNL     1       5.165   5.404  18.318  0.00  0.00    +0.000 N 
ATOM     21  H   UNL     1       5.216   5.563  17.317  0.00  0.00    +0.000 HD
BRANCH  20  22
ATOM     22  C   UNL     1       3.868   5.229  18.865  0.00  0.00    +0.000 A 
ATOM     23  C   UNL     1       3.260   6.176  19.696  0.00  0.00    +0.000 A 
ATOM     24  C   UNL     1       2.011   5.933  20.275  0.00  0.00    +0.000 A 
ATOM     25  C   UNL     1       1.347   4.738  20.023  0.00  0.00    +0.000 A 
ATOM     26  C   UNL     1       1.926   3.807  19.165  0.00  0.00    +0.000 A 
ATOM     27 BR   UNL     1       1.023   2.177  18.829  0.00  0.00    +0.000 Br
ATOM     28  C   UNL     1       3.170   4.051  18.570  0.00  0.00    +0.000 A 
ENDBRANCH  20  22
ENDBRANCH  17  18
ENDBRANCH   3  17
TORSDOF 7
ENDMDL
MODEL 5
REMARK VINA RESULT:      -8.0      1.816      2.060
REMARK  Name = 
REMARK  8 active torsions:
REMARK  status: ('A' for Active; 'I' for Inactive)
REMARK    1  A    between atoms: C_1  and  O_2
REMARK    2  A    between atoms: O_2  and  C_3
REMARK    3  A    between atoms: C_5  and  C_6
REMARK    4  A    between atoms: C_7  and  C_8
REMARK    5  A    between atoms: N_10  and  C_11
REMARK    6  A    between atoms: C_11  and  C_12
REMARK    7  A    between atoms: N_14  and  C_15
REMARK    8  A    between atoms: C_24  and  O_25
REMARK                            x       y       z     vdW  Elec       q    Type
REMARK                         _______ _______ _______ _____ _____    ______ ____
ROOT
ATOM      1  C   UNL     1       7.742   7.062  18.100  0.00  0.00    +0.000 C 
ATOM      2  O   UNL     1       7.605   6.005  18.704  0.00  0.00    +0.000 OA
ATOM      3  N   UNL     1       7.093   7.365  16.935  0.00  0.00    +0.000 N 
ATOM      4  H   UNL     1       7.244   8.251  16.460  0.00  0.00    +0.000 HD
ENDROOT
BRANCH   1   6
ATOM      5  C   UNL     1       8.337   9.453  18.357  0.00  0.00    +0.000 C 
ATOM      6  C   UNL     1       8.635   8.159  18.573  0.00  0.00    +0.000 C 
BRANCH   5   9
ATOM      7  C   UNL     1      10.548  12.546  18.173  0.00  0.00    +0.000 A 
ATOM      8  C   UNL     1       9.713  11.468  17.818  0.00  0.00    +0.000 A 
ATOM      9  C   UNL     1       9.186  10.585  18.779  0.00  0.00    +0.000 A 
ATOM     10  C   UNL     1       9.544  10.787  20.116  0.00  0.00    +0.000 A 
ATOM     11  C   UNL     1      10.371  11.851  20.487  0.00  0.00    +0.000 A 
ATOM     12  C   UNL     1      10.869  12.729  19.523  0.00  0.00    +0.000 A 
BRANCH   7  14
ATOM     13  C   UNL     1      12.333  13.324  16.776  0.00  0.00    +0.000 C 
ATOM     14  O   UNL     1      10.949  13.300  17.100  0.00  0.00    +0.000 OA
ENDBRANCH   7  14
BRANCH  12  15
ATOM     15  O   UNL     1      11.675  13.753  19.939  0.00  0.00    +0.000 OA
ATOM     16  H   UNL     1      12.468  13.386  20.361  0.00  0.00    +0.000 HD
ENDBRANCH  12  15
ENDBRANCH   5   9
ENDBRANCH   1   6
BRANCH   3  17
ATOM     17  C   UNL     1       6.170   6.448  16.278  0.00  0.00    +0.000 C 
BRANCH  17  18
ATOM     18  C   UNL     1       4.843   6.462  17.048  0.00  0.00    +0.000 C 
ATOM     19  O   UNL     1       4.082   7.425  16.936  0.00  0.00    +0.000 OA
ATOM     20  N   UNL     1       4.629   5.347  17.848  0.00  0.00    +0.000 N 
ATOM     21  H   UNL     1       5.410   4.715  17.986  0.00  0.00    +0.000 HD
BRANCH  20  22
ATOM     22  C   UNL     1       3.481   5.118  18.649  0.00  0.00    +0.000 A 
ATOM     23  C   UNL     1       3.092   5.980  19.681  0.00  0.00    +0.000 A 
ATOM     24  C   UNL     1       1.995   5.680  20.496  0.00  0.00    +0.000 A 
ATOM     25  C   UNL     1       1.268   4.516  20.285  0.00  0.00    +0.000 A 
ATOM     26  C   UNL     1       1.623   3.673  19.235  0.00  0.00    +0.000 A 
ATOM     27 BR   UNL     1       0.635   2.083  18.954  0.00  0.00    +0.000 Br
ATOM     28  C   UNL     1       2.711   3.974  18.406  0.00  0.00    +0.000 A 
ENDBRANCH  20  22
ENDBRANCH  17  18
ENDBRANCH   3  17
TORSDOF 7
ENDMDL
MODEL 6
REMARK VINA RESULT:      -8.0      1.777      2.503
REMARK  Name = 
REMARK  8 active torsions:
REMARK  status: ('A' for Active; 'I' for Inactive)
REMARK    1  A    between atoms: C_1  and  O_2
REMARK    2  A    between atoms: O_2  and  C_3
REMARK    3  A    between atoms: C_5  and  C_6
REMARK    4  A    between atoms: C_7  and  C_8
REMARK    5  A    between atoms: N_10  and  C_11
REMARK    6  A    between atoms: C_11  and  C_12
REMARK    7  A    between atoms: N_14  and  C_15
REMARK    8  A    between atoms: C_24  and  O_25
REMARK                            x       y       z     vdW  Elec       q    Type
REMARK                         _______ _______ _______ _____ _____    ______ ____
ROOT
ATOM      1  C   UNL     1       7.847   7.690  17.897  0.00  0.00    +0.000 C 
ATOM      2  O   UNL     1       8.109   6.877  18.775  0.00  0.00    +0.000 OA
ATOM      3  N   UNL     1       7.065   7.414  16.809  0.00  0.00    +0.000 N 
ATOM      4  H   UNL     1       6.881   8.116  16.098  0.00  0.00    +0.000 HD
ENDROOT
BRANCH   1   6
ATOM      5  C   UNL     1       9.023   9.590  18.967  0.00  0.00    +0.000 C 
ATOM      6  C   UNL     1       8.350   9.094  17.913  0.00  0.00    +0.000 C 
BRANCH   5   9
ATOM      7  C   UNL     1      10.018  12.961  20.428  0.00  0.00    +0.000 A 
ATOM      8  C   UNL     1       9.568  11.631  20.300  0.00  0.00    +0.000 A 
ATOM      9  C   UNL     1       9.529  10.974  19.056  0.00  0.00    +0.000 A 
ATOM     10  C   UNL     1       9.925  11.695  17.925  0.00  0.00    +0.000 A 
ATOM     11  C   UNL     1      10.375  13.013  18.033  0.00  0.00    +0.000 A 
ATOM     12  C   UNL     1      10.426  13.644  19.277  0.00  0.00    +0.000 A 
BRANCH   7  14
ATOM     13  C   UNL     1       8.763  13.906  22.238  0.00  0.00    +0.000 C 
ATOM     14  O   UNL     1       9.995  13.421  21.720  0.00  0.00    +0.000 OA
ENDBRANCH   7  14
BRANCH  12  15
ATOM     15  O   UNL     1      10.873  14.936  19.326  0.00  0.00    +0.000 OA
ATOM     16  H   UNL     1      11.332  15.149  18.499  0.00  0.00    +0.000 HD
ENDBRANCH  12  15
ENDBRANCH   5   9
ENDBRANCH   1   6
BRANCH   3  17
ATOM     17  C   UNL     1       6.463   6.107  16.574  0.00  0.00    +0.000 C 
BRANCH  17  18
ATOM     18  C   UNL     1       5.041   6.118  17.151  0.00  0.00    +0.000 C 
ATOM     19  O   UNL     1       4.208   6.912  16.708  0.00  0.00    +0.000 OA
ATOM     20  N   UNL     1       4.828   5.206  18.176  0.00  0.00    +0.000 N 
ATOM     21  H   UNL     1       5.641   4.739  18.562  0.00  0.00    +0.000 HD
BRANCH  20  22
ATOM     22  C   UNL     1       3.603   5.016  18.866  0.00  0.00    +0.000 A 
ATOM     23  C   UNL     1       3.143   5.895  19.852  0.00  0.00    +0.000 A 
ATOM     24  C   UNL     1       1.966   5.632  20.561  0.00  0.00    +0.000 A 
ATOM     25  C   UNL     1       1.228   4.488  20.285  0.00  0.00    +0.000 A 
ATOM     26  C   UNL     1       1.656   3.629  19.277  0.00  0.00    +0.000 A 
ATOM     27 BR   UNL     1       0.652   2.067  18.908  0.00  0.00    +0.000 Br
ATOM     28  C   UNL     1       2.826   3.893  18.554  0.00  0.00    +0.000 A 
ENDBRANCH  20  22
ENDBRANCH  17  18
ENDBRANCH   3  17
TORSDOF 7
ENDMDL
MODEL 7
REMARK VINA RESULT:      -8.0      1.452      1.540
REMARK  Name = 
REMARK  8 active torsions:
REMARK  status: ('A' for Active; 'I' for Inactive)
REMARK    1  A    between atoms: C_1  and  O_2
REMARK    2  A    between atoms: O_2  and  C_3
REMARK    3  A    between atoms: C_5  and  C_6
REMARK    4  A    between atoms: C_7  and  C_8
REMARK    5  A    between atoms: N_10  and  C_11
REMARK    6  A    between atoms: C_11  and  C_12
REMARK    7  A    between atoms: N_14  and  C_15
REMARK    8  A    between atoms: C_24  and  O_25
REMARK                            x       y       z     vdW  Elec       q    Type
REMARK                         _______ _______ _______ _____ _____    ______ ____
ROOT
ATOM      1  C   UNL     1       7.185   7.484  17.387  0.00  0.00    +0.000 C 
ATOM      2  O   UNL     1       5.969   7.633  17.436  0.00  0.00    +0.000 OA
ATOM      3  N   UNL     1       7.801   6.450  16.737  0.00  0.00    +0.000 N 
ATOM      4  H   UNL     1       8.813   6.358  16.731  0.00  0.00    +0.000 HD
ENDROOT
BRANCH   1   6
ATOM      5  C   UNL     1       8.044   9.755  17.872  0.00  0.00    +0.000 C 
ATOM      6  C   UNL     1       8.146   8.424  18.033  0.00  0.00    +0.000 C 
BRANCH   5   9
ATOM      7  C   UNL     1      10.164  12.889  18.297  0.00  0.00    +0.000 A 
ATOM      8  C   UNL     1       9.264  11.934  17.781  0.00  0.00    +0.000 A 
ATOM      9  C   UNL     1       8.973  10.739  18.465  0.00  0.00    +0.000 A 
ATOM     10  C   UNL     1       9.633  10.502  19.675  0.00  0.00    +0.000 A 
ATOM     11  C   UNL     1      10.528  11.437  20.202  0.00  0.00    +0.000 A 
ATOM     12  C   UNL     1      10.790  12.627  19.520  0.00  0.00    +0.000 A 
BRANCH   7  14
ATOM     13  C   UNL     1      11.492  14.108  16.717  0.00  0.00    +0.000 C 
ATOM     14  O   UNL     1      10.306  13.992  17.494  0.00  0.00    +0.000 OA
ENDBRANCH   7  14
BRANCH  12  15
ATOM     15  O   UNL     1      11.676  13.507  20.079  0.00  0.00    +0.000 OA
ATOM     16  H   UNL     1      11.749  13.329  21.030  0.00  0.00    +0.000 HD
ENDBRANCH  12  15
ENDBRANCH   5   9
ENDBRANCH   1   6
BRANCH   3  17
ATOM     17  C   UNL     1       7.069   5.404  16.034  0.00  0.00    +0.000 C 
BRANCH  17  18
ATOM     18  C   UNL     1       6.275   4.591  17.065  0.00  0.00    +0.000 C 
ATOM     19  O   UNL     1       6.863   4.073  18.018  0.00  0.00    +0.000 OA
ATOM     20  N   UNL     1       4.915   4.497  16.802  0.00  0.00    +0.000 N 
ATOM     21  H   UNL     1       4.592   4.818  15.896  0.00  0.00    +0.000 HD
BRANCH  20  22
ATOM     22  C   UNL     1       3.968   3.811  17.604  0.00  0.00    +0.000 A 
ATOM     23  C   UNL     1       3.660   2.458  17.425  0.00  0.00    +0.000 A 
ATOM     24  C   UNL     1       2.666   1.837  18.188  0.00  0.00    +0.000 A 
ATOM     25  C   UNL     1       1.971   2.561  19.149  0.00  0.00    +0.000 A 
ATOM     26  C   UNL     1       2.299   3.897  19.363  0.00  0.00    +0.000 A 
ATOM     27 BR   UNL     1       1.346   4.884  20.668  0.00  0.00    +0.000 Br
ATOM     28  C   UNL     1       3.303   4.521  18.612  0.00  0.00    +0.000 A 
ENDBRANCH  20  22
ENDBRANCH  17  18
ENDBRANCH   3  17
TORSDOF 7
ENDMDL
MODEL 8
REMARK VINA RESULT:      -8.0      3.560      4.312
REMARK  Name = 
REMARK  8 active torsions:
REMARK  status: ('A' for Active; 'I' for Inactive)
REMARK    1  A    between atoms: C_1  and  O_2
REMARK    2  A    between atoms: O_2  and  C_3
REMARK    3  A    between atoms: C_5  and  C_6
REMARK    4  A    between atoms: C_7  and  C_8
REMARK    5  A    between atoms: N_10  and  C_11
REMARK    6  A    between atoms: C_11  and  C_12
REMARK    7  A    between atoms: N_14  and  C_15
REMARK    8  A    between atoms: C_24  and  O_25
REMARK                            x       y       z     vdW  Elec       q    Type
REMARK                         _______ _______ _______ _____ _____    ______ ____
ROOT
ATOM      1  C   UNL     1       7.536   7.507  17.915  0.00  0.00    +0.000 C 
ATOM      2  O   UNL     1       6.926   7.722  16.874  0.00  0.00    +0.000 OA
ATOM      3  N   UNL     1       7.445   6.341  18.625  0.00  0.00    +0.000 N 
ATOM      4  H   UNL     1       7.960   6.207  19.491  0.00  0.00    +0.000 HD
ENDROOT
BRANCH   1   6
ATOM      5  C   UNL     1       8.570   9.752  18.065  0.00  0.00    +0.000 C 
ATOM      6  C   UNL     1       8.463   8.497  18.535  0.00  0.00    +0.000 C 
BRANCH   5   9
ATOM      7  C   UNL     1      11.177  12.521  18.238  0.00  0.00    +0.000 A 
ATOM      8  C   UNL     1      10.275  11.553  17.754  0.00  0.00    +0.000 A 
ATOM      9  C   UNL     1       9.482  10.774  18.617  0.00  0.00    +0.000 A 
ATOM     10  C   UNL     1       9.637  10.965  19.994  0.00  0.00    +0.000 A 
ATOM     11  C   UNL     1      10.527  11.920  20.493  0.00  0.00    +0.000 A 
ATOM     12  C   UNL     1      11.291  12.698  19.621  0.00  0.00    +0.000 A 
BRANCH   7  14
ATOM     13  C   UNL     1      11.471  14.528  16.961  0.00  0.00    +0.000 C 
ATOM     14  O   UNL     1      11.848  13.186  17.243  0.00  0.00    +0.000 OA
ENDBRANCH   7  14
BRANCH  12  15
ATOM     15  O   UNL     1      12.147  13.618  20.162  0.00  0.00    +0.000 OA
ATOM     16  H   UNL     1      12.956  13.656  19.628  0.00  0.00    +0.000 HD
ENDBRANCH  12  15
ENDBRANCH   5   9
ENDBRANCH   1   6
BRANCH   3  17
ATOM     17  C   UNL     1       6.599   5.226  18.217  0.00  0.00    +0.000 C 
BRANCH  17  18
ATOM     18  C   UNL     1       7.080   4.728  16.849  0.00  0.00    +0.000 C 
ATOM     19  O   UNL     1       8.140   4.104  16.764  0.00  0.00    +0.000 OA
ATOM     20  N   UNL     1       6.247   5.060  15.788  0.00  0.00    +0.000 N 
ATOM     21  H   UNL     1       5.502   5.724  15.971  0.00  0.00    +0.000 HD
BRANCH  20  22
ATOM     22  C   UNL     1       6.464   4.711  14.431  0.00  0.00    +0.000 A 
ATOM     23  C   UNL     1       7.625   5.060  13.734  0.00  0.00    +0.000 A 
ATOM     24  C   UNL     1       7.770   4.761  12.375  0.00  0.00    +0.000 A 
ATOM     25  C   UNL     1       6.754   4.099  11.697  0.00  0.00    +0.000 A 
ATOM     26  C   UNL     1       5.612   3.711  12.392  0.00  0.00    +0.000 A 
ATOM     27 BR   UNL     1       4.227   2.815  11.463  0.00  0.00    +0.000 Br
ATOM     28  C   UNL     1       5.468   3.995  13.756  0.00  0.00    +0.000 A 
ENDBRANCH  20  22
ENDBRANCH  17  18
ENDBRANCH   3  17
TORSDOF 7
ENDMDL
MODEL 9
REMARK VINA RESULT:      -7.9      1.930      2.158
REMARK  Name = 
REMARK  8 active torsions:
REMARK  status: ('A' for Active; 'I' for Inactive)
REMARK    1  A    between atoms: C_1  and  O_2
REMARK    2  A    between atoms: O_2  and  C_3
REMARK    3  A    between atoms: C_5  and  C_6
REMARK    4  A    between atoms: C_7  and  C_8
REMARK    5  A    between atoms: N_10  and  C_11
REMARK    6  A    between atoms: C_11  and  C_12
REMARK    7  A    between atoms: N_14  and  C_15
REMARK    8  A    between atoms: C_24  and  O_25
REMARK                            x       y       z     vdW  Elec       q    Type
REMARK                         _______ _______ _______ _____ _____    ______ ____
ROOT
ATOM      1  C   UNL     1       7.966   7.798  18.003  0.00  0.00    +0.000 C 
ATOM      2  O   UNL     1       8.285   6.966  18.845  0.00  0.00    +0.000 OA
ATOM      3  N   UNL     1       7.143   7.533  16.944  0.00  0.00    +0.000 N 
ATOM      4  H   UNL     1       6.912   8.251  16.261  0.00  0.00    +0.000 HD
ENDROOT
BRANCH   1   6
ATOM      5  C   UNL     1       9.166   9.687  19.064  0.00  0.00    +0.000 C 
ATOM      6  C   UNL     1       8.438   9.212  18.038  0.00  0.00    +0.000 C 
BRANCH   5   9
ATOM      7  C   UNL     1       9.461  13.438  18.481  0.00  0.00    +0.000 A 
ATOM      8  C   UNL     1       9.021  12.100  18.429  0.00  0.00    +0.000 A 
ATOM      9  C   UNL     1       9.646  11.080  19.170  0.00  0.00    +0.000 A 
ATOM     10  C   UNL     1      10.755  11.426  19.949  0.00  0.00    +0.000 A 
ATOM     11  C   UNL     1      11.206  12.747  20.013  0.00  0.00    +0.000 A 
ATOM     12  C   UNL     1      10.562  13.750  19.286  0.00  0.00    +0.000 A 
BRANCH   7  14
ATOM     13  C   UNL     1       7.920  15.269  18.350  0.00  0.00    +0.000 C 
ATOM     14  O   UNL     1       8.717  14.286  17.701  0.00  0.00    +0.000 OA
ENDBRANCH   7  14
BRANCH  12  15
ATOM     15  O   UNL     1      11.045  15.026  19.383  0.00  0.00    +0.000 OA
ATOM     16  H   UNL     1      10.354  15.652  19.114  0.00  0.00    +0.000 HD
ENDBRANCH  12  15
ENDBRANCH   5   9
ENDBRANCH   1   6
BRANCH   3  17
ATOM     17  C   UNL     1       6.560   6.220  16.698  0.00  0.00    +0.000 C 
BRANCH  17  18
ATOM     18  C   UNL     1       5.124   6.219  17.238  0.00  0.00    +0.000 C 
ATOM     19  O   UNL     1       4.304   7.027  16.795  0.00  0.00    +0.000 OA
ATOM     20  N   UNL     1       4.882   5.279  18.231  0.00  0.00    +0.000 N 
ATOM     21  H   UNL     1       5.684   4.800  18.625  0.00  0.00    +0.000 HD
BRANCH  20  22
ATOM     22  C   UNL     1       3.639   5.073  18.883  0.00  0.00    +0.000 A 
ATOM     23  C   UNL     1       3.132   5.952  19.846  0.00  0.00    +0.000 A 
ATOM     24  C   UNL     1       1.938   5.675  20.519  0.00  0.00    +0.000 A 
ATOM     25  C   UNL     1       1.229   4.515  20.231  0.00  0.00    +0.000 A 
ATOM     26  C   UNL     1       1.705   3.655  19.245  0.00  0.00    +0.000 A 
ATOM     27 BR   UNL     1       0.741   2.072  18.860  0.00  0.00    +0.000 Br
ATOM     28  C   UNL     1       2.892   3.934  18.557  0.00  0.00    +0.000 A 
ENDBRANCH  20  22
ENDBRANCH  17  18
ENDBRANCH   3  17
TORSDOF 7
ENDMDL
