MODEL 1
REMARK VINA RESULT:      -7.4      0.000      0.000
REMARK  Name = 
REMARK  11 active torsions:
REMARK  status: ('A' for Active; 'I' for Inactive)
REMARK    1  A    between atoms: C_2  and  O_3
REMARK    2  A    between atoms: C_2  and  C_4
REMARK    3  A    between atoms: C_4  and  C_5
REMARK    4  A    between atoms: C_7  and  C_8
REMARK    5  A    between atoms: C_8  and  C_9
REMARK    6  A    between atoms: C_9  and  O_11
REMARK    7  A    between atoms: C_13  and  C_14
REMARK    8  A    between atoms: C_17  and  C_18
REMARK    9  A    between atoms: C_19  and  C_20
REMARK   10  A    between atoms: C_20  and  C_21
REMARK   11  A    between atoms: C_21  and  O_22
REMARK                            x       y       z     vdW  Elec       q    Type
REMARK                         _______ _______ _______ _____ _____    ______ ____
ROOT
ATOM      1  C   UNL     1       4.832   4.644  16.592  0.00  0.00    +0.000 A 
ATOM      2  C   UNL     1       4.505   3.552  17.403  0.00  0.00    +0.000 A 
ATOM      3  C   UNL     1       3.627   3.710  18.492  0.00  0.00    +0.000 A 
ATOM      4  C   UNL     1       3.120   4.970  18.798  0.00  0.00    +0.000 A 
ATOM      5  C   UNL     1       3.424   6.062  17.991  0.00  0.00    +0.000 A 
ATOM      6  C   UNL     1       4.298   5.890  16.907  0.00  0.00    +0.000 A 
ENDROOT
BRANCH   5   7
ATOM      7  C   UNL     1       2.745   7.330  18.198  0.00  0.00    +0.000 A 
ATOM      8  C   UNL     1       2.646   8.448  17.391  0.00  0.00    +0.000 A 
ATOM      9  C   UNL     1       1.879   9.479  18.002  0.00  0.00    +0.000 A 
ATOM     10  C   UNL     1       1.444   9.086  19.242  0.00  0.00    +0.000 A 
ATOM     11  S   UNL     1       2.016   7.584  19.722  0.00  0.00    +0.000 S 
BRANCH  10  12
ATOM     12  C   UNL     1       0.622   9.809  20.111  0.00  0.00    +0.000 C 
ATOM     13  C   UNL     1      -0.165  10.492  20.894  0.00  0.00    +0.000 C 
BRANCH  13  14
ATOM     14  C   UNL     1      -1.083  11.288  21.807  0.00  0.00    +0.000 C 
BRANCH  14  15
ATOM     15  C   UNL     1      -1.027  10.731  23.228  0.00  0.00    +0.000 C 
BRANCH  15  16
ATOM     16  O   UNL     1      -0.867   9.318  23.228  0.00  0.00    +0.000 OA
ATOM     17  H   UNL     1      -1.681   8.932  23.602  0.00  0.00    +0.000 HD
ENDBRANCH  15  16
ENDBRANCH  14  15
ENDBRANCH  13  14
ENDBRANCH  10  12
ENDBRANCH   5   7
BRANCH   1  18
ATOM     18  C   UNL     1       5.654   4.507  15.331  0.00  0.00    +0.000 C 
BRANCH  18  20
ATOM     19  O   UNL     1       7.661   5.618  14.594  0.00  0.00    +0.000 OA
ATOM     20  C   UNL     1       7.101   4.939  15.444  0.00  0.00    +0.000 C 
BRANCH  20  21
ATOM     21  O   UNL     1       7.763   4.472  16.527  0.00  0.00    +0.000 OA
ATOM     22  H   UNL     1       8.354   3.718  16.342  0.00  0.00    +0.000 HD
ENDBRANCH  20  21
ENDBRANCH  18  20
ENDBRANCH   1  18
BRANCH   3  23
ATOM     23  C   UNL     1       3.113   2.518  19.258  0.00  0.00    +0.000 C 
BRANCH  23  24
ATOM     24  C   UNL     1       3.895   2.186  20.505  0.00  0.00    +0.000 C 
ATOM     25  O   UNL     1       3.414   2.264  21.624  0.00  0.00    +0.000 OA
BRANCH  24  26
ATOM     26  O   UNL     1       5.158   1.723  20.308  0.00  0.00    +0.000 OA
ATOM     27  H   UNL     1       5.254   1.084  19.579  0.00  0.00    +0.000 HD
ENDBRANCH  24  26
ENDBRANCH  23  24
ENDBRANCH   3  23
TORSDOF 11
ENDMDL
MODEL 2
REMARK VINA RESULT:      -7.4      1.056      1.222
REMARK  Name = 
REMARK  11 active torsions:
REMARK  status: ('A' for Active; 'I' for Inactive)
REMARK    1  A    between atoms: C_2  and  O_3
REMARK    2  A    between atoms: C_2  and  C_4
REMARK    3  A    between atoms: C_4  and  C_5
REMARK    4  A    between atoms: C_7  and  C_8
REMARK    5  A    between atoms: C_8  and  C_9
REMARK    6  A    between atoms: C_9  and  O_11
REMARK    7  A    between atoms: C_13  and  C_14
REMARK    8  A    between atoms: C_17  and  C_18
REMARK    9  A    between atoms: C_19  and  C_20
REMARK   10  A    between atoms: C_20  and  C_21
REMARK   11  A    between atoms: C_21  and  O_22
REMARK                            x       y       z     vdW  Elec       q    Type
REMARK                         _______ _______ _______ _____ _____    ______ ____
ROOT
ATOM      1  C   UNL     1       4.272   4.445  17.507  0.00  0.00    +0.000 A 
ATOM      2  C   UNL     1       3.659   3.457  18.284  0.00  0.00    +0.000 A 
ATOM      3  C   UNL     1       2.629   3.793  19.184  0.00  0.00    +0.000 A 
ATOM      4  C   UNL     1       2.253   5.124  19.343  0.00  0.00    +0.000 A 
ATOM      5  C   UNL     1       2.844   6.115  18.566  0.00  0.00    +0.000 A 
ATOM      6  C   UNL     1       3.866   5.766  17.670  0.00  0.00    +0.000 A 
ENDROOT
BRANCH   5   7
ATOM      7  C   UNL     1       2.319   7.470  18.595  0.00  0.00    +0.000 A 
ATOM      8  C   UNL     1       2.299   8.456  17.627  0.00  0.00    +0.000 A 
ATOM      9  C   UNL     1       1.683   9.650  18.095  0.00  0.00    +0.000 A 
ATOM     10  C   UNL     1       1.274   9.503  19.396  0.00  0.00    +0.000 A 
ATOM     11  S   UNL     1       1.704   8.035  20.085  0.00  0.00    +0.000 S 
BRANCH  10  12
ATOM     12  C   UNL     1       0.583  10.440  20.170  0.00  0.00    +0.000 C 
ATOM     13  C   UNL     1      -0.045  11.301  20.921  0.00  0.00    +0.000 C 
BRANCH  13  14
ATOM     14  C   UNL     1      -0.778  12.304  21.796  0.00  0.00    +0.000 C 
BRANCH  14  15
ATOM     15  C   UNL     1      -1.419  11.597  22.988  0.00  0.00    +0.000 C 
BRANCH  15  16
ATOM     16  O   UNL     1      -0.616  10.517  23.447  0.00  0.00    +0.000 OA
ATOM     17  H   UNL     1      -0.100  10.192  22.685  0.00  0.00    +0.000 HD
ENDBRANCH  15  16
ENDBRANCH  14  15
ENDBRANCH  13  14
ENDBRANCH  10  12
ENDBRANCH   5   7
BRANCH   1  18
ATOM     18  C   UNL     1       5.280   4.126  16.427  0.00  0.00    +0.000 C 
BRANCH  18  20
ATOM     19  O   UNL     1       7.461   5.021  15.927  0.00  0.00    +0.000 OA
ATOM     20  C   UNL     1       6.714   4.496  16.742  0.00  0.00    +0.000 C 
BRANCH  20  21
ATOM     21  O   UNL     1       7.145   4.150  17.977  0.00  0.00    +0.000 OA
ATOM     22  H   UNL     1       6.572   4.460  18.704  0.00  0.00    +0.000 HD
ENDBRANCH  20  21
ENDBRANCH  18  20
ENDBRANCH   1  18
BRANCH   3  23
ATOM     23  C   UNL     1       1.829   2.726  19.886  0.00  0.00    +0.000 C 
BRANCH  23  24
ATOM     24  C   UNL     1       2.201   2.508  21.331  0.00  0.00    +0.000 C 
ATOM     25  O   UNL     1       1.374   2.490  22.228  0.00  0.00    +0.000 OA
BRANCH  24  26
ATOM     26  O   UNL     1       3.515   2.258  21.575  0.00  0.00    +0.000 OA
ATOM     27  H   UNL     1       3.688   1.598  22.271  0.00  0.00    +0.000 HD
ENDBRANCH  24  26
ENDBRANCH  23  24
ENDBRANCH   3  23
TORSDOF 11
ENDMDL
MODEL 3
REMARK VINA RESULT:      -7.3      1.707      3.887
REMARK  Name = 
REMARK  11 active torsions:
REMARK  status: ('A' for Active; 'I' for Inactive)
REMARK    1  A    between atoms: C_2  and  O_3
REMARK    2  A    between atoms: C_2  and  C_4
REMARK    3  A    between atoms: C_4  and  C_5
REMARK    4  A    between atoms: C_7  and  C_8
REMARK    5  A    between atoms: C_8  and  C_9
REMARK    6  A    between atoms: C_9  and  O_11
REMARK    7  A    between atoms: C_13  and  C_14
REMARK    8  A    between atoms: C_17  and  C_18
REMARK    9  A    between atoms: C_19  and  C_20
REMARK   10  A    between atoms: C_20  and  C_21
REMARK   11  A    between atoms: C_21  and  O_22
REMARK                            x       y       z     vdW  Elec       q    Type
REMARK                         _______ _______ _______ _____ _____    ______ ____
ROOT
ATOM      1  C   UNL     1       3.218   3.983  17.538  0.00  0.00    +0.000 A 
ATOM      2  C   UNL     1       4.533   4.134  17.088  0.00  0.00    +0.000 A 
ATOM      3  C   UNL     1       5.127   5.408  17.032  0.00  0.00    +0.000 A 
ATOM      4  C   UNL     1       4.386   6.536  17.375  0.00  0.00    +0.000 A 
ATOM      5  C   UNL     1       3.081   6.400  17.839  0.00  0.00    +0.000 A 
ATOM      6  C   UNL     1       2.503   5.123  17.894  0.00  0.00    +0.000 A 
ENDROOT
BRANCH   5   7
ATOM      7  C   UNL     1       2.378   7.553  18.376  0.00  0.00    +0.000 A 
ATOM      8  C   UNL     1       2.083   8.779  17.810  0.00  0.00    +0.000 A 
ATOM      9  C   UNL     1       1.374   9.624  18.710  0.00  0.00    +0.000 A 
ATOM     10  C   UNL     1       1.177   8.991  19.910  0.00  0.00    +0.000 A 
ATOM     11  S   UNL     1       1.902   7.483  20.016  0.00  0.00    +0.000 S 
BRANCH  10  12
ATOM     12  C   UNL     1       0.474   9.485  21.014  0.00  0.00    +0.000 C 
ATOM     13  C   UNL     1      -0.204   9.918  22.039  0.00  0.00    +0.000 C 
BRANCH  13  14
ATOM     14  C   UNL     1      -0.993  10.423  23.236  0.00  0.00    +0.000 C 
BRANCH  14  15
ATOM     15  C   UNL     1      -1.703  11.729  22.887  0.00  0.00    +0.000 C 
BRANCH  15  16
ATOM     16  O   UNL     1      -0.783  12.722  22.451  0.00  0.00    +0.000 OA
ATOM     17  H   UNL     1      -0.730  12.664  21.478  0.00  0.00    +0.000 HD
ENDBRANCH  15  16
ENDBRANCH  14  15
ENDBRANCH  13  14
ENDBRANCH  10  12
ENDBRANCH   5   7
BRANCH   1  18
ATOM     18  C   UNL     1       2.577   2.632  17.754  0.00  0.00    +0.000 C 
BRANCH  18  20
ATOM     19  O   UNL     1       1.858   2.599  20.054  0.00  0.00    +0.000 OA
ATOM     20  C   UNL     1       1.554   2.564  18.869  0.00  0.00    +0.000 C 
BRANCH  20  21
ATOM     21  O   UNL     1       0.273   2.399  18.471  0.00  0.00    +0.000 OA
ATOM     22  H   UNL     1       0.153   1.739  17.763  0.00  0.00    +0.000 HD
ENDBRANCH  20  21
ENDBRANCH  18  20
ENDBRANCH   1  18
BRANCH   3  23
ATOM     23  C   UNL     1       6.596   5.571  16.734  0.00  0.00    +0.000 C 
BRANCH  23  24
ATOM     24  C   UNL     1       7.518   5.096  17.829  0.00  0.00    +0.000 C 
ATOM     25  O   UNL     1       7.578   5.638  18.921  0.00  0.00    +0.000 OA
BRANCH  24  26
ATOM     26  O   UNL     1       8.235   3.973  17.556  0.00  0.00    +0.000 OA
ATOM     27  H   UNL     1       9.073   4.125  17.083  0.00  0.00    +0.000 HD
ENDBRANCH  24  26
ENDBRANCH  23  24
ENDBRANCH   3  23
TORSDOF 11
ENDMDL
MODEL 4
REMARK VINA RESULT:      -7.3      1.031      3.893
REMARK  Name = 
REMARK  11 active torsions:
REMARK  status: ('A' for Active; 'I' for Inactive)
REMARK    1  A    between atoms: C_2  and  O_3
REMARK    2  A    between atoms: C_2  and  C_4
REMARK    3  A    between atoms: C_4  and  C_5
REMARK    4  A    between atoms: C_7  and  C_8
REMARK    5  A    between atoms: C_8  and  C_9
REMARK    6  A    between atoms: C_9  and  O_11
REMARK    7  A    between atoms: C_13  and  C_14
REMARK    8  A    between atoms: C_17  and  C_18
REMARK    9  A    between atoms: C_19  and  C_20
REMARK   10  A    between atoms: C_20  and  C_21
REMARK   11  A    between atoms: C_21  and  O_22
REMARK                            x       y       z     vdW  Elec       q    Type
REMARK                         _______ _______ _______ _____ _____    ______ ____
ROOT
ATOM      1  C   UNL     1       3.437   3.488  18.291  0.00  0.00    +0.000 A 
ATOM      2  C   UNL     1       4.431   3.536  17.308  0.00  0.00    +0.000 A 
ATOM      3  C   UNL     1       4.754   4.752  16.678  0.00  0.00    +0.000 A 
ATOM      4  C   UNL     1       4.045   5.908  16.994  0.00  0.00    +0.000 A 
ATOM      5  C   UNL     1       3.065   5.879  17.981  0.00  0.00    +0.000 A 
ATOM      6  C   UNL     1       2.755   4.661  18.604  0.00  0.00    +0.000 A 
ENDROOT
BRANCH   5   7
ATOM      7  C   UNL     1       2.462   7.119  18.442  0.00  0.00    +0.000 A 
ATOM      8  C   UNL     1       2.322   8.345  17.820  0.00  0.00    +0.000 A 
ATOM      9  C   UNL     1       1.666   9.293  18.655  0.00  0.00    +0.000 A 
ATOM     10  C   UNL     1       1.350   8.732  19.865  0.00  0.00    +0.000 A 
ATOM     11  S   UNL     1       1.909   7.162  20.058  0.00  0.00    +0.000 S 
BRANCH  10  12
ATOM     12  C   UNL     1       0.654   9.338  20.915  0.00  0.00    +0.000 C 
ATOM     13  C   UNL     1      -0.013   9.874  21.899  0.00  0.00    +0.000 C 
BRANCH  13  14
ATOM     14  C   UNL     1      -0.790  10.498  23.046  0.00  0.00    +0.000 C 
BRANCH  14  15
ATOM     15  C   UNL     1      -1.185  11.931  22.699  0.00  0.00    +0.000 C 
BRANCH  15  16
ATOM     16  O   UNL     1      -0.053  12.707  22.324  0.00  0.00    +0.000 OA
ATOM     17  H   UNL     1       0.263  13.168  23.123  0.00  0.00    +0.000 HD
ENDBRANCH  15  16
ENDBRANCH  14  15
ENDBRANCH  13  14
ENDBRANCH  10  12
ENDBRANCH   5   7
BRANCH   1  18
ATOM     18  C   UNL     1       3.146   2.245  19.099  0.00  0.00    +0.000 C 
BRANCH  18  20
ATOM     19  O   UNL     1       3.465   2.301  21.488  0.00  0.00    +0.000 OA
ATOM     20  C   UNL     1       3.942   2.097  20.379  0.00  0.00    +0.000 C 
BRANCH  20  21
ATOM     21  O   UNL     1       5.248   1.782  20.218  0.00  0.00    +0.000 OA
ATOM     22  H   UNL     1       5.653   1.341  20.988  0.00  0.00    +0.000 HD
ENDBRANCH  20  21
ENDBRANCH  18  20
ENDBRANCH   1  18
BRANCH   3  23
ATOM     23  C   UNL     1       5.945   4.862  15.759  0.00  0.00    +0.000 C 
BRANCH  23  24
ATOM     24  C   UNL     1       7.238   5.227  16.446  0.00  0.00    +0.000 C 
ATOM     25  O   UNL     1       7.606   6.382  16.585  0.00  0.00    +0.000 OA
BRANCH  24  26
ATOM     26  O   UNL     1       7.945   4.191  16.970  0.00  0.00    +0.000 OA
ATOM     27  H   UNL     1       8.276   4.333  17.875  0.00  0.00    +0.000 HD
ENDBRANCH  24  26
ENDBRANCH  23  24
ENDBRANCH   3  23
TORSDOF 11
ENDMDL
MODEL 5
REMARK VINA RESULT:      -7.3      1.075      4.196
REMARK  Name = 
REMARK  11 active torsions:
REMARK  status: ('A' for Active; 'I' for Inactive)
REMARK    1  A    between atoms: C_2  and  O_3
REMARK    2  A    between atoms: C_2  and  C_4
REMARK    3  A    between atoms: C_4  and  C_5
REMARK    4  A    between atoms: C_7  and  C_8
REMARK    5  A    between atoms: C_8  and  C_9
REMARK    6  A    between atoms: C_9  and  O_11
REMARK    7  A    between atoms: C_13  and  C_14
REMARK    8  A    between atoms: C_17  and  C_18
REMARK    9  A    between atoms: C_19  and  C_20
REMARK   10  A    between atoms: C_20  and  C_21
REMARK   11  A    between atoms: C_21  and  O_22
REMARK                            x       y       z     vdW  Elec       q    Type
REMARK                         _______ _______ _______ _____ _____    ______ ____
ROOT
ATOM      1  C   UNL     1       3.456   3.571  19.105  0.00  0.00    +0.000 A 
ATOM      2  C   UNL     1       4.394   3.325  18.097  0.00  0.00    +0.000 A 
ATOM      3  C   UNL     1       4.710   4.324  17.158  0.00  0.00    +0.000 A 
ATOM      4  C   UNL     1       4.048   5.548  17.196  0.00  0.00    +0.000 A 
ATOM      5  C   UNL     1       3.123   5.812  18.201  0.00  0.00    +0.000 A 
ATOM      6  C   UNL     1       2.820   4.809  19.134  0.00  0.00    +0.000 A 
ENDROOT
BRANCH   5   7
ATOM      7  C   UNL     1       2.577   7.150  18.353  0.00  0.00    +0.000 A 
ATOM      8  C   UNL     1       2.648   8.257  17.528  0.00  0.00    +0.000 A 
ATOM      9  C   UNL     1       1.965   9.377  18.080  0.00  0.00    +0.000 A 
ATOM     10  C   UNL     1       1.419   9.056  19.296  0.00  0.00    +0.000 A 
ATOM     11  S   UNL     1       1.793   7.510  19.827  0.00  0.00    +0.000 S 
BRANCH  10  12
ATOM     12  C   UNL     1       0.633   9.881  20.106  0.00  0.00    +0.000 C 
ATOM     13  C   UNL     1      -0.130  10.636  20.847  0.00  0.00    +0.000 C 
BRANCH  13  14
ATOM     14  C   UNL     1      -1.018  11.516  21.710  0.00  0.00    +0.000 C 
BRANCH  14  15
ATOM     15  C   UNL     1      -0.981  11.042  23.161  0.00  0.00    +0.000 C 
BRANCH  15  16
ATOM     16  O   UNL     1      -1.008   9.622  23.247  0.00  0.00    +0.000 OA
ATOM     17  H   UNL     1      -1.484   9.291  22.463  0.00  0.00    +0.000 HD
ENDBRANCH  15  16
ENDBRANCH  14  15
ENDBRANCH  13  14
ENDBRANCH  10  12
ENDBRANCH   5   7
BRANCH   1  18
ATOM     18  C   UNL     1       3.181   2.591  20.222  0.00  0.00    +0.000 C 
BRANCH  18  20
ATOM     19  O   UNL     1       2.143   3.315  22.273  0.00  0.00    +0.000 OA
ATOM     20  C   UNL     1       2.009   2.933  21.117  0.00  0.00    +0.000 C 
BRANCH  20  21
ATOM     21  O   UNL     1       0.786   2.730  20.576  0.00  0.00    +0.000 OA
ATOM     22  H   UNL     1       0.054   2.743  21.221  0.00  0.00    +0.000 HD
ENDBRANCH  20  21
ENDBRANCH  18  20
ENDBRANCH   1  18
BRANCH   3  23
ATOM     23  C   UNL     1       5.851   4.148  16.187  0.00  0.00    +0.000 C 
BRANCH  23  24
ATOM     24  C   UNL     1       7.124   4.859  16.575  0.00  0.00    +0.000 C 
ATOM     25  O   UNL     1       7.876   4.437  17.437  0.00  0.00    +0.000 OA
BRANCH  24  26
ATOM     26  O   UNL     1       7.427   5.971  15.853  0.00  0.00    +0.000 OA
ATOM     27  H   UNL     1       8.289   6.375  16.060  0.00  0.00    +0.000 HD
ENDBRANCH  24  26
ENDBRANCH  23  24
ENDBRANCH   3  23
TORSDOF 11
ENDMDL
MODEL 6
REMARK VINA RESULT:      -7.2      1.285      3.709
REMARK  Name = 
REMARK  11 active torsions:
REMARK  status: ('A' for Active; 'I' for Inactive)
REMARK    1  A    between atoms: C_2  and  O_3
REMARK    2  A    between atoms: C_2  and  C_4
REMARK    3  A    between atoms: C_4  and  C_5
REMARK    4  A    between atoms: C_7  and  C_8
REMARK    5  A    between atoms: C_8  and  C_9
REMARK    6  A    between atoms: C_9  and  O_11
REMARK    7  A    between atoms: C_13  and  C_14
REMARK    8  A    between atoms: C_17  and  C_18
REMARK    9  A    between atoms: C_19  and  C_20
REMARK   10  A    between atoms: C_20  and  C_21
REMARK   11  A    between atoms: C_21  and  O_22
REMARK                            x       y       z     vdW  Elec       q    Type
REMARK                         _______ _______ _______ _____ _____    ______ ____
ROOT
ATOM      1  C   UNL     1       3.272   4.156  18.130  0.00  0.00    +0.000 A 
ATOM      2  C   UNL     1       4.381   4.292  17.287  0.00  0.00    +0.000 A 
ATOM      3  C   UNL     1       4.768   5.560  16.816  0.00  0.00    +0.000 A 
ATOM      4  C   UNL     1       4.014   6.683  17.144  0.00  0.00    +0.000 A 
ATOM      5  C   UNL     1       2.918   6.566  17.993  0.00  0.00    +0.000 A 
ATOM      6  C   UNL     1       2.545   5.296  18.459  0.00  0.00    +0.000 A 
ENDROOT
BRANCH   5   7
ATOM      7  C   UNL     1       2.251   7.759  18.486  0.00  0.00    +0.000 A 
ATOM      8  C   UNL     1       2.041   8.991  17.895  0.00  0.00    +0.000 A 
ATOM      9  C   UNL     1       1.337   9.880  18.753  0.00  0.00    +0.000 A 
ATOM     10  C   UNL     1       1.057   9.274  19.951  0.00  0.00    +0.000 A 
ATOM     11  S   UNL     1       1.702   7.733  20.104  0.00  0.00    +0.000 S 
BRANCH  10  12
ATOM     12  C   UNL     1       0.333   9.816  21.017  0.00  0.00    +0.000 C 
ATOM     13  C   UNL     1      -0.362  10.339  21.988  0.00  0.00    +0.000 C 
BRANCH  13  14
ATOM     14  C   UNL     1      -1.173  10.948  23.120  0.00  0.00    +0.000 C 
BRANCH  14  15
ATOM     15  C   UNL     1      -1.413  12.433  22.859  0.00  0.00    +0.000 C 
BRANCH  15  16
ATOM     16  O   UNL     1      -0.238  13.199  23.094  0.00  0.00    +0.000 OA
ATOM     17  H   UNL     1       0.080  12.979  23.990  0.00  0.00    +0.000 HD
ENDBRANCH  15  16
ENDBRANCH  14  15
ENDBRANCH  13  14
ENDBRANCH  10  12
ENDBRANCH   5   7
BRANCH   1  18
ATOM     18  C   UNL     1       2.895   2.845  18.779  0.00  0.00    +0.000 C 
BRANCH  18  20
ATOM     19  O   UNL     1       4.806   2.260  20.125  0.00  0.00    +0.000 OA
ATOM     20  C   UNL     1       4.055   1.969  19.203  0.00  0.00    +0.000 C 
BRANCH  20  21
ATOM     21  O   UNL     1       4.250   0.861  18.453  0.00  0.00    +0.000 OA
ATOM     22  H   UNL     1       3.778   0.865  17.599  0.00  0.00    +0.000 HD
ENDBRANCH  20  21
ENDBRANCH  18  20
ENDBRANCH   1  18
BRANCH   3  23
ATOM     23  C   UNL     1       6.063   5.751  16.068  0.00  0.00    +0.000 C 
BRANCH  23  24
ATOM     24  C   UNL     1       6.947   4.530  16.016  0.00  0.00    +0.000 C 
ATOM     25  O   UNL     1       7.824   4.316  16.837  0.00  0.00    +0.000 OA
BRANCH  24  26
ATOM     26  O   UNL     1       6.663   3.633  15.034  0.00  0.00    +0.000 OA
ATOM     27  H   UNL     1       7.115   3.794  14.185  0.00  0.00    +0.000 HD
ENDBRANCH  24  26
ENDBRANCH  23  24
ENDBRANCH   3  23
TORSDOF 11
ENDMDL
MODEL 7
REMARK VINA RESULT:      -7.2      2.152      4.358
REMARK  Name = 
REMARK  11 active torsions:
REMARK  status: ('A' for Active; 'I' for Inactive)
REMARK    1  A    between atoms: C_2  and  O_3
REMARK    2  A    between atoms: C_2  and  C_4
REMARK    3  A    between atoms: C_4  and  C_5
REMARK    4  A    between atoms: C_7  and  C_8
REMARK    5  A    between atoms: C_8  and  C_9
REMARK    6  A    between atoms: C_9  and  O_11
REMARK    7  A    between atoms: C_13  and  C_14
REMARK    8  A    between atoms: C_17  and  C_18
REMARK    9  A    between atoms: C_19  and  C_20
REMARK   10  A    between atoms: C_20  and  C_21
REMARK   11  A    between atoms: C_21  and  O_22
REMARK                            x       y       z     vdW  Elec       q    Type
REMARK                         _______ _______ _______ _____ _____    ______ ____
ROOT
ATOM      1  C   UNL     1       3.218   4.190  17.467  0.00  0.00    +0.000 A 
ATOM      2  C   UNL     1       4.442   4.552  16.895  0.00  0.00    +0.000 A 
ATOM      3  C   UNL     1       4.922   5.870  17.012  0.00  0.00    +0.000 A 
ATOM      4  C   UNL     1       4.150   6.836  17.653  0.00  0.00    +0.000 A 
ATOM      5  C   UNL     1       2.938   6.486  18.239  0.00  0.00    +0.000 A 
ATOM      6  C   UNL     1       2.473   5.168  18.119  0.00  0.00    +0.000 A 
ENDROOT
BRANCH   5   7
ATOM      7  C   UNL     1       2.229   7.446  19.069  0.00  0.00    +0.000 A 
ATOM      8  C   UNL     1       1.792   7.365  20.378  0.00  0.00    +0.000 A 
ATOM      9  C   UNL     1       1.129   8.553  20.792  0.00  0.00    +0.000 A 
ATOM     10  C   UNL     1       1.095   9.468  19.771  0.00  0.00    +0.000 A 
ATOM     11  S   UNL     1       1.731   8.902  18.326  0.00  0.00    +0.000 S 
BRANCH  10  12
ATOM     12  C   UNL     1       0.577  10.765  19.822  0.00  0.00    +0.000 C 
ATOM     13  C   UNL     1       0.099  11.975  19.905  0.00  0.00    +0.000 C 
BRANCH  13  14
ATOM     14  C   UNL     1      -0.457  13.386  20.002  0.00  0.00    +0.000 C 
BRANCH  14  15
ATOM     15  C   UNL     1      -0.456  14.050  18.627  0.00  0.00    +0.000 C 
BRANCH  15  16
ATOM     16  O   UNL     1      -0.863  13.142  17.610  0.00  0.00    +0.000 OA
ATOM     17  H   UNL     1      -0.058  12.836  17.152  0.00  0.00    +0.000 HD
ENDBRANCH  15  16
ENDBRANCH  14  15
ENDBRANCH  13  14
ENDBRANCH  10  12
ENDBRANCH   5   7
BRANCH   1  18
ATOM     18  C   UNL     1       2.720   2.763  17.496  0.00  0.00    +0.000 C 
BRANCH  18  20
ATOM     19  O   UNL     1       3.152   2.222  19.804  0.00  0.00    +0.000 OA
ATOM     20  C   UNL     1       3.256   1.908  18.626  0.00  0.00    +0.000 C 
BRANCH  20  21
ATOM     21  O   UNL     1       3.918   0.792  18.246  0.00  0.00    +0.000 OA
ATOM     22  H   UNL     1       3.648   0.441  17.376  0.00  0.00    +0.000 HD
ENDBRANCH  20  21
ENDBRANCH  18  20
ENDBRANCH   1  18
BRANCH   3  23
ATOM     23  C   UNL     1       6.318   6.233  16.573  0.00  0.00    +0.000 C 
BRANCH  23  24
ATOM     24  C   UNL     1       6.996   5.197  15.711  0.00  0.00    +0.000 C 
ATOM     25  O   UNL     1       6.864   5.160  14.499  0.00  0.00    +0.000 OA
BRANCH  24  26
ATOM     26  O   UNL     1       7.830   4.340  16.359  0.00  0.00    +0.000 OA
ATOM     27  H   UNL     1       7.881   4.464  17.324  0.00  0.00    +0.000 HD
ENDBRANCH  24  26
ENDBRANCH  23  24
ENDBRANCH   3  23
TORSDOF 11
ENDMDL
MODEL 8
REMARK VINA RESULT:      -7.2      1.724      4.180
REMARK  Name = 
REMARK  11 active torsions:
REMARK  status: ('A' for Active; 'I' for Inactive)
REMARK    1  A    between atoms: C_2  and  O_3
REMARK    2  A    between atoms: C_2  and  C_4
REMARK    3  A    between atoms: C_4  and  C_5
REMARK    4  A    between atoms: C_7  and  C_8
REMARK    5  A    between atoms: C_8  and  C_9
REMARK    6  A    between atoms: C_9  and  O_11
REMARK    7  A    between atoms: C_13  and  C_14
REMARK    8  A    between atoms: C_17  and  C_18
REMARK    9  A    between atoms: C_19  and  C_20
REMARK   10  A    between atoms: C_20  and  C_21
REMARK   11  A    between atoms: C_21  and  O_22
REMARK                            x       y       z     vdW  Elec       q    Type
REMARK                         _______ _______ _______ _____ _____    ______ ____
ROOT
ATOM      1  C   UNL     1       3.105   3.896  17.640  0.00  0.00    +0.000 A 
ATOM      2  C   UNL     1       4.495   3.970  17.504  0.00  0.00    +0.000 A 
ATOM      3  C   UNL     1       5.163   5.198  17.662  0.00  0.00    +0.000 A 
ATOM      4  C   UNL     1       4.434   6.360  17.902  0.00  0.00    +0.000 A 
ATOM      5  C   UNL     1       3.052   6.299  18.054  0.00  0.00    +0.000 A 
ATOM      6  C   UNL     1       2.399   5.068  17.899  0.00  0.00    +0.000 A 
ENDROOT
BRANCH   5   7
ATOM      7  C   UNL     1       2.318   7.475  18.492  0.00  0.00    +0.000 A 
ATOM      8  C   UNL     1       1.990   8.640  17.825  0.00  0.00    +0.000 A 
ATOM      9  C   UNL     1       1.259   9.538  18.651  0.00  0.00    +0.000 A 
ATOM     10  C   UNL     1       1.078   9.005  19.901  0.00  0.00    +0.000 A 
ATOM     11  S   UNL     1       1.844   7.531  20.133  0.00  0.00    +0.000 S 
BRANCH  10  12
ATOM     12  C   UNL     1       0.362   9.571  20.960  0.00  0.00    +0.000 C 
ATOM     13  C   UNL     1      -0.275  10.111  21.961  0.00  0.00    +0.000 C 
BRANCH  13  14
ATOM     14  C   UNL     1      -1.018  10.741  23.128  0.00  0.00    +0.000 C 
BRANCH  14  15
ATOM     15  C   UNL     1      -1.347  12.200  22.819  0.00  0.00    +0.000 C 
BRANCH  15  16
ATOM     16  O   UNL     1      -2.229  12.311  21.709  0.00  0.00    +0.000 OA
ATOM     17  H   UNL     1      -2.572  11.418  21.517  0.00  0.00    +0.000 HD
ENDBRANCH  15  16
ENDBRANCH  14  15
ENDBRANCH  13  14
ENDBRANCH  10  12
ENDBRANCH   5   7
BRANCH   1  18
ATOM     18  C   UNL     1       2.350   2.587  17.622  0.00  0.00    +0.000 C 
BRANCH  18  20
ATOM     19  O   UNL     1       0.243   2.241  18.738  0.00  0.00    +0.000 OA
ATOM     20  C   UNL     1       1.461   2.329  18.820  0.00  0.00    +0.000 C 
BRANCH  20  21
ATOM     21  O   UNL     1       2.097   2.264  20.012  0.00  0.00    +0.000 OA
ATOM     22  H   UNL     1       2.443   1.379  20.235  0.00  0.00    +0.000 HD
ENDBRANCH  20  21
ENDBRANCH  18  20
ENDBRANCH   1  18
BRANCH   3  23
ATOM     23  C   UNL     1       6.669   5.266  17.709  0.00  0.00    +0.000 C 
BRANCH  23  24
ATOM     24  C   UNL     1       7.289   6.202  16.702  0.00  0.00    +0.000 C 
ATOM     25  O   UNL     1       7.642   7.335  16.986  0.00  0.00    +0.000 OA
BRANCH  24  26
ATOM     26  O   UNL     1       7.501   5.685  15.462  0.00  0.00    +0.000 OA
ATOM     27  H   UNL     1       7.953   6.281  14.838  0.00  0.00    +0.000 HD
ENDBRANCH  24  26
ENDBRANCH  23  24
ENDBRANCH   3  23
TORSDOF 11
ENDMDL
MODEL 9
REMARK VINA RESULT:      -7.2      1.555      3.983
REMARK  Name = 
REMARK  11 active torsions:
REMARK  status: ('A' for Active; 'I' for Inactive)
REMARK    1  A    between atoms: C_2  and  O_3
REMARK    2  A    between atoms: C_2  and  C_4
REMARK    3  A    between atoms: C_4  and  C_5
REMARK    4  A    between atoms: C_7  and  C_8
REMARK    5  A    between atoms: C_8  and  C_9
REMARK    6  A    between atoms: C_9  and  O_11
REMARK    7  A    between atoms: C_13  and  C_14
REMARK    8  A    between atoms: C_17  and  C_18
REMARK    9  A    between atoms: C_19  and  C_20
REMARK   10  A    between atoms: C_20  and  C_21
REMARK   11  A    between atoms: C_21  and  O_22
REMARK                            x       y       z     vdW  Elec       q    Type
REMARK                         _______ _______ _______ _____ _____    ______ ____
ROOT
ATOM      1  C   UNL     1       3.605   4.210  18.034  0.00  0.00    +0.000 A 
ATOM      2  C   UNL     1       4.819   4.448  17.382  0.00  0.00    +0.000 A 
ATOM      3  C   UNL     1       5.206   5.761  17.052  0.00  0.00    +0.000 A 
ATOM      4  C   UNL     1       4.353   6.827  17.327  0.00  0.00    +0.000 A 
ATOM      5  C   UNL     1       3.149   6.605  17.989  0.00  0.00    +0.000 A 
ATOM      6  C   UNL     1       2.777   5.293  18.316  0.00  0.00    +0.000 A 
ENDROOT
BRANCH   5   7
ATOM      7  C   UNL     1       2.353   7.733  18.444  0.00  0.00    +0.000 A 
ATOM      8  C   UNL     1       1.943   8.878  17.786  0.00  0.00    +0.000 A 
ATOM      9  C   UNL     1       1.174   9.729  18.628  0.00  0.00    +0.000 A 
ATOM     10  C   UNL     1       1.048   9.183  19.880  0.00  0.00    +0.000 A 
ATOM     11  S   UNL     1       1.906   7.758  20.093  0.00  0.00    +0.000 S 
BRANCH  10  12
ATOM     12  C   UNL     1       0.319   9.703  20.953  0.00  0.00    +0.000 C 
ATOM     13  C   UNL     1      -0.370  10.217  21.934  0.00  0.00    +0.000 C 
BRANCH  13  14
ATOM     14  C   UNL     1      -1.173  10.814  23.077  0.00  0.00    +0.000 C 
BRANCH  14  15
ATOM     15  C   UNL     1      -2.026  11.976  22.572  0.00  0.00    +0.000 C 
BRANCH  15  16
ATOM     16  O   UNL     1      -2.684  12.643  23.643  0.00  0.00    +0.000 OA
ATOM     17  H   UNL     1      -3.626  12.721  23.404  0.00  0.00    +0.000 HD
ENDBRANCH  15  16
ENDBRANCH  14  15
ENDBRANCH  13  14
ENDBRANCH  10  12
ENDBRANCH   5   7
BRANCH   1  18
ATOM     18  C   UNL     1       3.203   2.843  18.537  0.00  0.00    +0.000 C 
BRANCH  18  20
ATOM     19  O   UNL     1       3.170   2.632  20.938  0.00  0.00    +0.000 OA
ATOM     20  C   UNL     1       3.770   2.451  19.886  0.00  0.00    +0.000 C 
BRANCH  20  21
ATOM     21  O   UNL     1       5.021   1.940  19.864  0.00  0.00    +0.000 OA
ATOM     22  H   UNL     1       5.489   2.060  19.016  0.00  0.00    +0.000 HD
ENDBRANCH  20  21
ENDBRANCH  18  20
ENDBRANCH   1  18
BRANCH   3  23
ATOM     23  C   UNL     1       6.587   6.057  16.525  0.00  0.00    +0.000 C 
BRANCH  23  24
ATOM     24  C   UNL     1       7.429   6.931  17.422  0.00  0.00    +0.000 C 
ATOM     25  O   UNL     1       7.688   8.092  17.154  0.00  0.00    +0.000 OA
BRANCH  24  26
ATOM     26  O   UNL     1       7.830   6.368  18.593  0.00  0.00    +0.000 OA
ATOM     27  H   UNL     1       7.172   5.790  19.020  0.00  0.00    +0.000 HD
ENDBRANCH  24  26
ENDBRANCH  23  24
ENDBRANCH   3  23
TORSDOF 11
ENDMDL
