MODEL 1
REMARK VINA RESULT:      -7.8      0.000      0.000
REMARK  Name = 
REMARK  4 active torsions:
REMARK  status: ('A' for Active; 'I' for Inactive)
REMARK    1  A    between atoms: C_1  and  C_2
REMARK    2  A    between atoms: C_2  and  N_3
REMARK    3  A    between atoms: N_9  and  C_10
REMARK    4  A    between atoms: N_17  and  C_18
REMARK                            x       y       z     vdW  Elec       q    Type
REMARK                         _______ _______ _______ _____ _____    ______ ____
ROOT
ATOM      1  N   UNL     1       0.229  11.015  19.392  0.00  0.00    +0.000 N 
ATOM      2  C   UNL     1       0.911   9.835  19.035  0.00  0.00    +0.000 A 
ATOM      3  O   UNL     1       1.364   9.574  17.917  0.00  0.00    +0.000 OA
ATOM      4  N   UNL     1       0.973   9.010  20.186  0.00  0.00    +0.000 N 
ATOM      5  C   UNL     1       1.448   7.711  20.255  0.00  0.00    +0.000 C 
ATOM      6  O   UNL     1       1.037   6.875  21.060  0.00  0.00    +0.000 OA
ATOM      7  N   UNL     1       2.453   7.411  19.344  0.00  0.00    +0.000 N 
ATOM      8  C   UNL     1       0.279   9.683  21.222  0.00  0.00    +0.000 A 
ATOM      9  C   UNL     1       0.033   9.305  22.531  0.00  0.00    +0.000 A 
ATOM     10  C   UNL     1      -0.647  10.207  23.356  0.00  0.00    +0.000 A 
ATOM     11  C   UNL     1      -1.066  11.458  22.865  0.00  0.00    +0.000 A 
ATOM     12  C   UNL     1      -0.827  11.825  21.536  0.00  0.00    +0.000 A 
ATOM     13  C   UNL     1      -0.152  10.921  20.737  0.00  0.00    +0.000 A 
ATOM     14  H   UNL     1       2.432   7.944  18.479  0.00  0.00    +0.000 HD
ENDROOT
BRANCH   7  15
ATOM     15  C   UNL     1       3.045   6.082  19.318  0.00  0.00    +0.000 C 
ATOM     16  C   UNL     1       2.221   5.074  18.480  0.00  0.00    +0.000 C 
ATOM     17  C   UNL     1       3.015   3.760  18.221  0.00  0.00    +0.000 C 
ATOM     18  C   UNL     1       3.921   3.771  16.966  0.00  0.00    +0.000 C 
ATOM     19  C   UNL     1       5.329   4.114  17.473  0.00  0.00    +0.000 C 
ATOM     20  C   UNL     1       5.043   4.598  18.887  0.00  0.00    +0.000 C 
ATOM     21  C   UNL     1       4.477   6.055  18.785  0.00  0.00    +0.000 C 
ATOM     22  N   UNL     1       3.977   3.658  19.328  0.00  0.00    +0.000 NA
ATOM     23  C   UNL     1       4.406   2.279  19.557  0.00  0.00    +0.000 C 
ENDBRANCH   7  15
BRANCH   1  25
ATOM     24  C   UNL     1      -1.561  11.820  17.915  0.00  0.00    +0.000 C 
ATOM     25  C   UNL     1      -0.154  12.038  18.454  0.00  0.00    +0.000 C 
ENDBRANCH   1  25
TORSDOF 2
ENDMDL
MODEL 2
REMARK VINA RESULT:      -7.6      1.720      7.527
REMARK  Name = 
REMARK  4 active torsions:
REMARK  status: ('A' for Active; 'I' for Inactive)
REMARK    1  A    between atoms: C_1  and  C_2
REMARK    2  A    between atoms: C_2  and  N_3
REMARK    3  A    between atoms: N_9  and  C_10
REMARK    4  A    between atoms: N_17  and  C_18
REMARK                            x       y       z     vdW  Elec       q    Type
REMARK                         _______ _______ _______ _____ _____    ______ ____
ROOT
ATOM      1  N   UNL     1       3.626   5.256  17.941  0.00  0.00    +0.000 N 
ATOM      2  C   UNL     1       3.244   6.595  18.158  0.00  0.00    +0.000 A 
ATOM      3  O   UNL     1       3.656   7.573  17.529  0.00  0.00    +0.000 OA
ATOM      4  N   UNL     1       2.311   6.608  19.225  0.00  0.00    +0.000 N 
ATOM      5  C   UNL     1       1.770   7.722  19.845  0.00  0.00    +0.000 C 
ATOM      6  O   UNL     1       1.414   7.742  21.024  0.00  0.00    +0.000 OA
ATOM      7  N   UNL     1       1.641   8.837  19.026  0.00  0.00    +0.000 N 
ATOM      8  C   UNL     1       2.175   5.273  19.679  0.00  0.00    +0.000 A 
ATOM      9  C   UNL     1       1.408   4.746  20.705  0.00  0.00    +0.000 A 
ATOM     10  C   UNL     1       1.434   3.361  20.897  0.00  0.00    +0.000 A 
ATOM     11  C   UNL     1       2.219   2.533  20.073  0.00  0.00    +0.000 A 
ATOM     12  C   UNL     1       3.004   3.075  19.050  0.00  0.00    +0.000 A 
ATOM     13  C   UNL     1       2.963   4.447  18.873  0.00  0.00    +0.000 A 
ATOM     14  H   UNL     1       2.313   8.901  18.267  0.00  0.00    +0.000 HD
ENDROOT
BRANCH   7  15
ATOM     15  C   UNL     1       1.078  10.070  19.553  0.00  0.00    +0.000 C 
ATOM     16  C   UNL     1       1.525  11.322  18.760  0.00  0.00    +0.000 C 
ATOM     17  C   UNL     1       0.688  12.576  19.146  0.00  0.00    +0.000 C 
ATOM     18  C   UNL     1      -0.620  12.771  18.342  0.00  0.00    +0.000 C 
ATOM     19  C   UNL     1      -1.737  12.183  19.218  0.00  0.00    +0.000 C 
ATOM     20  C   UNL     1      -0.942  11.412  20.262  0.00  0.00    +0.000 C 
ATOM     21  C   UNL     1      -0.450  10.082  19.597  0.00  0.00    +0.000 C 
ATOM     22  N   UNL     1       0.209  12.322  20.512  0.00  0.00    +0.000 NA
ATOM     23  C   UNL     1      -0.109  13.560  21.222  0.00  0.00    +0.000 C 
ENDBRANCH   7  15
BRANCH   1  25
ATOM     24  C   UNL     1       6.032   4.826  17.700  0.00  0.00    +0.000 C 
ATOM     25  C   UNL     1       4.665   4.853  17.030  0.00  0.00    +0.000 C 
ENDBRANCH   1  25
TORSDOF 2
ENDMDL
MODEL 3
REMARK VINA RESULT:      -7.6      1.571      7.934
REMARK  Name = 
REMARK  4 active torsions:
REMARK  status: ('A' for Active; 'I' for Inactive)
REMARK    1  A    between atoms: C_1  and  C_2
REMARK    2  A    between atoms: C_2  and  N_3
REMARK    3  A    between atoms: N_9  and  C_10
REMARK    4  A    between atoms: N_17  and  C_18
REMARK                            x       y       z     vdW  Elec       q    Type
REMARK                         _______ _______ _______ _____ _____    ______ ____
ROOT
ATOM      1  N   UNL     1       2.923   4.840  19.708  0.00  0.00    +0.000 N 
ATOM      2  C   UNL     1       2.219   6.052  19.844  0.00  0.00    +0.000 A 
ATOM      3  O   UNL     1       1.354   6.293  20.690  0.00  0.00    +0.000 OA
ATOM      4  N   UNL     1       2.681   6.933  18.834  0.00  0.00    +0.000 N 
ATOM      5  C   UNL     1       2.177   8.186  18.526  0.00  0.00    +0.000 C 
ATOM      6  O   UNL     1       2.213   8.679  17.398  0.00  0.00    +0.000 OA
ATOM      7  N   UNL     1       1.626   8.870  19.602  0.00  0.00    +0.000 N 
ATOM      8  C   UNL     1       3.631   6.221  18.060  0.00  0.00    +0.000 A 
ATOM      9  C   UNL     1       4.361   6.613  16.951  0.00  0.00    +0.000 A 
ATOM     10  C   UNL     1       5.277   5.702  16.414  0.00  0.00    +0.000 A 
ATOM     11  C   UNL     1       5.445   4.427  16.988  0.00  0.00    +0.000 A 
ATOM     12  C   UNL     1       4.691   4.034  18.098  0.00  0.00    +0.000 A 
ATOM     13  C   UNL     1       3.793   4.949  18.615  0.00  0.00    +0.000 A 
ATOM     14  H   UNL     1       1.239   8.287  20.339  0.00  0.00    +0.000 HD
ENDROOT
BRANCH   7  15
ATOM     15  C   UNL     1       1.070  10.201  19.415  0.00  0.00    +0.000 C 
ATOM     16  C   UNL     1      -0.383  10.175  18.879  0.00  0.00    +0.000 C 
ATOM     17  C   UNL     1      -1.054  11.577  18.970  0.00  0.00    +0.000 C 
ATOM     18  C   UNL     1      -1.758  11.887  20.313  0.00  0.00    +0.000 C 
ATOM     19  C   UNL     1      -0.747  12.699  21.135  0.00  0.00    +0.000 C 
ATOM     20  C   UNL     1       0.538  12.489  20.347  0.00  0.00    +0.000 C 
ATOM     21  C   UNL     1       1.071  11.055  20.683  0.00  0.00    +0.000 C 
ATOM     22  N   UNL     1       0.053  12.544  18.941  0.00  0.00    +0.000 NA
ATOM     23  C   UNL     1      -0.380  13.860  18.474  0.00  0.00    +0.000 C 
ENDBRANCH   7  15
BRANCH   1  25
ATOM     24  C   UNL     1       1.413   2.914  19.927  0.00  0.00    +0.000 C 
ATOM     25  C   UNL     1       2.631   3.651  20.466  0.00  0.00    +0.000 C 
ENDBRANCH   1  25
TORSDOF 2
ENDMDL
MODEL 4
REMARK VINA RESULT:      -7.3      1.717      8.117
REMARK  Name = 
REMARK  4 active torsions:
REMARK  status: ('A' for Active; 'I' for Inactive)
REMARK    1  A    between atoms: C_1  and  C_2
REMARK    2  A    between atoms: C_2  and  N_3
REMARK    3  A    between atoms: N_9  and  C_10
REMARK    4  A    between atoms: N_17  and  C_18
REMARK                            x       y       z     vdW  Elec       q    Type
REMARK                         _______ _______ _______ _____ _____    ______ ____
ROOT
ATOM      1  N   UNL     1       3.268   3.750  17.592  0.00  0.00    +0.000 N 
ATOM      2  C   UNL     1       2.609   4.883  18.109  0.00  0.00    +0.000 A 
ATOM      3  O   UNL     1       1.568   4.872  18.770  0.00  0.00    +0.000 OA
ATOM      4  N   UNL     1       3.356   6.026  17.727  0.00  0.00    +0.000 N 
ATOM      5  C   UNL     1       3.006   7.352  17.919  0.00  0.00    +0.000 C 
ATOM      6  O   UNL     1       3.354   8.266  17.171  0.00  0.00    +0.000 OA
ATOM      7  N   UNL     1       2.229   7.590  19.046  0.00  0.00    +0.000 N 
ATOM      8  C   UNL     1       4.439   5.573  16.934  0.00  0.00    +0.000 A 
ATOM      9  C   UNL     1       5.447   6.281  16.301  0.00  0.00    +0.000 A 
ATOM     10  C   UNL     1       6.428   5.554  15.617  0.00  0.00    +0.000 A 
ATOM     11  C   UNL     1       6.384   4.148  15.575  0.00  0.00    +0.000 A 
ATOM     12  C   UNL     1       5.353   3.442  16.202  0.00  0.00    +0.000 A 
ATOM     13  C   UNL     1       4.394   4.177  16.876  0.00  0.00    +0.000 A 
ATOM     14  H   UNL     1       1.639   6.816  19.342  0.00  0.00    +0.000 HD
ENDROOT
BRANCH   7  15
ATOM     15  C   UNL     1       1.801   8.943  19.367  0.00  0.00    +0.000 C 
ATOM     16  C   UNL     1       0.862   9.547  18.295  0.00  0.00    +0.000 C 
ATOM     17  C   UNL     1       0.186  10.856  18.795  0.00  0.00    +0.000 C 
ATOM     18  C   UNL     1      -1.139  10.662  19.571  0.00  0.00    +0.000 C 
ATOM     19  C   UNL     1      -0.759  10.698  21.059  0.00  0.00    +0.000 C 
ATOM     20  C   UNL     1       0.756  10.565  20.998  0.00  0.00    +0.000 C 
ATOM     21  C   UNL     1       1.088   9.061  20.715  0.00  0.00    +0.000 C 
ATOM     22  N   UNL     1       1.094  11.402  19.814  0.00  0.00    +0.000 NA
ATOM     23  C   UNL     1       0.921  12.843  19.990  0.00  0.00    +0.000 C 
ENDBRANCH   7  15
BRANCH   1  25
ATOM     24  C   UNL     1       3.511   1.534  18.624  0.00  0.00    +0.000 C 
ATOM     25  C   UNL     1       2.737   2.413  17.652  0.00  0.00    +0.000 C 
ENDBRANCH   1  25
TORSDOF 2
ENDMDL
MODEL 5
REMARK VINA RESULT:      -7.1      1.279      3.170
REMARK  Name = 
REMARK  4 active torsions:
REMARK  status: ('A' for Active; 'I' for Inactive)
REMARK    1  A    between atoms: C_1  and  C_2
REMARK    2  A    between atoms: C_2  and  N_3
REMARK    3  A    between atoms: N_9  and  C_10
REMARK    4  A    between atoms: N_17  and  C_18
REMARK                            x       y       z     vdW  Elec       q    Type
REMARK                         _______ _______ _______ _____ _____    ______ ____
ROOT
ATOM      1  N   UNL     1      -0.063  10.384  21.021  0.00  0.00    +0.000 N 
ATOM      2  C   UNL     1       0.920   9.429  20.697  0.00  0.00    +0.000 A 
ATOM      3  O   UNL     1       1.728   8.930  21.485  0.00  0.00    +0.000 OA
ATOM      4  N   UNL     1       0.813   9.155  19.310  0.00  0.00    +0.000 N 
ATOM      5  C   UNL     1       1.660   8.367  18.548  0.00  0.00    +0.000 C 
ATOM      6  O   UNL     1       1.870   8.551  17.349  0.00  0.00    +0.000 OA
ATOM      7  N   UNL     1       2.262   7.324  19.241  0.00  0.00    +0.000 N 
ATOM      8  C   UNL     1      -0.208   9.991  18.796  0.00  0.00    +0.000 A 
ATOM      9  C   UNL     1      -0.692  10.129  17.505  0.00  0.00    +0.000 A 
ATOM     10  C   UNL     1      -1.758  11.010  17.296  0.00  0.00    +0.000 A 
ATOM     11  C   UNL     1      -2.316  11.733  18.367  0.00  0.00    +0.000 A 
ATOM     12  C   UNL     1      -1.810  11.601  19.664  0.00  0.00    +0.000 A 
ATOM     13  C   UNL     1      -0.758  10.723  19.852  0.00  0.00    +0.000 A 
ATOM     14  H   UNL     1       2.403   7.483  20.235  0.00  0.00    +0.000 HD
ENDROOT
BRANCH   7  15
ATOM     15  C   UNL     1       3.167   6.416  18.554  0.00  0.00    +0.000 C 
ATOM     16  C   UNL     1       4.292   5.879  19.474  0.00  0.00    +0.000 C 
ATOM     17  C   UNL     1       5.058   4.697  18.813  0.00  0.00    +0.000 C 
ATOM     18  C   UNL     1       4.451   3.295  19.058  0.00  0.00    +0.000 C 
ATOM     19  C   UNL     1       3.602   2.986  17.816  0.00  0.00    +0.000 C 
ATOM     20  C   UNL     1       3.523   4.350  17.144  0.00  0.00    +0.000 C 
ATOM     21  C   UNL     1       2.473   5.205  17.931  0.00  0.00    +0.000 C 
ATOM     22  N   UNL     1       4.895   4.884  17.364  0.00  0.00    +0.000 NA
ATOM     23  C   UNL     1       5.957   4.229  16.602  0.00  0.00    +0.000 C 
ENDBRANCH   7  15
BRANCH   1  25
ATOM     24  C   UNL     1      -0.939  10.156  23.305  0.00  0.00    +0.000 C 
ATOM     25  C   UNL     1      -0.176  11.018  22.308  0.00  0.00    +0.000 C 
ENDBRANCH   1  25
TORSDOF 2
ENDMDL
MODEL 6
REMARK VINA RESULT:      -7.1      1.424      7.967
REMARK  Name = 
REMARK  4 active torsions:
REMARK  status: ('A' for Active; 'I' for Inactive)
REMARK    1  A    between atoms: C_1  and  C_2
REMARK    2  A    between atoms: C_2  and  N_3
REMARK    3  A    between atoms: N_9  and  C_10
REMARK    4  A    between atoms: N_17  and  C_18
REMARK                            x       y       z     vdW  Elec       q    Type
REMARK                         _______ _______ _______ _____ _____    ______ ____
ROOT
ATOM      1  N   UNL     1       3.442   4.670  19.307  0.00  0.00    +0.000 N 
ATOM      2  C   UNL     1       2.582   5.755  19.565  0.00  0.00    +0.000 A 
ATOM      3  O   UNL     1       1.718   5.798  20.445  0.00  0.00    +0.000 OA
ATOM      4  N   UNL     1       2.887   6.777  18.630  0.00  0.00    +0.000 N 
ATOM      5  C   UNL     1       2.206   7.969  18.446  0.00  0.00    +0.000 C 
ATOM      6  O   UNL     1       2.140   8.558  17.367  0.00  0.00    +0.000 OA
ATOM      7  N   UNL     1       1.599   8.473  19.589  0.00  0.00    +0.000 N 
ATOM      8  C   UNL     1       3.902   6.275  17.778  0.00  0.00    +0.000 A 
ATOM      9  C   UNL     1       4.537   6.861  16.696  0.00  0.00    +0.000 A 
ATOM     10  C   UNL     1       5.554   6.137  16.063  0.00  0.00    +0.000 A 
ATOM     11  C   UNL     1       5.914   4.854  16.515  0.00  0.00    +0.000 A 
ATOM     12  C   UNL     1       5.255   4.263  17.599  0.00  0.00    +0.000 A 
ATOM     13  C   UNL     1       4.255   4.995  18.213  0.00  0.00    +0.000 A 
ATOM     14  H   UNL     1       1.320   7.779  20.278  0.00  0.00    +0.000 HD
ENDROOT
BRANCH   7  15
ATOM     15  C   UNL     1       0.859   9.724  19.534  0.00  0.00    +0.000 C 
ATOM     16  C   UNL     1      -0.317   9.772  20.540  0.00  0.00    +0.000 C 
ATOM     17  C   UNL     1      -0.899  11.209  20.674  0.00  0.00    +0.000 C 
ATOM     18  C   UNL     1      -0.209  12.107  21.730  0.00  0.00    +0.000 C 
ATOM     19  C   UNL     1       0.802  12.962  20.952  0.00  0.00    +0.000 C 
ATOM     20  C   UNL     1       0.845  12.249  19.608  0.00  0.00    +0.000 C 
ATOM     21  C   UNL     1       1.721  10.962  19.781  0.00  0.00    +0.000 C 
ATOM     22  N   UNL     1      -0.583  11.880  19.406  0.00  0.00    +0.000 NA
ATOM     23  C   UNL     1      -1.490  12.994  19.132  0.00  0.00    +0.000 C 
ENDBRANCH   7  15
BRANCH   1  25
ATOM     24  C   UNL     1       2.356   2.467  19.257  0.00  0.00    +0.000 C 
ATOM     25  C   UNL     1       3.341   3.391  19.960  0.00  0.00    +0.000 C 
ENDBRANCH   1  25
TORSDOF 2
ENDMDL
MODEL 7
REMARK VINA RESULT:      -7.0      1.167      1.837
REMARK  Name = 
REMARK  4 active torsions:
REMARK  status: ('A' for Active; 'I' for Inactive)
REMARK    1  A    between atoms: C_1  and  C_2
REMARK    2  A    between atoms: C_2  and  N_3
REMARK    3  A    between atoms: N_9  and  C_10
REMARK    4  A    between atoms: N_17  and  C_18
REMARK                            x       y       z     vdW  Elec       q    Type
REMARK                         _______ _______ _______ _____ _____    ______ ____
ROOT
ATOM      1  N   UNL     1       0.817  11.188  19.564  0.00  0.00    +0.000 N 
ATOM      2  C   UNL     1       1.348   9.931  19.215  0.00  0.00    +0.000 A 
ATOM      3  O   UNL     1       1.940   9.664  18.166  0.00  0.00    +0.000 OA
ATOM      4  N   UNL     1       1.073   9.037  20.280  0.00  0.00    +0.000 N 
ATOM      5  C   UNL     1       1.309   7.673  20.306  0.00  0.00    +0.000 C 
ATOM      6  O   UNL     1       0.632   6.874  20.953  0.00  0.00    +0.000 OA
ATOM      7  N   UNL     1       2.395   7.258  19.545  0.00  0.00    +0.000 N 
ATOM      8  C   UNL     1       0.328   9.756  21.248  0.00  0.00    +0.000 A 
ATOM      9  C   UNL     1      -0.203   9.346  22.459  0.00  0.00    +0.000 A 
ATOM     10  C   UNL     1      -0.859  10.300  23.243  0.00  0.00    +0.000 A 
ATOM     11  C   UNL     1      -0.976  11.634  22.808  0.00  0.00    +0.000 A 
ATOM     12  C   UNL     1      -0.452  12.035  21.575  0.00  0.00    +0.000 A 
ATOM     13  C   UNL     1       0.196  11.078  20.815  0.00  0.00    +0.000 A 
ATOM     14  H   UNL     1       2.613   7.840  18.740  0.00  0.00    +0.000 HD
ENDROOT
BRANCH   7  15
ATOM     15  C   UNL     1       2.757   5.850  19.494  0.00  0.00    +0.000 C 
ATOM     16  C   UNL     1       2.433   5.098  20.808  0.00  0.00    +0.000 C 
ATOM     17  C   UNL     1       2.546   3.556  20.630  0.00  0.00    +0.000 C 
ATOM     18  C   UNL     1       1.261   2.850  20.134  0.00  0.00    +0.000 C 
ATOM     19  C   UNL     1       1.433   2.691  18.616  0.00  0.00    +0.000 C 
ATOM     20  C   UNL     1       2.616   3.607  18.338  0.00  0.00    +0.000 C 
ATOM     21  C   UNL     1       2.088   5.082  18.353  0.00  0.00    +0.000 C 
ATOM     22  N   UNL     1       3.488   3.357  19.519  0.00  0.00    +0.000 NA
ATOM     23  C   UNL     1       4.124   2.042  19.565  0.00  0.00    +0.000 C 
ENDBRANCH   7  15
BRANCH   1  25
ATOM     24  C   UNL     1       2.059  13.136  18.728  0.00  0.00    +0.000 C 
ATOM     25  C   UNL     1       0.776  12.319  18.674  0.00  0.00    +0.000 C 
ENDBRANCH   1  25
TORSDOF 2
ENDMDL
MODEL 8
REMARK VINA RESULT:      -7.0      1.698      7.579
REMARK  Name = 
REMARK  4 active torsions:
REMARK  status: ('A' for Active; 'I' for Inactive)
REMARK    1  A    between atoms: C_1  and  C_2
REMARK    2  A    between atoms: C_2  and  N_3
REMARK    3  A    between atoms: N_9  and  C_10
REMARK    4  A    between atoms: N_17  and  C_18
REMARK                            x       y       z     vdW  Elec       q    Type
REMARK                         _______ _______ _______ _____ _____    ______ ____
ROOT
ATOM      1  N   UNL     1       3.587   6.347  17.906  0.00  0.00    +0.000 N 
ATOM      2  C   UNL     1       2.947   7.536  18.307  0.00  0.00    +0.000 A 
ATOM      3  O   UNL     1       3.034   8.628  17.740  0.00  0.00    +0.000 OA
ATOM      4  N   UNL     1       2.197   7.247  19.475  0.00  0.00    +0.000 N 
ATOM      5  C   UNL     1       1.511   8.151  20.270  0.00  0.00    +0.000 C 
ATOM      6  O   UNL     1       1.331   7.999  21.478  0.00  0.00    +0.000 OA
ATOM      7  N   UNL     1       1.018   9.260  19.594  0.00  0.00    +0.000 N 
ATOM      8  C   UNL     1       2.433   5.888  19.799  0.00  0.00    +0.000 A 
ATOM      9  C   UNL     1       1.958   5.120  20.849  0.00  0.00    +0.000 A 
ATOM     10  C   UNL     1       2.324   3.770  20.890  0.00  0.00    +0.000 A 
ATOM     11  C   UNL     1       3.151   3.217  19.894  0.00  0.00    +0.000 A 
ATOM     12  C   UNL     1       3.640   4.005  18.847  0.00  0.00    +0.000 A 
ATOM     13  C   UNL     1       3.264   5.336  18.822  0.00  0.00    +0.000 A 
ATOM     14  H   UNL     1       1.544   9.539  18.770  0.00  0.00    +0.000 HD
ENDROOT
BRANCH   7  15
ATOM     15  C   UNL     1       0.271  10.281  20.312  0.00  0.00    +0.000 C 
ATOM     16  C   UNL     1       1.158  11.468  20.765  0.00  0.00    +0.000 C 
ATOM     17  C   UNL     1       0.301  12.669  21.258  0.00  0.00    +0.000 C 
ATOM     18  C   UNL     1      -0.137  13.666  20.157  0.00  0.00    +0.000 C 
ATOM     19  C   UNL     1      -1.564  13.254  19.767  0.00  0.00    +0.000 C 
ATOM     20  C   UNL     1      -1.681  11.881  20.415  0.00  0.00    +0.000 C 
ATOM     21  C   UNL     1      -0.897  10.865  19.518  0.00  0.00    +0.000 C 
ATOM     22  N   UNL     1      -0.972  12.086  21.707  0.00  0.00    +0.000 NA
ATOM     23  C   UNL     1      -1.657  12.941  22.675  0.00  0.00    +0.000 C 
ENDBRANCH   7  15
BRANCH   1  25
ATOM     24  C   UNL     1       5.950   6.649  17.306  0.00  0.00    +0.000 C 
ATOM     25  C   UNL     1       4.551   6.272  16.840  0.00  0.00    +0.000 C 
ENDBRANCH   1  25
TORSDOF 2
ENDMDL
MODEL 9
REMARK VINA RESULT:      -7.0      1.550      2.034
REMARK  Name = 
REMARK  4 active torsions:
REMARK  status: ('A' for Active; 'I' for Inactive)
REMARK    1  A    between atoms: C_1  and  C_2
REMARK    2  A    between atoms: C_2  and  N_3
REMARK    3  A    between atoms: N_9  and  C_10
REMARK    4  A    between atoms: N_17  and  C_18
REMARK                            x       y       z     vdW  Elec       q    Type
REMARK                         _______ _______ _______ _____ _____    ______ ____
ROOT
ATOM      1  N   UNL     1       0.669  11.030  19.236  0.00  0.00    +0.000 N 
ATOM      2  C   UNL     1       1.439  10.096  18.515  0.00  0.00    +0.000 A 
ATOM      3  O   UNL     1       1.861  10.243  17.365  0.00  0.00    +0.000 OA
ATOM      4  N   UNL     1       1.632   8.964  19.346  0.00  0.00    +0.000 N 
ATOM      5  C   UNL     1       2.228   7.764  18.996  0.00  0.00    +0.000 C 
ATOM      6  O   UNL     1       1.933   6.681  19.503  0.00  0.00    +0.000 OA
ATOM      7  N   UNL     1       3.212   7.868  18.021  0.00  0.00    +0.000 N 
ATOM      8  C   UNL     1       0.928   9.206  20.553  0.00  0.00    +0.000 A 
ATOM      9  C   UNL     1       0.780   8.416  21.680  0.00  0.00    +0.000 A 
ATOM     10  C   UNL     1       0.059   8.941  22.758  0.00  0.00    +0.000 A 
ATOM     11  C   UNL     1      -0.496  10.233  22.692  0.00  0.00    +0.000 A 
ATOM     12  C   UNL     1      -0.356  11.018  21.543  0.00  0.00    +0.000 A 
ATOM     13  C   UNL     1       0.362  10.482  20.489  0.00  0.00    +0.000 A 
ATOM     14  H   UNL     1       3.100   8.639  17.368  0.00  0.00    +0.000 HD
ENDROOT
BRANCH   7  15
ATOM     15  C   UNL     1       3.922   6.681  17.569  0.00  0.00    +0.000 C 
ATOM     16  C   UNL     1       4.805   6.946  16.325  0.00  0.00    +0.000 C 
ATOM     17  C   UNL     1       5.772   5.760  16.044  0.00  0.00    +0.000 C 
ATOM     18  C   UNL     1       7.130   5.825  16.784  0.00  0.00    +0.000 C 
ATOM     19  C   UNL     1       6.967   4.945  18.032  0.00  0.00    +0.000 C 
ATOM     20  C   UNL     1       5.459   4.741  18.075  0.00  0.00    +0.000 C 
ATOM     21  C   UNL     1       4.818   6.055  18.637  0.00  0.00    +0.000 C 
ATOM     22  N   UNL     1       5.126   4.579  16.633  0.00  0.00    +0.000 NA
ATOM     23  C   UNL     1       5.585   3.336  16.016  0.00  0.00    +0.000 C 
ENDBRANCH   7  15
BRANCH   1  25
ATOM     24  C   UNL     1      -1.257  12.067  18.118  0.00  0.00    +0.000 C 
ATOM     25  C   UNL     1       0.149  12.248  18.674  0.00  0.00    +0.000 C 
ENDBRANCH   1  25
TORSDOF 2
ENDMDL
