MODEL 1
REMARK VINA RESULT:      -8.4      0.000      0.000
REMARK  Name = 
REMARK  6 active torsions:
REMARK  status: ('A' for Active; 'I' for Inactive)
REMARK    1  A    between atoms: C_1  and  C_2
REMARK    2  A    between atoms: N_14  and  C_15
REMARK    3  A    between atoms: C_15  and  C_16
REMARK    4  A    between atoms: N_18  and  C_19
REMARK    5  A    between atoms: C_19  and  C_20
REMARK    6  A    between atoms: C_20  and  C_21
REMARK                            x       y       z     vdW  Elec       q    Type
REMARK                         _______ _______ _______ _____ _____    ______ ____
ROOT
ATOM      1  C   UNL     1       5.246   7.689  17.251  0.00  0.00    +0.000 C 
ATOM      2  C   UNL     1       4.941   6.249  16.980  0.00  0.00    +0.000 A 
ATOM      3  C   UNL     1       5.680   5.614  16.045  0.00  0.00    +0.000 A 
ATOM      4  C   UNL     1       5.462   4.179  15.718  0.00  0.00    +0.000 A 
ATOM      5  O   UNL     1       6.170   3.653  14.865  0.00  0.00    +0.000 OA
ATOM      6  N   UNL     1       4.470   3.510  16.392  0.00  0.00    +0.000 NA
ATOM      7  C   UNL     1       3.802   4.186  17.265  0.00  0.00    +0.000 A 
ATOM      8  C   UNL     1       2.697   3.599  18.022  0.00  0.00    +0.000 A 
ATOM      9  C   UNL     1       2.217   2.310  18.033  0.00  0.00    +0.000 A 
ATOM     10  C   UNL     1       1.178   2.037  18.915  0.00  0.00    +0.000 A 
ATOM     11  C   UNL     1       0.676   3.051  19.754  0.00  0.00    +0.000 A 
ATOM     12  C   UNL     1       1.187   4.358  19.707  0.00  0.00    +0.000 A 
ATOM     13  C   UNL     1       2.203   4.646  18.818  0.00  0.00    +0.000 A 
ATOM     14  N   UNL     1       2.891   5.840  18.537  0.00  0.00    +0.000 N 
ATOM     15  N   UNL     1       3.953   5.528  17.656  0.00  0.00    +0.000 N 
ENDROOT
BRANCH  14  16
ATOM     16  C   UNL     1       2.753   6.984  19.432  0.00  0.00    +0.000 C 
BRANCH  16  17
ATOM     17  C   UNL     1       1.964   8.128  18.750  0.00  0.00    +0.000 C 
ATOM     18  O   UNL     1       1.850   8.163  17.527  0.00  0.00    +0.000 OA
ATOM     19  N   UNL     1       1.394   9.116  19.558  0.00  0.00    +0.000 N 
ATOM     20  H   UNL     1       1.692   9.212  20.518  0.00  0.00    +0.000 HD
BRANCH  19  21
ATOM     21  C   UNL     1       0.720  10.246  18.910  0.00  0.00    +0.000 C 
BRANCH  21  22
ATOM     22  C   UNL     1      -0.699  10.578  19.417  0.00  0.00    +0.000 C 
BRANCH  22  23
ATOM     23  C   UNL     1      -1.750  10.600  18.302  0.00  0.00    +0.000 C 
ATOM     24  C   UNL     1      -1.638   9.834  17.199  0.00  0.00    +0.000 C 
ATOM     25  C   UNL     1      -2.619   9.841  16.055  0.00  0.00    +0.000 C 
ATOM     26  C   UNL     1      -3.571  11.037  16.085  0.00  0.00    +0.000 C 
ATOM     27  C   UNL     1      -4.093  11.270  17.496  0.00  0.00    +0.000 C 
ATOM     28  C   UNL     1      -2.948  11.511  18.489  0.00  0.00    +0.000 C 
ENDBRANCH  22  23
ENDBRANCH  21  22
ENDBRANCH  19  21
ENDBRANCH  16  17
ENDBRANCH  14  16
TORSDOF 5
ENDMDL
MODEL 2
REMARK VINA RESULT:      -7.9      3.224      4.751
REMARK  Name = 
REMARK  6 active torsions:
REMARK  status: ('A' for Active; 'I' for Inactive)
REMARK    1  A    between atoms: C_1  and  C_2
REMARK    2  A    between atoms: N_14  and  C_15
REMARK    3  A    between atoms: C_15  and  C_16
REMARK    4  A    between atoms: N_18  and  C_19
REMARK    5  A    between atoms: C_19  and  C_20
REMARK    6  A    between atoms: C_20  and  C_21
REMARK                            x       y       z     vdW  Elec       q    Type
REMARK                         _______ _______ _______ _____ _____    ______ ____
ROOT
ATOM      1  C   UNL     1       1.125   4.147  20.427  0.00  0.00    +0.000 C 
ATOM      2  C   UNL     1       2.569   3.817  20.205  0.00  0.00    +0.000 A 
ATOM      3  C   UNL     1       3.066   2.724  20.821  0.00  0.00    +0.000 A 
ATOM      4  C   UNL     1       4.483   2.306  20.649  0.00  0.00    +0.000 A 
ATOM      5  O   UNL     1       4.878   1.298  21.227  0.00  0.00    +0.000 OA
ATOM      6  N   UNL     1       5.287   3.078  19.846  0.00  0.00    +0.000 NA
ATOM      7  C   UNL     1       4.742   4.111  19.297  0.00  0.00    +0.000 A 
ATOM      8  C   UNL     1       5.500   5.032  18.452  0.00  0.00    +0.000 A 
ATOM      9  C   UNL     1       6.807   4.973  18.027  0.00  0.00    +0.000 A 
ATOM     10  C   UNL     1       7.231   5.980  17.168  0.00  0.00    +0.000 A 
ATOM     11  C   UNL     1       6.335   6.986  16.758  0.00  0.00    +0.000 A 
ATOM     12  C   UNL     1       5.009   7.017  17.220  0.00  0.00    +0.000 A 
ATOM     13  C   UNL     1       4.585   6.036  18.093  0.00  0.00    +0.000 A 
ATOM     14  N   UNL     1       3.347   5.817  18.725  0.00  0.00    +0.000 N 
ATOM     15  N   UNL     1       3.414   4.566  19.383  0.00  0.00    +0.000 N 
ENDROOT
BRANCH  14  16
ATOM     16  C   UNL     1       2.168   6.556  18.286  0.00  0.00    +0.000 C 
BRANCH  16  17
ATOM     17  C   UNL     1       1.912   7.780  19.197  0.00  0.00    +0.000 C 
ATOM     18  O   UNL     1       1.879   8.913  18.725  0.00  0.00    +0.000 OA
ATOM     19  N   UNL     1       1.726   7.562  20.567  0.00  0.00    +0.000 N 
ATOM     20  H   UNL     1       1.992   6.677  20.973  0.00  0.00    +0.000 HD
BRANCH  19  21
ATOM     21  C   UNL     1       1.569   8.727  21.444  0.00  0.00    +0.000 C 
BRANCH  21  22
ATOM     22  C   UNL     1       0.168   8.937  22.055  0.00  0.00    +0.000 C 
BRANCH  22  23
ATOM     23  C   UNL     1      -0.250  10.410  22.114  0.00  0.00    +0.000 C 
ATOM     24  C   UNL     1       0.246  11.329  21.262  0.00  0.00    +0.000 C 
ATOM     25  C   UNL     1      -0.099  12.796  21.297  0.00  0.00    +0.000 C 
ATOM     26  C   UNL     1      -0.793  13.221  22.591  0.00  0.00    +0.000 C 
ATOM     27  C   UNL     1      -1.861  12.210  22.983  0.00  0.00    +0.000 C 
ATOM     28  C   UNL     1      -1.270  10.805  23.165  0.00  0.00    +0.000 C 
ENDBRANCH  22  23
ENDBRANCH  21  22
ENDBRANCH  19  21
ENDBRANCH  16  17
ENDBRANCH  14  16
TORSDOF 5
ENDMDL
MODEL 3
REMARK VINA RESULT:      -7.9      3.854      7.936
REMARK  Name = 
REMARK  6 active torsions:
REMARK  status: ('A' for Active; 'I' for Inactive)
REMARK    1  A    between atoms: C_1  and  C_2
REMARK    2  A    between atoms: N_14  and  C_15
REMARK    3  A    between atoms: C_15  and  C_16
REMARK    4  A    between atoms: N_18  and  C_19
REMARK    5  A    between atoms: C_19  and  C_20
REMARK    6  A    between atoms: C_20  and  C_21
REMARK                            x       y       z     vdW  Elec       q    Type
REMARK                         _______ _______ _______ _____ _____    ______ ____
ROOT
ATOM      1  C   UNL     1       5.091   2.434  19.110  0.00  0.00    +0.000 C 
ATOM      2  C   UNL     1       4.006   3.274  19.709  0.00  0.00    +0.000 A 
ATOM      3  C   UNL     1       3.287   2.746  20.722  0.00  0.00    +0.000 A 
ATOM      4  C   UNL     1       2.201   3.510  21.392  0.00  0.00    +0.000 A 
ATOM      5  O   UNL     1       1.587   2.981  22.314  0.00  0.00    +0.000 OA
ATOM      6  N   UNL     1       1.936   4.780  20.940  0.00  0.00    +0.000 NA
ATOM      7  C   UNL     1       2.660   5.213  19.964  0.00  0.00    +0.000 A 
ATOM      8  C   UNL     1       2.453   6.532  19.369  0.00  0.00    +0.000 A 
ATOM      9  C   UNL     1       1.585   7.538  19.725  0.00  0.00    +0.000 A 
ATOM     10  C   UNL     1       1.662   8.718  18.995  0.00  0.00    +0.000 A 
ATOM     11  C   UNL     1       2.607   8.850  17.960  0.00  0.00    +0.000 A 
ATOM     12  C   UNL     1       3.472   7.797  17.620  0.00  0.00    +0.000 A 
ATOM     13  C   UNL     1       3.387   6.612  18.322  0.00  0.00    +0.000 A 
ATOM     14  N   UNL     1       4.093   5.401  18.204  0.00  0.00    +0.000 N 
ATOM     15  N   UNL     1       3.718   4.575  19.290  0.00  0.00    +0.000 N 
ENDROOT
BRANCH  14  16
ATOM     16  C   UNL     1       5.299   5.342  17.386  0.00  0.00    +0.000 C 
BRANCH  16  17
ATOM     17  C   UNL     1       6.447   6.151  18.037  0.00  0.00    +0.000 C 
ATOM     18  O   UNL     1       6.827   5.890  19.175  0.00  0.00    +0.000 OA
ATOM     19  N   UNL     1       7.031   7.187  17.299  0.00  0.00    +0.000 N 
ATOM     20  H   UNL     1       6.560   7.546  16.481  0.00  0.00    +0.000 HD
BRANCH  19  21
ATOM     21  C   UNL     1       8.059   8.011  17.944  0.00  0.00    +0.000 C 
BRANCH  21  22
ATOM     22  C   UNL     1       7.875   9.539  17.840  0.00  0.00    +0.000 C 
BRANCH  22  23
ATOM     23  C   UNL     1       9.052  10.330  18.419  0.00  0.00    +0.000 C 
ATOM     24  C   UNL     1       9.938  10.973  17.634  0.00  0.00    +0.000 C 
ATOM     25  C   UNL     1      11.135  11.734  18.146  0.00  0.00    +0.000 C 
ATOM     26  C   UNL     1      11.459  11.433  19.609  0.00  0.00    +0.000 C 
ATOM     27  C   UNL     1      10.188  11.420  20.447  0.00  0.00    +0.000 C 
ATOM     28  C   UNL     1       9.181  10.384  19.930  0.00  0.00    +0.000 C 
ENDBRANCH  22  23
ENDBRANCH  21  22
ENDBRANCH  19  21
ENDBRANCH  16  17
ENDBRANCH  14  16
TORSDOF 5
ENDMDL
MODEL 4
REMARK VINA RESULT:      -7.9      3.347      9.428
REMARK  Name = 
REMARK  6 active torsions:
REMARK  status: ('A' for Active; 'I' for Inactive)
REMARK    1  A    between atoms: C_1  and  C_2
REMARK    2  A    between atoms: N_14  and  C_15
REMARK    3  A    between atoms: C_15  and  C_16
REMARK    4  A    between atoms: N_18  and  C_19
REMARK    5  A    between atoms: C_19  and  C_20
REMARK    6  A    between atoms: C_20  and  C_21
REMARK                            x       y       z     vdW  Elec       q    Type
REMARK                         _______ _______ _______ _____ _____    ______ ____
ROOT
ATOM      1  C   UNL     1      -1.275  12.714  22.330  0.00  0.00    +0.000 C 
ATOM      2  C   UNL     1      -2.475  12.670  21.435  0.00  0.00    +0.000 A 
ATOM      3  C   UNL     1      -3.614  13.242  21.880  0.00  0.00    +0.000 A 
ATOM      4  C   UNL     1      -4.852  13.263  21.056  0.00  0.00    +0.000 A 
ATOM      5  O   UNL     1      -5.856  13.805  21.509  0.00  0.00    +0.000 OA
ATOM      6  N   UNL     1      -4.810  12.668  19.818  0.00  0.00    +0.000 NA
ATOM      7  C   UNL     1      -3.688  12.136  19.466  0.00  0.00    +0.000 A 
ATOM      8  C   UNL     1      -3.525  11.441  18.190  0.00  0.00    +0.000 A 
ATOM      9  C   UNL     1      -4.411  11.278  17.150  0.00  0.00    +0.000 A 
ATOM     10  C   UNL     1      -3.941  10.610  16.027  0.00  0.00    +0.000 A 
ATOM     11  C   UNL     1      -2.610  10.150  15.981  0.00  0.00    +0.000 A 
ATOM     12  C   UNL     1      -1.737  10.328  17.067  0.00  0.00    +0.000 A 
ATOM     13  C   UNL     1      -2.202  10.969  18.198  0.00  0.00    +0.000 A 
ATOM     14  N   UNL     1      -1.582  11.273  19.423  0.00  0.00    +0.000 N 
ATOM     15  N   UNL     1      -2.468  12.091  20.163  0.00  0.00    +0.000 N 
ENDROOT
BRANCH  14  16
ATOM     16  C   UNL     1      -0.135  11.140  19.556  0.00  0.00    +0.000 C 
BRANCH  16  17
ATOM     17  C   UNL     1       0.238   9.784  20.202  0.00  0.00    +0.000 C 
ATOM     18  O   UNL     1      -0.351   9.388  21.203  0.00  0.00    +0.000 OA
ATOM     19  N   UNL     1       1.265   9.032  19.621  0.00  0.00    +0.000 N 
ATOM     20  H   UNL     1       1.894   9.467  18.962  0.00  0.00    +0.000 HD
BRANCH  19  21
ATOM     21  C   UNL     1       1.678   7.788  20.280  0.00  0.00    +0.000 C 
BRANCH  21  22
ATOM     22  C   UNL     1       2.539   6.823  19.440  0.00  0.00    +0.000 C 
BRANCH  22  23
ATOM     23  C   UNL     1       2.056   5.370  19.504  0.00  0.00    +0.000 C 
ATOM     24  C   UNL     1       1.576   4.826  20.639  0.00  0.00    +0.000 C 
ATOM     25  C   UNL     1       1.123   3.394  20.771  0.00  0.00    +0.000 C 
ATOM     26  C   UNL     1       1.572   2.511  19.607  0.00  0.00    +0.000 C 
ATOM     27  C   UNL     1       1.357   3.225  18.280  0.00  0.00    +0.000 C 
ATOM     28  C   UNL     1       2.120   4.556  18.226  0.00  0.00    +0.000 C 
ENDBRANCH  22  23
ENDBRANCH  21  22
ENDBRANCH  19  21
ENDBRANCH  16  17
ENDBRANCH  14  16
TORSDOF 5
ENDMDL
MODEL 5
REMARK VINA RESULT:      -7.9      2.501      4.536
REMARK  Name = 
REMARK  6 active torsions:
REMARK  status: ('A' for Active; 'I' for Inactive)
REMARK    1  A    between atoms: C_1  and  C_2
REMARK    2  A    between atoms: N_14  and  C_15
REMARK    3  A    between atoms: C_15  and  C_16
REMARK    4  A    between atoms: N_18  and  C_19
REMARK    5  A    between atoms: C_19  and  C_20
REMARK    6  A    between atoms: C_20  and  C_21
REMARK                            x       y       z     vdW  Elec       q    Type
REMARK                         _______ _______ _______ _____ _____    ______ ____
ROOT
ATOM      1  C   UNL     1       1.166   4.282  20.436  0.00  0.00    +0.000 C 
ATOM      2  C   UNL     1       2.577   3.869  20.155  0.00  0.00    +0.000 A 
ATOM      3  C   UNL     1       3.084   2.838  20.865  0.00  0.00    +0.000 A 
ATOM      4  C   UNL     1       4.470   2.344  20.645  0.00  0.00    +0.000 A 
ATOM      5  O   UNL     1       4.874   1.398  21.314  0.00  0.00    +0.000 OA
ATOM      6  N   UNL     1       5.236   2.980  19.698  0.00  0.00    +0.000 NA
ATOM      7  C   UNL     1       4.685   3.961  19.067  0.00  0.00    +0.000 A 
ATOM      8  C   UNL     1       5.406   4.742  18.063  0.00  0.00    +0.000 A 
ATOM      9  C   UNL     1       6.675   4.578  17.557  0.00  0.00    +0.000 A 
ATOM     10  C   UNL     1       7.066   5.455  16.553  0.00  0.00    +0.000 A 
ATOM     11  C   UNL     1       6.174   6.441  16.087  0.00  0.00    +0.000 A 
ATOM     12  C   UNL     1       4.888   6.582  16.633  0.00  0.00    +0.000 A 
ATOM     13  C   UNL     1       4.499   5.731  17.649  0.00  0.00    +0.000 A 
ATOM     14  N   UNL     1       3.306   5.642  18.389  0.00  0.00    +0.000 N 
ATOM     15  N   UNL     1       3.382   4.477  19.189  0.00  0.00    +0.000 N 
ENDROOT
BRANCH  14  16
ATOM     16  C   UNL     1       2.122   6.370  17.946  0.00  0.00    +0.000 C 
BRANCH  16  17
ATOM     17  C   UNL     1       1.929   7.665  18.772  0.00  0.00    +0.000 C 
ATOM     18  O   UNL     1       2.077   7.655  19.991  0.00  0.00    +0.000 OA
ATOM     19  N   UNL     1       1.577   8.838  18.095  0.00  0.00    +0.000 N 
ATOM     20  H   UNL     1       1.226   8.785  17.150  0.00  0.00    +0.000 HD
BRANCH  19  21
ATOM     21  C   UNL     1       1.310  10.046  18.884  0.00  0.00    +0.000 C 
BRANCH  21  22
ATOM     22  C   UNL     1      -0.145  10.557  18.879  0.00  0.00    +0.000 C 
BRANCH  22  23
ATOM     23  C   UNL     1      -0.636  10.996  20.262  0.00  0.00    +0.000 C 
ATOM     24  C   UNL     1      -1.632  11.891  20.417  0.00  0.00    +0.000 C 
ATOM     25  C   UNL     1      -2.130  12.388  21.750  0.00  0.00    +0.000 C 
ATOM     26  C   UNL     1      -1.187  12.058  22.907  0.00  0.00    +0.000 C 
ATOM     27  C   UNL     1      -0.693  10.622  22.802  0.00  0.00    +0.000 C 
ATOM     28  C   UNL     1       0.032  10.370  21.472  0.00  0.00    +0.000 C 
ENDBRANCH  22  23
ENDBRANCH  21  22
ENDBRANCH  19  21
ENDBRANCH  16  17
ENDBRANCH  14  16
TORSDOF 5
ENDMDL
MODEL 6
REMARK VINA RESULT:      -7.8      3.087      9.218
REMARK  Name = 
REMARK  6 active torsions:
REMARK  status: ('A' for Active; 'I' for Inactive)
REMARK    1  A    between atoms: C_1  and  C_2
REMARK    2  A    between atoms: N_14  and  C_15
REMARK    3  A    between atoms: C_15  and  C_16
REMARK    4  A    between atoms: N_18  and  C_19
REMARK    5  A    between atoms: C_19  and  C_20
REMARK    6  A    between atoms: C_20  and  C_21
REMARK                            x       y       z     vdW  Elec       q    Type
REMARK                         _______ _______ _______ _____ _____    ______ ____
ROOT
ATOM      1  C   UNL     1      -0.283  12.442  21.988  0.00  0.00    +0.000 C 
ATOM      2  C   UNL     1      -1.618  12.548  21.318  0.00  0.00    +0.000 A 
ATOM      3  C   UNL     1      -2.599  13.207  21.970  0.00  0.00    +0.000 A 
ATOM      4  C   UNL     1      -3.953  13.378  21.377  0.00  0.00    +0.000 A 
ATOM      5  O   UNL     1      -4.803  13.994  22.013  0.00  0.00    +0.000 OA
ATOM      6  N   UNL     1      -4.186  12.832  20.139  0.00  0.00    +0.000 NA
ATOM      7  C   UNL     1      -3.201  12.211  19.582  0.00  0.00    +0.000 A 
ATOM      8  C   UNL     1      -3.332  11.555  18.282  0.00  0.00    +0.000 A 
ATOM      9  C   UNL     1      -4.397  11.519  17.411  0.00  0.00    +0.000 A 
ATOM     10  C   UNL     1      -4.197  10.855  16.207  0.00  0.00    +0.000 A 
ATOM     11  C   UNL     1      -2.948  10.273  15.917  0.00  0.00    +0.000 A 
ATOM     12  C   UNL     1      -1.887  10.323  16.836  0.00  0.00    +0.000 A 
ATOM     13  C   UNL     1      -2.082  10.960  18.046  0.00  0.00    +0.000 A 
ATOM     14  N   UNL     1      -1.232  11.154  19.149  0.00  0.00    +0.000 N 
ATOM     15  N   UNL     1      -1.890  12.022  20.052  0.00  0.00    +0.000 N 
ENDROOT
BRANCH  14  16
ATOM     16  C   UNL     1       0.196  10.879  19.022  0.00  0.00    +0.000 C 
BRANCH  16  17
ATOM     17  C   UNL     1       0.561   9.531  19.689  0.00  0.00    +0.000 C 
ATOM     18  O   UNL     1      -0.113   9.093  20.618  0.00  0.00    +0.000 OA
ATOM     19  N   UNL     1       1.675   8.834  19.211  0.00  0.00    +0.000 N 
ATOM     20  H   UNL     1       2.350   9.307  18.627  0.00  0.00    +0.000 HD
BRANCH  19  21
ATOM     21  C   UNL     1       2.074   7.600  19.898  0.00  0.00    +0.000 C 
BRANCH  21  22
ATOM     22  C   UNL     1       2.793   6.541  19.036  0.00  0.00    +0.000 C 
BRANCH  22  23
ATOM     23  C   UNL     1       2.189   5.140  19.172  0.00  0.00    +0.000 C 
ATOM     24  C   UNL     1       2.208   4.251  18.159  0.00  0.00    +0.000 C 
ATOM     25  C   UNL     1       1.596   2.875  18.223  0.00  0.00    +0.000 C 
ATOM     26  C   UNL     1       0.651   2.690  19.410  0.00  0.00    +0.000 C 
ATOM     27  C   UNL     1       1.259   3.278  20.676  0.00  0.00    +0.000 C 
ATOM     28  C   UNL     1       1.575   4.771  20.509  0.00  0.00    +0.000 C 
ENDBRANCH  22  23
ENDBRANCH  21  22
ENDBRANCH  19  21
ENDBRANCH  16  17
ENDBRANCH  14  16
TORSDOF 5
ENDMDL
MODEL 7
REMARK VINA RESULT:      -7.8      2.644      4.594
REMARK  Name = 
REMARK  6 active torsions:
REMARK  status: ('A' for Active; 'I' for Inactive)
REMARK    1  A    between atoms: C_1  and  C_2
REMARK    2  A    between atoms: N_14  and  C_15
REMARK    3  A    between atoms: C_15  and  C_16
REMARK    4  A    between atoms: N_18  and  C_19
REMARK    5  A    between atoms: C_19  and  C_20
REMARK    6  A    between atoms: C_20  and  C_21
REMARK                            x       y       z     vdW  Elec       q    Type
REMARK                         _______ _______ _______ _____ _____    ______ ____
ROOT
ATOM      1  C   UNL     1       1.028   4.245  20.465  0.00  0.00    +0.000 C 
ATOM      2  C   UNL     1       2.461   3.867  20.252  0.00  0.00    +0.000 A 
ATOM      3  C   UNL     1       2.934   2.790  20.915  0.00  0.00    +0.000 A 
ATOM      4  C   UNL     1       4.339   2.328  20.755  0.00  0.00    +0.000 A 
ATOM      5  O   UNL     1       4.710   1.337  21.377  0.00  0.00    +0.000 OA
ATOM      6  N   UNL     1       5.158   3.041  19.914  0.00  0.00    +0.000 NA
ATOM      7  C   UNL     1       4.637   4.063  19.322  0.00  0.00    +0.000 A 
ATOM      8  C   UNL     1       5.413   4.924  18.432  0.00  0.00    +0.000 A 
ATOM      9  C   UNL     1       6.716   4.812  18.005  0.00  0.00    +0.000 A 
ATOM     10  C   UNL     1       7.162   5.767  17.099  0.00  0.00    +0.000 A 
ATOM     11  C   UNL     1       6.290   6.777  16.648  0.00  0.00    +0.000 A 
ATOM     12  C   UNL     1       4.968   6.864  17.114  0.00  0.00    +0.000 A 
ATOM     13  C   UNL     1       4.523   5.934  18.032  0.00  0.00    +0.000 A 
ATOM     14  N   UNL     1       3.283   5.777  18.679  0.00  0.00    +0.000 N 
ATOM     15  N   UNL     1       3.322   4.555  19.392  0.00  0.00    +0.000 N 
ENDROOT
BRANCH  14  16
ATOM     16  C   UNL     1       2.121   6.526  18.212  0.00  0.00    +0.000 C 
BRANCH  16  17
ATOM     17  C   UNL     1       1.895   7.789  19.076  0.00  0.00    +0.000 C 
ATOM     18  O   UNL     1       1.984   7.732  20.300  0.00  0.00    +0.000 OA
ATOM     19  N   UNL     1       1.580   8.989  18.429  0.00  0.00    +0.000 N 
ATOM     20  H   UNL     1       1.274   8.975  17.467  0.00  0.00    +0.000 HD
BRANCH  19  21
ATOM     21  C   UNL     1       1.281  10.168  19.250  0.00  0.00    +0.000 C 
BRANCH  21  22
ATOM     22  C   UNL     1      -0.191  10.632  19.268  0.00  0.00    +0.000 C 
BRANCH  22  23
ATOM     23  C   UNL     1      -0.682  11.029  20.663  0.00  0.00    +0.000 C 
ATOM     24  C   UNL     1      -0.342  10.335  21.766  0.00  0.00    +0.000 C 
ATOM     25  C   UNL     1      -0.826  10.656  23.158  0.00  0.00    +0.000 C 
ATOM     26  C   UNL     1      -2.008  11.624  23.175  0.00  0.00    +0.000 C 
ATOM     27  C   UNL     1      -1.776  12.770  22.201  0.00  0.00    +0.000 C 
ATOM     28  C   UNL     1      -1.564  12.259  20.769  0.00  0.00    +0.000 C 
ENDBRANCH  22  23
ENDBRANCH  21  22
ENDBRANCH  19  21
ENDBRANCH  16  17
ENDBRANCH  14  16
TORSDOF 5
ENDMDL
MODEL 8
REMARK VINA RESULT:      -7.7      2.698      4.641
REMARK  Name = 
REMARK  6 active torsions:
REMARK  status: ('A' for Active; 'I' for Inactive)
REMARK    1  A    between atoms: C_1  and  C_2
REMARK    2  A    between atoms: N_14  and  C_15
REMARK    3  A    between atoms: C_15  and  C_16
REMARK    4  A    between atoms: N_18  and  C_19
REMARK    5  A    between atoms: C_19  and  C_20
REMARK    6  A    between atoms: C_20  and  C_21
REMARK                            x       y       z     vdW  Elec       q    Type
REMARK                         _______ _______ _______ _____ _____    ______ ____
ROOT
ATOM      1  C   UNL     1       1.222   4.023  19.471  0.00  0.00    +0.000 C 
ATOM      2  C   UNL     1       2.696   3.762  19.508  0.00  0.00    +0.000 A 
ATOM      3  C   UNL     1       3.118   2.610  20.070  0.00  0.00    +0.000 A 
ATOM      4  C   UNL     1       4.561   2.255  20.139  0.00  0.00    +0.000 A 
ATOM      5  O   UNL     1       4.884   1.190  20.654  0.00  0.00    +0.000 OA
ATOM      6  N   UNL     1       5.467   3.147  19.618  0.00  0.00    +0.000 NA
ATOM      7  C   UNL     1       4.988   4.229  19.104  0.00  0.00    +0.000 A 
ATOM      8  C   UNL     1       5.850   5.273  18.551  0.00  0.00    +0.000 A 
ATOM      9  C   UNL     1       7.217   5.305  18.397  0.00  0.00    +0.000 A 
ATOM     10  C   UNL     1       7.750   6.426  17.774  0.00  0.00    +0.000 A 
ATOM     11  C   UNL     1       6.902   7.455  17.319  0.00  0.00    +0.000 A 
ATOM     12  C   UNL     1       5.511   7.391  17.502  0.00  0.00    +0.000 A 
ATOM     13  C   UNL     1       4.973   6.292  18.142  0.00  0.00    +0.000 A 
ATOM     14  N   UNL     1       3.648   5.960  18.477  0.00  0.00    +0.000 N 
ATOM     15  N   UNL     1       3.648   4.635  18.973  0.00  0.00    +0.000 N 
ENDROOT
BRANCH  14  16
ATOM     16  C   UNL     1       2.543   6.720  17.903  0.00  0.00    +0.000 C 
BRANCH  16  17
ATOM     17  C   UNL     1       2.033   7.791  18.898  0.00  0.00    +0.000 C 
ATOM     18  O   UNL     1       1.682   8.897  18.497  0.00  0.00    +0.000 OA
ATOM     19  N   UNL     1       1.991   7.467  20.258  0.00  0.00    +0.000 N 
ATOM     20  H   UNL     1       2.499   6.664  20.598  0.00  0.00    +0.000 HD
BRANCH  19  21
ATOM     21  C   UNL     1       1.590   8.508  21.211  0.00  0.00    +0.000 C 
BRANCH  21  22
ATOM     22  C   UNL     1       0.088   8.577  21.555  0.00  0.00    +0.000 C 
BRANCH  22  23
ATOM     23  C   UNL     1      -0.443  10.011  21.658  0.00  0.00    +0.000 C 
ATOM     24  C   UNL     1      -0.742  10.579  22.843  0.00  0.00    +0.000 C 
ATOM     25  C   UNL     1      -1.302  11.970  23.003  0.00  0.00    +0.000 C 
ATOM     26  C   UNL     1      -1.828  12.561  21.695  0.00  0.00    +0.000 C 
ATOM     27  C   UNL     1      -0.854  12.293  20.556  0.00  0.00    +0.000 C 
ATOM     28  C   UNL     1      -0.607  10.789  20.367  0.00  0.00    +0.000 C 
ENDBRANCH  22  23
ENDBRANCH  21  22
ENDBRANCH  19  21
ENDBRANCH  16  17
ENDBRANCH  14  16
TORSDOF 5
ENDMDL
MODEL 9
REMARK VINA RESULT:      -7.7      2.070      3.872
REMARK  Name = 
REMARK  6 active torsions:
REMARK  status: ('A' for Active; 'I' for Inactive)
REMARK    1  A    between atoms: C_1  and  C_2
REMARK    2  A    between atoms: N_14  and  C_15
REMARK    3  A    between atoms: C_15  and  C_16
REMARK    4  A    between atoms: N_18  and  C_19
REMARK    5  A    between atoms: C_19  and  C_20
REMARK    6  A    between atoms: C_20  and  C_21
REMARK                            x       y       z     vdW  Elec       q    Type
REMARK                         _______ _______ _______ _____ _____    ______ ____
ROOT
ATOM      1  C   UNL     1       1.219   4.028  19.518  0.00  0.00    +0.000 C 
ATOM      2  C   UNL     1       2.694   3.770  19.533  0.00  0.00    +0.000 A 
ATOM      3  C   UNL     1       3.128   2.626  20.104  0.00  0.00    +0.000 A 
ATOM      4  C   UNL     1       4.572   2.274  20.151  0.00  0.00    +0.000 A 
ATOM      5  O   UNL     1       4.906   1.217  20.676  0.00  0.00    +0.000 OA
ATOM      6  N   UNL     1       5.467   3.160  19.602  0.00  0.00    +0.000 NA
ATOM      7  C   UNL     1       4.978   4.235  19.082  0.00  0.00    +0.000 A 
ATOM      8  C   UNL     1       5.828   5.272  18.500  0.00  0.00    +0.000 A 
ATOM      9  C   UNL     1       7.192   5.304  18.321  0.00  0.00    +0.000 A 
ATOM     10  C   UNL     1       7.712   6.417  17.673  0.00  0.00    +0.000 A 
ATOM     11  C   UNL     1       6.855   7.438  17.220  0.00  0.00    +0.000 A 
ATOM     12  C   UNL     1       5.467   7.375  17.428  0.00  0.00    +0.000 A 
ATOM     13  C   UNL     1       4.942   6.284  18.092  0.00  0.00    +0.000 A 
ATOM     14  N   UNL     1       3.624   5.955  18.455  0.00  0.00    +0.000 N 
ATOM     15  N   UNL     1       3.635   4.636  18.970  0.00  0.00    +0.000 N 
ENDROOT
BRANCH  14  16
ATOM     16  C   UNL     1       2.507   6.705  17.890  0.00  0.00    +0.000 C 
BRANCH  16  17
ATOM     17  C   UNL     1       1.984   7.758  18.897  0.00  0.00    +0.000 C 
ATOM     18  O   UNL     1       2.034   7.544  20.105  0.00  0.00    +0.000 OA
ATOM     19  N   UNL     1       1.449   8.949  18.395  0.00  0.00    +0.000 N 
ATOM     20  H   UNL     1       1.192   9.011  17.421  0.00  0.00    +0.000 HD
BRANCH  19  21
ATOM     21  C   UNL     1       0.874   9.910  19.342  0.00  0.00    +0.000 C 
BRANCH  21  22
ATOM     22  C   UNL     1       0.276  11.196  18.733  0.00  0.00    +0.000 C 
BRANCH  22  23
ATOM     23  C   UNL     1      -1.180  11.032  18.287  0.00  0.00    +0.000 C 
ATOM     24  C   UNL     1      -1.566  10.050  17.449  0.00  0.00    +0.000 C 
ATOM     25  C   UNL     1      -2.975   9.864  16.947  0.00  0.00    +0.000 C 
ATOM     26  C   UNL     1      -3.866  11.081  17.190  0.00  0.00    +0.000 C 
ATOM     27  C   UNL     1      -3.659  11.625  18.596  0.00  0.00    +0.000 C 
ATOM     28  C   UNL     1      -2.194  12.016  18.840  0.00  0.00    +0.000 C 
ENDBRANCH  22  23
ENDBRANCH  21  22
ENDBRANCH  19  21
ENDBRANCH  16  17
ENDBRANCH  14  16
TORSDOF 5
ENDMDL
