MODEL 1
REMARK VINA RESULT:      -7.5      0.000      0.000
REMARK  Name = 
REMARK  6 active torsions:
REMARK  status: ('A' for Active; 'I' for Inactive)
REMARK    1  A    between atoms: C_1  and  N_2
REMARK    2  A    between atoms: N_2  and  C_3
REMARK    3  A    between atoms: N_2  and  C_4
REMARK    4  A    between atoms: C_4  and  C_5
REMARK    5  A    between atoms: C_6  and  C_7
REMARK    6  A    between atoms: C_6  and  C_14
REMARK                            x       y       z     vdW  Elec       q    Type
REMARK                         _______ _______ _______ _____ _____    ______ ____
ROOT
ATOM      1  C   UNL     1       4.701   6.613  16.816  0.00  0.00    +0.000 C 
ATOM      2  C   UNL     1       3.792   6.102  17.694  0.00  0.00    +0.000 C 
ENDROOT
BRANCH   2   3
ATOM      3  C   UNL     1       2.908   7.087  18.380  0.00  0.00    +0.000 A 
ATOM      4  C   UNL     1       2.451   6.872  19.688  0.00  0.00    +0.000 A 
ATOM      5  C   UNL     1       1.625   7.819  20.310  0.00  0.00    +0.000 A 
ATOM      6  C   UNL     1       1.252   8.982  19.628  0.00  0.00    +0.000 A 
ATOM      7 BR   UNL     1       0.128  10.275  20.477  0.00  0.00    +0.000 Br
ATOM      8  C   UNL     1       1.701   9.200  18.322  0.00  0.00    +0.000 A 
ATOM      9  C   UNL     1       2.526   8.257  17.698  0.00  0.00    +0.000 A 
ENDBRANCH   2   3
BRANCH   2  10
ATOM     10  C   UNL     1       3.597   4.639  18.011  0.00  0.00    +0.000 A 
ATOM     11  C   UNL     1       2.619   3.837  17.383  0.00  0.00    +0.000 A 
ATOM     12  C   UNL     1       2.461   2.497  17.732  0.00  0.00    +0.000 A 
ATOM     13  C   UNL     1       3.283   1.944  18.709  0.00  0.00    +0.000 A 
ATOM     14  N   UNL     1       4.243   2.701  19.293  0.00  0.00    +0.000 NA
ATOM     15  C   UNL     1       4.422   4.009  18.966  0.00  0.00    +0.000 A 
ENDBRANCH   2  10
BRANCH   1  16
ATOM     16  C   UNL     1       5.670   5.816  15.951  0.00  0.00    +0.000 C 
BRANCH  16  18
ATOM     17  C   UNL     1       7.364   6.980  17.342  0.00  0.00    +0.000 C 
ATOM     18  N   UNL     1       7.087   5.897  16.381  0.00  0.00    +0.000 NA
ATOM     19  C   UNL     1       7.471   4.617  17.011  0.00  0.00    +0.000 C 
ENDBRANCH  16  18
ENDBRANCH   1  16
TORSDOF 4
ENDMDL
MODEL 2
REMARK VINA RESULT:      -7.4      1.215      3.805
REMARK  Name = 
REMARK  6 active torsions:
REMARK  status: ('A' for Active; 'I' for Inactive)
REMARK    1  A    between atoms: C_1  and  N_2
REMARK    2  A    between atoms: N_2  and  C_3
REMARK    3  A    between atoms: N_2  and  C_4
REMARK    4  A    between atoms: C_4  and  C_5
REMARK    5  A    between atoms: C_6  and  C_7
REMARK    6  A    between atoms: C_6  and  C_14
REMARK                            x       y       z     vdW  Elec       q    Type
REMARK                         _______ _______ _______ _____ _____    ______ ____
ROOT
ATOM      1  C   UNL     1       2.356   4.810  17.732  0.00  0.00    +0.000 C 
ATOM      2  C   UNL     1       3.157   5.813  18.193  0.00  0.00    +0.000 C 
ENDROOT
BRANCH   2   3
ATOM      3  C   UNL     1       2.465   7.003  18.765  0.00  0.00    +0.000 A 
ATOM      4  C   UNL     1       2.170   8.125  17.979  0.00  0.00    +0.000 A 
ATOM      5  C   UNL     1       1.513   9.227  18.542  0.00  0.00    +0.000 A 
ATOM      6  C   UNL     1       1.152   9.214  19.894  0.00  0.00    +0.000 A 
ATOM      7 BR   UNL     1       0.254  10.716  20.663  0.00  0.00    +0.000 Br
ATOM      8  C   UNL     1       1.448   8.100  20.684  0.00  0.00    +0.000 A 
ATOM      9  C   UNL     1       2.103   6.997  20.125  0.00  0.00    +0.000 A 
ENDBRANCH   2   3
BRANCH   2  10
ATOM     10  C   UNL     1       4.667   5.809  18.187  0.00  0.00    +0.000 A 
ATOM     11  C   UNL     1       5.435   6.427  17.176  0.00  0.00    +0.000 A 
ATOM     12  C   UNL     1       6.828   6.370  17.201  0.00  0.00    +0.000 A 
ATOM     13  C   UNL     1       7.465   5.700  18.240  0.00  0.00    +0.000 A 
ATOM     14  N   UNL     1       6.733   5.132  19.229  0.00  0.00    +0.000 NA
ATOM     15  C   UNL     1       5.374   5.178  19.231  0.00  0.00    +0.000 A 
ENDBRANCH   2  10
BRANCH   1  16
ATOM     16  C   UNL     1       2.817   3.474  17.161  0.00  0.00    +0.000 C 
BRANCH  16  18
ATOM     17  C   UNL     1       3.501   1.789  18.850  0.00  0.00    +0.000 C 
ATOM     18  N   UNL     1       2.431   2.294  17.971  0.00  0.00    +0.000 NA
ATOM     19  C   UNL     1       1.274   2.652  18.818  0.00  0.00    +0.000 C 
ENDBRANCH  16  18
ENDBRANCH   1  16
TORSDOF 4
ENDMDL
MODEL 3
REMARK VINA RESULT:      -7.4      1.218      3.675
REMARK  Name = 
REMARK  6 active torsions:
REMARK  status: ('A' for Active; 'I' for Inactive)
REMARK    1  A    between atoms: C_1  and  N_2
REMARK    2  A    between atoms: N_2  and  C_3
REMARK    3  A    between atoms: N_2  and  C_4
REMARK    4  A    between atoms: C_4  and  C_5
REMARK    5  A    between atoms: C_6  and  C_7
REMARK    6  A    between atoms: C_6  and  C_14
REMARK                            x       y       z     vdW  Elec       q    Type
REMARK                         _______ _______ _______ _____ _____    ______ ____
ROOT
ATOM      1  C   UNL     1       2.373   4.840  17.815  0.00  0.00    +0.000 C 
ATOM      2  C   UNL     1       3.164   5.874  18.219  0.00  0.00    +0.000 C 
ENDROOT
BRANCH   2   3
ATOM      3  C   UNL     1       2.461   7.084  18.733  0.00  0.00    +0.000 A 
ATOM      4  C   UNL     1       2.065   7.184  20.074  0.00  0.00    +0.000 A 
ATOM      5  C   UNL     1       1.411   8.337  20.531  0.00  0.00    +0.000 A 
ATOM      6  C   UNL     1       1.148   9.391  19.650  0.00  0.00    +0.000 A 
ATOM      7 BR   UNL     1       0.258  10.964  20.272  0.00  0.00    +0.000 Br
ATOM      8  C   UNL     1       1.537   9.295  18.310  0.00  0.00    +0.000 A 
ATOM      9  C   UNL     1       2.191   8.146  17.851  0.00  0.00    +0.000 A 
ENDBRANCH   2   3
BRANCH   2  10
ATOM     10  C   UNL     1       4.674   5.887  18.204  0.00  0.00    +0.000 A 
ATOM     11  C   UNL     1       5.429   6.535  17.202  0.00  0.00    +0.000 A 
ATOM     12  C   UNL     1       6.823   6.494  17.218  0.00  0.00    +0.000 A 
ATOM     13  C   UNL     1       7.474   5.808  18.238  0.00  0.00    +0.000 A 
ATOM     14  N   UNL     1       6.754   5.211  19.218  0.00  0.00    +0.000 NA
ATOM     15  C   UNL     1       5.394   5.242  19.230  0.00  0.00    +0.000 A 
ENDBRANCH   2  10
BRANCH   1  16
ATOM     16  C   UNL     1       2.846   3.482  17.310  0.00  0.00    +0.000 C 
BRANCH  16  18
ATOM     17  C   UNL     1       3.324   2.233  19.401  0.00  0.00    +0.000 C 
ATOM     18  N   UNL     1       2.491   2.342  18.190  0.00  0.00    +0.000 NA
ATOM     19  C   UNL     1       1.083   2.485  18.615  0.00  0.00    +0.000 C 
ENDBRANCH  16  18
ENDBRANCH   1  16
TORSDOF 4
ENDMDL
MODEL 4
REMARK VINA RESULT:      -7.3      0.774      1.153
REMARK  Name = 
REMARK  6 active torsions:
REMARK  status: ('A' for Active; 'I' for Inactive)
REMARK    1  A    between atoms: C_1  and  N_2
REMARK    2  A    between atoms: N_2  and  C_3
REMARK    3  A    between atoms: N_2  and  C_4
REMARK    4  A    between atoms: C_4  and  C_5
REMARK    5  A    between atoms: C_6  and  C_7
REMARK    6  A    between atoms: C_6  and  C_14
REMARK                            x       y       z     vdW  Elec       q    Type
REMARK                         _______ _______ _______ _____ _____    ______ ____
ROOT
ATOM      1  C   UNL     1       4.487   6.728  16.946  0.00  0.00    +0.000 C 
ATOM      2  C   UNL     1       3.532   6.235  17.784  0.00  0.00    +0.000 C 
ENDROOT
BRANCH   2   3
ATOM      3  C   UNL     1       2.689   7.240  18.492  0.00  0.00    +0.000 A 
ATOM      4  C   UNL     1       2.340   7.083  19.840  0.00  0.00    +0.000 A 
ATOM      5  C   UNL     1       1.551   8.048  20.482  0.00  0.00    +0.000 A 
ATOM      6  C   UNL     1       1.104   9.171  19.777  0.00  0.00    +0.000 A 
ATOM      7 BR   UNL     1       0.029  10.488  20.651  0.00  0.00    +0.000 Br
ATOM      8  C   UNL     1       1.444   9.330  18.431  0.00  0.00    +0.000 A 
ATOM      9  C   UNL     1       2.233   8.370  17.787  0.00  0.00    +0.000 A 
ENDBRANCH   2   3
BRANCH   2  10
ATOM     10  C   UNL     1       3.251   4.773  18.039  0.00  0.00    +0.000 A 
ATOM     11  C   UNL     1       4.108   3.944  18.794  0.00  0.00    +0.000 A 
ATOM     12  C   UNL     1       3.818   2.593  18.976  0.00  0.00    +0.000 A 
ATOM     13  C   UNL     1       2.665   2.059  18.409  0.00  0.00    +0.000 A 
ATOM     14  N   UNL     1       1.824   2.858  17.708  0.00  0.00    +0.000 NA
ATOM     15  C   UNL     1       2.081   4.181  17.521  0.00  0.00    +0.000 A 
ENDBRANCH   2  10
BRANCH   1  16
ATOM     16  C   UNL     1       5.429   5.913  16.068  0.00  0.00    +0.000 C 
BRANCH  16  18
ATOM     17  C   UNL     1       7.157   7.107  17.392  0.00  0.00    +0.000 C 
ATOM     18  N   UNL     1       6.861   6.022  16.439  0.00  0.00    +0.000 NA
ATOM     19  C   UNL     1       7.297   4.748  17.048  0.00  0.00    +0.000 C 
ENDBRANCH  16  18
ENDBRANCH   1  16
TORSDOF 4
ENDMDL
MODEL 5
REMARK VINA RESULT:      -7.3      0.564      1.244
REMARK  Name = 
REMARK  6 active torsions:
REMARK  status: ('A' for Active; 'I' for Inactive)
REMARK    1  A    between atoms: C_1  and  N_2
REMARK    2  A    between atoms: N_2  and  C_3
REMARK    3  A    between atoms: N_2  and  C_4
REMARK    4  A    between atoms: C_4  and  C_5
REMARK    5  A    between atoms: C_6  and  C_7
REMARK    6  A    between atoms: C_6  and  C_14
REMARK                            x       y       z     vdW  Elec       q    Type
REMARK                         _______ _______ _______ _____ _____    ______ ____
ROOT
ATOM      1  C   UNL     1       4.521   6.613  17.109  0.00  0.00    +0.000 C 
ATOM      2  C   UNL     1       3.492   6.245  17.924  0.00  0.00    +0.000 C 
ENDROOT
BRANCH   2   3
ATOM      3  C   UNL     1       2.656   7.349  18.475  0.00  0.00    +0.000 A 
ATOM      4  C   UNL     1       2.283   8.446  17.687  0.00  0.00    +0.000 A 
ATOM      5  C   UNL     1       1.491   9.467  18.230  0.00  0.00    +0.000 A 
ATOM      6  C   UNL     1       1.073   9.398  19.564  0.00  0.00    +0.000 A 
ATOM      7 BR   UNL     1      -0.007  10.789  20.306  0.00  0.00    +0.000 Br
ATOM      8  C   UNL     1       1.448   8.310  20.356  0.00  0.00    +0.000 A 
ATOM      9  C   UNL     1       2.237   7.287  19.817  0.00  0.00    +0.000 A 
ENDBRANCH   2   3
BRANCH   2  10
ATOM     10  C   UNL     1       3.124   4.828  18.295  0.00  0.00    +0.000 A 
ATOM     11  C   UNL     1       1.961   4.184  17.820  0.00  0.00    +0.000 A 
ATOM     12  C   UNL     1       1.651   2.883  18.216  0.00  0.00    +0.000 A 
ATOM     13  C   UNL     1       2.504   2.213  19.086  0.00  0.00    +0.000 A 
ATOM     14  N   UNL     1       3.637   2.816  19.521  0.00  0.00    +0.000 NA
ATOM     15  C   UNL     1       3.966   4.081  19.145  0.00  0.00    +0.000 A 
ENDBRANCH   2  10
BRANCH   1  16
ATOM     16  C   UNL     1       5.476   5.676  16.378  0.00  0.00    +0.000 C 
BRANCH  16  18
ATOM     17  C   UNL     1       7.182   7.079  17.510  0.00  0.00    +0.000 C 
ATOM     18  N   UNL     1       6.905   5.861  16.728  0.00  0.00    +0.000 NA
ATOM     19  C   UNL     1       7.361   4.698  17.516  0.00  0.00    +0.000 C 
ENDBRANCH  16  18
ENDBRANCH   1  16
TORSDOF 4
ENDMDL
MODEL 6
REMARK VINA RESULT:      -7.2      1.049      3.793
REMARK  Name = 
REMARK  6 active torsions:
REMARK  status: ('A' for Active; 'I' for Inactive)
REMARK    1  A    between atoms: C_1  and  N_2
REMARK    2  A    between atoms: N_2  and  C_3
REMARK    3  A    between atoms: N_2  and  C_4
REMARK    4  A    between atoms: C_4  and  C_5
REMARK    5  A    between atoms: C_6  and  C_7
REMARK    6  A    between atoms: C_6  and  C_14
REMARK                            x       y       z     vdW  Elec       q    Type
REMARK                         _______ _______ _______ _____ _____    ______ ____
ROOT
ATOM      1  C   UNL     1       2.339   4.792  17.799  0.00  0.00    +0.000 C 
ATOM      2  C   UNL     1       3.127   5.853  18.135  0.00  0.00    +0.000 C 
ENDROOT
BRANCH   2   3
ATOM      3  C   UNL     1       2.437   7.021  18.752  0.00  0.00    +0.000 A 
ATOM      4  C   UNL     1       2.078   7.026  20.107  0.00  0.00    +0.000 A 
ATOM      5  C   UNL     1       1.435   8.141  20.661  0.00  0.00    +0.000 A 
ATOM      6  C   UNL     1       1.145   9.254  19.864  0.00  0.00    +0.000 A 
ATOM      7 BR   UNL     1       0.269  10.775  20.619  0.00  0.00    +0.000 Br
ATOM      8  C   UNL     1       1.495   9.252  18.511  0.00  0.00    +0.000 A 
ATOM      9  C   UNL     1       2.138   8.141  17.953  0.00  0.00    +0.000 A 
ENDBRANCH   2   3
BRANCH   2  10
ATOM     10  C   UNL     1       4.624   5.934  17.951  0.00  0.00    +0.000 A 
ATOM     11  C   UNL     1       5.545   5.445  18.903  0.00  0.00    +0.000 A 
ATOM     12  C   UNL     1       6.918   5.570  18.699  0.00  0.00    +0.000 A 
ATOM     13  C   UNL     1       7.383   6.179  17.538  0.00  0.00    +0.000 A 
ATOM     14  N   UNL     1       6.504   6.622  16.607  0.00  0.00    +0.000 NA
ATOM     15  C   UNL     1       5.160   6.506  16.779  0.00  0.00    +0.000 A 
ENDBRANCH   2  10
BRANCH   1  16
ATOM     16  C   UNL     1       2.810   3.465  17.214  0.00  0.00    +0.000 C 
BRANCH  16  18
ATOM     17  C   UNL     1       3.562   2.150  19.179  0.00  0.00    +0.000 C 
ATOM     18  N   UNL     1       2.579   2.292  18.090  0.00  0.00    +0.000 NA
ATOM     19  C   UNL     1       1.237   2.403  18.697  0.00  0.00    +0.000 C 
ENDBRANCH  16  18
ENDBRANCH   1  16
TORSDOF 4
ENDMDL
MODEL 7
REMARK VINA RESULT:      -7.2      1.061      3.965
REMARK  Name = 
REMARK  6 active torsions:
REMARK  status: ('A' for Active; 'I' for Inactive)
REMARK    1  A    between atoms: C_1  and  N_2
REMARK    2  A    between atoms: N_2  and  C_3
REMARK    3  A    between atoms: N_2  and  C_4
REMARK    4  A    between atoms: C_4  and  C_5
REMARK    5  A    between atoms: C_6  and  C_7
REMARK    6  A    between atoms: C_6  and  C_14
REMARK                            x       y       z     vdW  Elec       q    Type
REMARK                         _______ _______ _______ _____ _____    ______ ____
ROOT
ATOM      1  C   UNL     1       2.346   4.851  17.759  0.00  0.00    +0.000 C 
ATOM      2  C   UNL     1       3.134   5.910  18.100  0.00  0.00    +0.000 C 
ENDROOT
BRANCH   2   3
ATOM      3  C   UNL     1       2.440   7.087  18.695  0.00  0.00    +0.000 A 
ATOM      4  C   UNL     1       2.107   8.208  17.921  0.00  0.00    +0.000 A 
ATOM      5  C   UNL     1       1.449   9.298  18.507  0.00  0.00    +0.000 A 
ATOM      6  C   UNL     1       1.124   9.275  19.867  0.00  0.00    +0.000 A 
ATOM      7 BR   UNL     1       0.225  10.760  20.667  0.00  0.00    +0.000 Br
ATOM      8  C   UNL     1       1.458   8.162  20.645  0.00  0.00    +0.000 A 
ATOM      9  C   UNL     1       2.115   7.071  20.064  0.00  0.00    +0.000 A 
ENDBRANCH   2   3
BRANCH   2  10
ATOM     10  C   UNL     1       4.634   5.981  17.941  0.00  0.00    +0.000 A 
ATOM     11  C   UNL     1       5.535   5.460  18.896  0.00  0.00    +0.000 A 
ATOM     12  C   UNL     1       6.913   5.575  18.716  0.00  0.00    +0.000 A 
ATOM     13  C   UNL     1       7.402   6.209  17.578  0.00  0.00    +0.000 A 
ATOM     14  N   UNL     1       6.542   6.684  16.645  0.00  0.00    +0.000 NA
ATOM     15  C   UNL     1       5.194   6.578  16.793  0.00  0.00    +0.000 A 
ENDBRANCH   2  10
BRANCH   1  16
ATOM     16  C   UNL     1       2.818   3.517  17.193  0.00  0.00    +0.000 C 
BRANCH  16  18
ATOM     17  C   UNL     1       3.497   1.993  19.031  0.00  0.00    +0.000 C 
ATOM     18  N   UNL     1       2.475   2.340  18.027  0.00  0.00    +0.000 NA
ATOM     19  C   UNL     1       1.208   2.610  18.738  0.00  0.00    +0.000 C 
ENDBRANCH  16  18
ENDBRANCH   1  16
TORSDOF 4
ENDMDL
MODEL 8
REMARK VINA RESULT:      -7.2      0.930      1.240
REMARK  Name = 
REMARK  6 active torsions:
REMARK  status: ('A' for Active; 'I' for Inactive)
REMARK    1  A    between atoms: C_1  and  N_2
REMARK    2  A    between atoms: N_2  and  C_3
REMARK    3  A    between atoms: N_2  and  C_4
REMARK    4  A    between atoms: C_4  and  C_5
REMARK    5  A    between atoms: C_6  and  C_7
REMARK    6  A    between atoms: C_6  and  C_14
REMARK                            x       y       z     vdW  Elec       q    Type
REMARK                         _______ _______ _______ _____ _____    ______ ____
ROOT
ATOM      1  C   UNL     1       4.255   7.003  17.340  0.00  0.00    +0.000 C 
ATOM      2  C   UNL     1       3.211   6.601  18.118  0.00  0.00    +0.000 C 
ENDROOT
BRANCH   2   3
ATOM      3  C   UNL     1       2.331   7.678  18.653  0.00  0.00    +0.000 A 
ATOM      4  C   UNL     1       1.954   7.710  20.003  0.00  0.00    +0.000 A 
ATOM      5  C   UNL     1       1.130   8.739  20.480  0.00  0.00    +0.000 A 
ATOM      6  C   UNL     1       0.678   9.738  19.610  0.00  0.00    +0.000 A 
ATOM      7 BR   UNL     1      -0.444  11.142  20.260  0.00  0.00    +0.000 Br
ATOM      8  C   UNL     1       1.047   9.708  18.262  0.00  0.00    +0.000 A 
ATOM      9  C   UNL     1       1.870   8.683  17.783  0.00  0.00    +0.000 A 
ENDBRANCH   2   3
BRANCH   2  10
ATOM     10  C   UNL     1       2.867   5.172  18.463  0.00  0.00    +0.000 A 
ATOM     11  C   UNL     1       1.808   4.464  17.853  0.00  0.00    +0.000 A 
ATOM     12  C   UNL     1       1.513   3.155  18.228  0.00  0.00    +0.000 A 
ATOM     13  C   UNL     1       2.278   2.538  19.213  0.00  0.00    +0.000 A 
ATOM     14  N   UNL     1       3.314   3.202  19.780  0.00  0.00    +0.000 NA
ATOM     15  C   UNL     1       3.627   4.478  19.427  0.00  0.00    +0.000 A 
ENDBRANCH   2  10
BRANCH   1  16
ATOM     16  C   UNL     1       5.256   6.098  16.630  0.00  0.00    +0.000 C 
BRANCH  16  18
ATOM     17  C   UNL     1       7.214   4.601  16.921  0.00  0.00    +0.000 C 
ATOM     18  N   UNL     1       6.450   5.751  17.437  0.00  0.00    +0.000 NA
ATOM     19  C   UNL     1       7.355   6.919  17.480  0.00  0.00    +0.000 C 
ENDBRANCH  16  18
ENDBRANCH   1  16
TORSDOF 4
ENDMDL
MODEL 9
REMARK VINA RESULT:      -7.1      1.808      2.416
REMARK  Name = 
REMARK  6 active torsions:
REMARK  status: ('A' for Active; 'I' for Inactive)
REMARK    1  A    between atoms: C_1  and  N_2
REMARK    2  A    between atoms: N_2  and  C_3
REMARK    3  A    between atoms: N_2  and  C_4
REMARK    4  A    between atoms: C_4  and  C_5
REMARK    5  A    between atoms: C_6  and  C_7
REMARK    6  A    between atoms: C_6  and  C_14
REMARK                            x       y       z     vdW  Elec       q    Type
REMARK                         _______ _______ _______ _____ _____    ______ ____
ROOT
ATOM      1  C   UNL     1       4.559   5.810  19.048  0.00  0.00    +0.000 C 
ATOM      2  C   UNL     1       3.196   5.831  19.076  0.00  0.00    +0.000 C 
ENDROOT
BRANCH   2   3
ATOM      3  C   UNL     1       2.553   7.174  19.021  0.00  0.00    +0.000 A 
ATOM      4  C   UNL     1       2.626   7.972  17.871  0.00  0.00    +0.000 A 
ATOM      5  C   UNL     1       2.006   9.229  17.845  0.00  0.00    +0.000 A 
ATOM      6  C   UNL     1       1.314   9.695  18.968  0.00  0.00    +0.000 A 
ATOM      7 BR   UNL     1       0.467  11.408  18.934  0.00  0.00    +0.000 Br
ATOM      8  C   UNL     1       1.242   8.905  20.120  0.00  0.00    +0.000 A 
ATOM      9  C   UNL     1       1.859   7.649  20.149  0.00  0.00    +0.000 A 
ENDBRANCH   2   3
BRANCH   2  10
ATOM     10  C   UNL     1       2.297   4.619  19.141  0.00  0.00    +0.000 A 
ATOM     11  C   UNL     1       1.836   4.065  20.356  0.00  0.00    +0.000 A 
ATOM     12  C   UNL     1       1.030   2.928  20.363  0.00  0.00    +0.000 A 
ATOM     13  C   UNL     1       0.673   2.337  19.155  0.00  0.00    +0.000 A 
ATOM     14  N   UNL     1       1.088   2.882  17.986  0.00  0.00    +0.000 NA
ATOM     15  C   UNL     1       1.869   3.995  17.952  0.00  0.00    +0.000 A 
ENDBRANCH   2  10
BRANCH   1  16
ATOM     16  C   UNL     1       5.445   4.570  19.033  0.00  0.00    +0.000 C 
BRANCH  16  18
ATOM     17  C   UNL     1       6.795   5.314  17.088  0.00  0.00    +0.000 C 
ATOM     18  N   UNL     1       6.797   4.789  18.465  0.00  0.00    +0.000 NA
ATOM     19  C   UNL     1       7.527   5.749  19.319  0.00  0.00    +0.000 C 
ENDBRANCH  16  18
ENDBRANCH   1  16
TORSDOF 4
ENDMDL
