MODEL 1
REMARK VINA RESULT:      -7.5      0.000      0.000
REMARK  Name = 
REMARK  10 active torsions:
REMARK  status: ('A' for Active; 'I' for Inactive)
REMARK    1  A    between atoms: C_2  and  C_3
REMARK    2  A    between atoms: C_4  and  N_5
REMARK    3  A    between atoms: C_7  and  C_8
REMARK    4  A    between atoms: N_10  and  C_11
REMARK    5  A    between atoms: C_11  and  C_12
REMARK    6  A    between atoms: C_15  and  S_16
REMARK    7  A    between atoms: S_16  and  C_17
REMARK    8  A    between atoms: C_23  and  O_24
REMARK    9  A    between atoms: O_24  and  C_25
REMARK   10  A    between atoms: C_25  and  C_26
REMARK                            x       y       z     vdW  Elec       q    Type
REMARK                         _______ _______ _______ _____ _____    ______ ____
ROOT
ATOM      1  C   UNL     1       0.626   9.963  18.730  0.00  0.00    +0.000 C 
ATOM      2  O   UNL     1       1.200  10.360  19.741  0.00  0.00    +0.000 OA
ATOM      3  N   UNL     1       1.184   9.050  17.859  0.00  0.00    +0.000 N 
ATOM      4  H   UNL     1       0.659   8.814  17.023  0.00  0.00    +0.000 HD
ENDROOT
BRANCH   1   8
ATOM      5  C   UNL     1      -3.306  11.322  17.860  0.00  0.00    +0.000 A 
ATOM      6  C   UNL     1      -2.613  11.866  18.962  0.00  0.00    +0.000 A 
ATOM      7  C   UNL     1      -1.305  11.446  19.195  0.00  0.00    +0.000 A 
ATOM      8  C   UNL     1      -0.756  10.448  18.403  0.00  0.00    +0.000 A 
ATOM      9  N   UNL     1      -1.411   9.856  17.371  0.00  0.00    +0.000 NA
ATOM     10  C   UNL     1      -2.671  10.311  17.123  0.00  0.00    +0.000 A 
BRANCH   6  11
ATOM     11  N   UNL     1      -3.100  12.959  19.706  0.00  0.00    +0.000 N 
ATOM     12  H   UNL     1      -2.952  13.863  19.266  0.00  0.00    +0.000 HD
ATOM     13  H   UNL     1      -4.053  12.847  20.043  0.00  0.00    +0.000 HD
ENDBRANCH   6  11
BRANCH   5  15
ATOM     14  C   UNL     1      -5.742  12.117  17.226  0.00  0.00    +0.000 C 
ATOM     15  C   UNL     1      -4.637  11.776  17.560  0.00  0.00    +0.000 C 
ENDBRANCH   5  15
BRANCH  10  16
ATOM     16  O   UNL     1      -3.357   9.763  16.047  0.00  0.00    +0.000 OA
BRANCH  16  17
ATOM     17  C   UNL     1      -2.884  10.249  14.787  0.00  0.00    +0.000 C 
ATOM     18  C   UNL     1      -3.906   9.942  13.705  0.00  0.00    +0.000 C 
ENDBRANCH  16  17
ENDBRANCH  10  16
ENDBRANCH   1   8
BRANCH   3  19
ATOM     19  C   UNL     1       2.486   8.465  18.105  0.00  0.00    +0.000 C 
BRANCH  19  20
ATOM     20  C   UNL     1       2.396   7.071  18.679  0.00  0.00    +0.000 A 
ATOM     21  C   UNL     1       2.143   6.883  20.049  0.00  0.00    +0.000 A 
ATOM     22  C   UNL     1       2.118   5.600  20.602  0.00  0.00    +0.000 A 
ATOM     23  C   UNL     1       2.341   4.493  19.781  0.00  0.00    +0.000 A 
ATOM     24  C   UNL     1       2.576   4.659  18.414  0.00  0.00    +0.000 A 
ATOM     25  C   UNL     1       2.599   5.945  17.867  0.00  0.00    +0.000 A 
BRANCH  23  26
ATOM     26  S   UNL     1       2.460   2.872  20.502  0.00  0.00    +0.000 S 
ATOM     27  C   UNL     1       4.139   2.392  20.208  0.00  0.00    +0.000 C 
ATOM     28  O   UNL     1       2.283   3.018  21.935  0.00  0.00    +0.000 OA
ATOM     29  O   UNL     1       1.602   1.987  19.738  0.00  0.00    +0.000 OA
ENDBRANCH  23  26
ENDBRANCH  19  20
ENDBRANCH   3  19
TORSDOF 8
ENDMDL
MODEL 2
REMARK VINA RESULT:      -7.1      0.622      1.129
REMARK  Name = 
REMARK  10 active torsions:
REMARK  status: ('A' for Active; 'I' for Inactive)
REMARK    1  A    between atoms: C_2  and  C_3
REMARK    2  A    between atoms: C_4  and  N_5
REMARK    3  A    between atoms: C_7  and  C_8
REMARK    4  A    between atoms: N_10  and  C_11
REMARK    5  A    between atoms: C_11  and  C_12
REMARK    6  A    between atoms: C_15  and  S_16
REMARK    7  A    between atoms: S_16  and  C_17
REMARK    8  A    between atoms: C_23  and  O_24
REMARK    9  A    between atoms: O_24  and  C_25
REMARK   10  A    between atoms: C_25  and  C_26
REMARK                            x       y       z     vdW  Elec       q    Type
REMARK                         _______ _______ _______ _____ _____    ______ ____
ROOT
ATOM      1  C   UNL     1       0.510  10.051  19.082  0.00  0.00    +0.000 C 
ATOM      2  O   UNL     1       0.983  10.312  20.185  0.00  0.00    +0.000 OA
ATOM      3  N   UNL     1       1.166   9.279  18.147  0.00  0.00    +0.000 N 
ATOM      4  H   UNL     1       0.722   9.152  17.243  0.00  0.00    +0.000 HD
ENDROOT
BRANCH   1   8
ATOM      5  C   UNL     1      -3.372  11.456  18.065  0.00  0.00    +0.000 A 
ATOM      6  C   UNL     1      -2.730  11.963  19.215  0.00  0.00    +0.000 A 
ATOM      7  C   UNL     1      -1.436  11.529  19.498  0.00  0.00    +0.000 A 
ATOM      8  C   UNL     1      -0.854  10.553  18.703  0.00  0.00    +0.000 A 
ATOM      9  N   UNL     1      -1.460   9.996  17.624  0.00  0.00    +0.000 NA
ATOM     10  C   UNL     1      -2.705  10.465  17.329  0.00  0.00    +0.000 A 
BRANCH   6  11
ATOM     11  N   UNL     1      -3.249  13.035  19.967  0.00  0.00    +0.000 N 
ATOM     12  H   UNL     1      -2.548  13.563  20.481  0.00  0.00    +0.000 HD
ATOM     13  H   UNL     1      -3.886  13.640  19.455  0.00  0.00    +0.000 HD
ENDBRANCH   6  11
BRANCH   5  15
ATOM     14  C   UNL     1      -5.771  12.281  17.339  0.00  0.00    +0.000 C 
ATOM     15  C   UNL     1      -4.685  11.926  17.715  0.00  0.00    +0.000 C 
ENDBRANCH   5  15
BRANCH  10  16
ATOM     16  O   UNL     1      -3.340   9.953  16.205  0.00  0.00    +0.000 OA
BRANCH  16  17
ATOM     17  C   UNL     1      -3.056  10.704  15.022  0.00  0.00    +0.000 C 
ATOM     18  C   UNL     1      -3.222   9.816  13.800  0.00  0.00    +0.000 C 
ENDBRANCH  16  17
ENDBRANCH  10  16
ENDBRANCH   1   8
BRANCH   3  19
ATOM     19  C   UNL     1       2.459   8.688  18.424  0.00  0.00    +0.000 C 
BRANCH  19  20
ATOM     20  C   UNL     1       2.366   7.215  18.745  0.00  0.00    +0.000 A 
ATOM     21  C   UNL     1       2.488   6.257  17.724  0.00  0.00    +0.000 A 
ATOM     22  C   UNL     1       2.343   4.895  17.999  0.00  0.00    +0.000 A 
ATOM     23  C   UNL     1       2.079   4.483  19.307  0.00  0.00    +0.000 A 
ATOM     24  C   UNL     1       1.972   5.419  20.339  0.00  0.00    +0.000 A 
ATOM     25  C   UNL     1       2.119   6.780  20.055  0.00  0.00    +0.000 A 
BRANCH  23  26
ATOM     26  S   UNL     1       1.743   2.769  19.638  0.00  0.00    +0.000 S 
ATOM     27  C   UNL     1       3.187   1.926  19.052  0.00  0.00    +0.000 C 
ATOM     28  O   UNL     1       1.686   2.606  21.079  0.00  0.00    +0.000 OA
ATOM     29  O   UNL     1       0.625   2.371  18.804  0.00  0.00    +0.000 OA
ENDBRANCH  23  26
ENDBRANCH  19  20
ENDBRANCH   3  19
TORSDOF 8
ENDMDL
MODEL 3
REMARK VINA RESULT:      -7.0      1.621      3.046
REMARK  Name = 
REMARK  10 active torsions:
REMARK  status: ('A' for Active; 'I' for Inactive)
REMARK    1  A    between atoms: C_2  and  C_3
REMARK    2  A    between atoms: C_4  and  N_5
REMARK    3  A    between atoms: C_7  and  C_8
REMARK    4  A    between atoms: N_10  and  C_11
REMARK    5  A    between atoms: C_11  and  C_12
REMARK    6  A    between atoms: C_15  and  S_16
REMARK    7  A    between atoms: S_16  and  C_17
REMARK    8  A    between atoms: C_23  and  O_24
REMARK    9  A    between atoms: O_24  and  C_25
REMARK   10  A    between atoms: C_25  and  C_26
REMARK                            x       y       z     vdW  Elec       q    Type
REMARK                         _______ _______ _______ _____ _____    ______ ____
ROOT
ATOM      1  C   UNL     1       0.516  10.114  18.749  0.00  0.00    +0.000 C 
ATOM      2  O   UNL     1       1.084  10.509  19.764  0.00  0.00    +0.000 OA
ATOM      3  N   UNL     1       1.102   9.250  17.849  0.00  0.00    +0.000 N 
ATOM      4  H   UNL     1       0.577   9.012  17.013  0.00  0.00    +0.000 HD
ENDROOT
BRANCH   1   8
ATOM      5  C   UNL     1      -3.448  11.359  17.850  0.00  0.00    +0.000 A 
ATOM      6  C   UNL     1      -2.767  10.511  16.952  0.00  0.00    +0.000 A 
ATOM      7  C   UNL     1      -1.490  10.071  17.293  0.00  0.00    +0.000 A 
ATOM      8  C   UNL     1      -0.891  10.547  18.451  0.00  0.00    +0.000 A 
ATOM      9  N   UNL     1      -1.488  11.409  19.312  0.00  0.00    +0.000 NA
ATOM     10  C   UNL     1      -2.756  11.792  18.991  0.00  0.00    +0.000 A 
BRANCH   6  11
ATOM     11  N   UNL     1      -3.394   9.924  15.834  0.00  0.00    +0.000 N 
ATOM     12  H   UNL     1      -3.670   8.955  15.971  0.00  0.00    +0.000 HD
ATOM     13  H   UNL     1      -4.140  10.483  15.427  0.00  0.00    +0.000 HD
ENDBRANCH   6  11
BRANCH   5  15
ATOM     14  C   UNL     1      -5.921  12.065  17.254  0.00  0.00    +0.000 C 
ATOM     15  C   UNL     1      -4.789  11.785  17.553  0.00  0.00    +0.000 C 
ENDBRANCH   5  15
BRANCH  10  16
ATOM     16  O   UNL     1      -3.418  12.639  19.871  0.00  0.00    +0.000 OA
BRANCH  16  17
ATOM     17  C   UNL     1      -2.685  12.860  21.079  0.00  0.00    +0.000 C 
ATOM     18  C   UNL     1      -3.603  12.668  22.276  0.00  0.00    +0.000 C 
ENDBRANCH  16  17
ENDBRANCH  10  16
ENDBRANCH   1   8
BRANCH   3  19
ATOM     19  C   UNL     1       2.431   8.716  18.064  0.00  0.00    +0.000 C 
BRANCH  19  20
ATOM     20  C   UNL     1       2.408   7.307  18.609  0.00  0.00    +0.000 A 
ATOM     21  C   UNL     1       2.670   6.215  17.764  0.00  0.00    +0.000 A 
ATOM     22  C   UNL     1       2.591   4.905  18.242  0.00  0.00    +0.000 A 
ATOM     23  C   UNL     1       2.254   4.681  19.578  0.00  0.00    +0.000 A 
ATOM     24  C   UNL     1       2.007   5.754  20.438  0.00  0.00    +0.000 A 
ATOM     25  C   UNL     1       2.088   7.062  19.952  0.00  0.00    +0.000 A 
BRANCH  23  26
ATOM     26  S   UNL     1       2.005   3.017  20.155  0.00  0.00    +0.000 S 
ATOM     27  C   UNL     1       1.158   2.220  18.819  0.00  0.00    +0.000 C 
ATOM     28  O   UNL     1       3.311   2.401  20.286  0.00  0.00    +0.000 OA
ATOM     29  O   UNL     1       1.098   3.076  21.287  0.00  0.00    +0.000 OA
ENDBRANCH  23  26
ENDBRANCH  19  20
ENDBRANCH   3  19
TORSDOF 8
ENDMDL
MODEL 4
REMARK VINA RESULT:      -6.9      3.781      5.238
REMARK  Name = 
REMARK  10 active torsions:
REMARK  status: ('A' for Active; 'I' for Inactive)
REMARK    1  A    between atoms: C_2  and  C_3
REMARK    2  A    between atoms: C_4  and  N_5
REMARK    3  A    between atoms: C_7  and  C_8
REMARK    4  A    between atoms: N_10  and  C_11
REMARK    5  A    between atoms: C_11  and  C_12
REMARK    6  A    between atoms: C_15  and  S_16
REMARK    7  A    between atoms: S_16  and  C_17
REMARK    8  A    between atoms: C_23  and  O_24
REMARK    9  A    between atoms: O_24  and  C_25
REMARK   10  A    between atoms: C_25  and  C_26
REMARK                            x       y       z     vdW  Elec       q    Type
REMARK                         _______ _______ _______ _____ _____    ______ ____
ROOT
ATOM      1  C   UNL     1       1.003   9.012  20.526  0.00  0.00    +0.000 C 
ATOM      2  O   UNL     1       0.533   8.517  21.547  0.00  0.00    +0.000 OA
ATOM      3  N   UNL     1       1.779   8.300  19.635  0.00  0.00    +0.000 N 
ATOM      4  H   UNL     1       2.165   8.801  18.841  0.00  0.00    +0.000 HD
ENDROOT
BRANCH   1   8
ATOM      5  C   UNL     1       0.228  13.061  19.489  0.00  0.00    +0.000 A 
ATOM      6  C   UNL     1      -0.341  12.027  18.717  0.00  0.00    +0.000 A 
ATOM      7  C   UNL     1      -0.119  10.707  19.108  0.00  0.00    +0.000 A 
ATOM      8  C   UNL     1       0.723  10.446  20.179  0.00  0.00    +0.000 A 
ATOM      9  N   UNL     1       1.338  11.409  20.911  0.00  0.00    +0.000 NA
ATOM     10  C   UNL     1       1.072  12.695  20.549  0.00  0.00    +0.000 A 
BRANCH   6  11
ATOM     11  N   UNL     1      -1.290  12.266  17.702  0.00  0.00    +0.000 N 
ATOM     12  H   UNL     1      -1.095  13.086  17.134  0.00  0.00    +0.000 HD
ATOM     13  H   UNL     1      -1.516  11.451  17.137  0.00  0.00    +0.000 HD
ENDBRANCH   6  11
BRANCH   5  15
ATOM     14  C   UNL     1      -0.187  15.605  18.924  0.00  0.00    +0.000 C 
ATOM     15  C   UNL     1      -0.029  14.433  19.144  0.00  0.00    +0.000 C 
ENDBRANCH   5  15
BRANCH  10  16
ATOM     16  O   UNL     1       1.647  13.711  21.302  0.00  0.00    +0.000 OA
BRANCH  16  17
ATOM     17  C   UNL     1       3.059  13.817  21.097  0.00  0.00    +0.000 C 
ATOM     18  C   UNL     1       3.370  15.096  20.337  0.00  0.00    +0.000 C 
ENDBRANCH  16  17
ENDBRANCH  10  16
ENDBRANCH   1   8
BRANCH   3  19
ATOM     19  C   UNL     1       2.063   6.894  19.831  0.00  0.00    +0.000 C 
BRANCH  19  20
ATOM     20  C   UNL     1       3.242   6.422  19.012  0.00  0.00    +0.000 A 
ATOM     21  C   UNL     1       4.044   5.362  19.468  0.00  0.00    +0.000 A 
ATOM     22  C   UNL     1       5.172   4.957  18.749  0.00  0.00    +0.000 A 
ATOM     23  C   UNL     1       5.499   5.611  17.560  0.00  0.00    +0.000 A 
ATOM     24  C   UNL     1       4.704   6.655  17.081  0.00  0.00    +0.000 A 
ATOM     25  C   UNL     1       3.577   7.054  17.805  0.00  0.00    +0.000 A 
BRANCH  23  26
ATOM     26  S   UNL     1       7.013   5.203  16.720  0.00  0.00    +0.000 S 
ATOM     27  C   UNL     1       6.508   4.090  15.439  0.00  0.00    +0.000 C 
ATOM     28  O   UNL     1       7.502   6.416  16.091  0.00  0.00    +0.000 OA
ATOM     29  O   UNL     1       7.846   4.465  17.651  0.00  0.00    +0.000 OA
ENDBRANCH  23  26
ENDBRANCH  19  20
ENDBRANCH   3  19
TORSDOF 8
ENDMDL
MODEL 5
REMARK VINA RESULT:      -6.9      1.461      1.863
REMARK  Name = 
REMARK  10 active torsions:
REMARK  status: ('A' for Active; 'I' for Inactive)
REMARK    1  A    between atoms: C_2  and  C_3
REMARK    2  A    between atoms: C_4  and  N_5
REMARK    3  A    between atoms: C_7  and  C_8
REMARK    4  A    between atoms: N_10  and  C_11
REMARK    5  A    between atoms: C_11  and  C_12
REMARK    6  A    between atoms: C_15  and  S_16
REMARK    7  A    between atoms: S_16  and  C_17
REMARK    8  A    between atoms: C_23  and  O_24
REMARK    9  A    between atoms: O_24  and  C_25
REMARK   10  A    between atoms: C_25  and  C_26
REMARK                            x       y       z     vdW  Elec       q    Type
REMARK                         _______ _______ _______ _____ _____    ______ ____
ROOT
ATOM      1  C   UNL     1       0.181  10.094  19.221  0.00  0.00    +0.000 C 
ATOM      2  O   UNL     1       1.202  10.514  18.682  0.00  0.00    +0.000 OA
ATOM      3  N   UNL     1       0.199   9.182  20.256  0.00  0.00    +0.000 N 
ATOM      4  H   UNL     1      -0.693   8.854  20.611  0.00  0.00    +0.000 HD
ENDROOT
BRANCH   1   8
ATOM      5  C   UNL     1      -3.657  11.483  18.034  0.00  0.00    +0.000 A 
ATOM      6  C   UNL     1      -3.053  12.019  19.191  0.00  0.00    +0.000 A 
ATOM      7  C   UNL     1      -1.771  11.589  19.530  0.00  0.00    +0.000 A 
ATOM      8  C   UNL     1      -1.167  10.589  18.782  0.00  0.00    +0.000 A 
ATOM      9  N   UNL     1      -1.738  10.005  17.698  0.00  0.00    +0.000 NA
ATOM     10  C   UNL     1      -2.970  10.469  17.349  0.00  0.00    +0.000 A 
BRANCH   6  11
ATOM     11  N   UNL     1      -3.593  13.113  19.895  0.00  0.00    +0.000 N 
ATOM     12  H   UNL     1      -4.253  12.856  20.624  0.00  0.00    +0.000 HD
ATOM     13  H   UNL     1      -2.903  13.786  20.221  0.00  0.00    +0.000 HD
ENDBRANCH   6  11
BRANCH   5  15
ATOM     14  C   UNL     1      -6.043  12.387  17.362  0.00  0.00    +0.000 C 
ATOM     15  C   UNL     1      -4.955  11.947  17.627  0.00  0.00    +0.000 C 
ENDBRANCH   5  15
BRANCH  10  16
ATOM     16  O   UNL     1      -3.568   9.928  16.218  0.00  0.00    +0.000 OA
BRANCH  16  17
ATOM     17  C   UNL     1      -2.676   9.860  15.102  0.00  0.00    +0.000 C 
ATOM     18  C   UNL     1      -3.462  10.008  13.810  0.00  0.00    +0.000 C 
ENDBRANCH  16  17
ENDBRANCH  10  16
ENDBRANCH   1   8
BRANCH   3  19
ATOM     19  C   UNL     1       1.443   8.682  20.805  0.00  0.00    +0.000 C 
BRANCH  19  20
ATOM     20  C   UNL     1       1.864   7.371  20.183  0.00  0.00    +0.000 A 
ATOM     21  C   UNL     1       2.590   7.357  18.980  0.00  0.00    +0.000 A 
ATOM     22  C   UNL     1       2.932   6.150  18.364  0.00  0.00    +0.000 A 
ATOM     23  C   UNL     1       2.552   4.946  18.957  0.00  0.00    +0.000 A 
ATOM     24  C   UNL     1       1.845   4.938  20.163  0.00  0.00    +0.000 A 
ATOM     25  C   UNL     1       1.507   6.149  20.773  0.00  0.00    +0.000 A 
BRANCH  23  26
ATOM     26  S   UNL     1       2.851   3.413  18.105  0.00  0.00    +0.000 S 
ATOM     27  C   UNL     1       2.556   2.172  19.334  0.00  0.00    +0.000 C 
ATOM     28  O   UNL     1       1.832   3.278  17.081  0.00  0.00    +0.000 OA
ATOM     29  O   UNL     1       4.259   3.372  17.758  0.00  0.00    +0.000 OA
ENDBRANCH  23  26
ENDBRANCH  19  20
ENDBRANCH   3  19
TORSDOF 8
ENDMDL
MODEL 6
REMARK VINA RESULT:      -6.9      1.100      1.169
REMARK  Name = 
REMARK  10 active torsions:
REMARK  status: ('A' for Active; 'I' for Inactive)
REMARK    1  A    between atoms: C_2  and  C_3
REMARK    2  A    between atoms: C_4  and  N_5
REMARK    3  A    between atoms: C_7  and  C_8
REMARK    4  A    between atoms: N_10  and  C_11
REMARK    5  A    between atoms: C_11  and  C_12
REMARK    6  A    between atoms: C_15  and  S_16
REMARK    7  A    between atoms: S_16  and  C_17
REMARK    8  A    between atoms: C_23  and  O_24
REMARK    9  A    between atoms: O_24  and  C_25
REMARK   10  A    between atoms: C_25  and  C_26
REMARK                            x       y       z     vdW  Elec       q    Type
REMARK                         _______ _______ _______ _____ _____    ______ ____
ROOT
ATOM      1  C   UNL     1       1.057  10.353  18.374  0.00  0.00    +0.000 C 
ATOM      2  O   UNL     1       1.926  11.137  18.747  0.00  0.00    +0.000 OA
ATOM      3  N   UNL     1       1.339   9.084  17.915  0.00  0.00    +0.000 N 
ATOM      4  H   UNL     1       0.564   8.519  17.582  0.00  0.00    +0.000 HD
ENDROOT
BRANCH   1   8
ATOM      5  C   UNL     1      -3.048  11.435  18.586  0.00  0.00    +0.000 A 
ATOM      6  C   UNL     1      -2.165  11.865  19.598  0.00  0.00    +0.000 A 
ATOM      7  C   UNL     1      -0.814  11.546  19.480  0.00  0.00    +0.000 A 
ATOM      8  C   UNL     1      -0.392  10.743  18.429  0.00  0.00    +0.000 A 
ATOM      9  N   UNL     1      -1.219  10.259  17.468  0.00  0.00    +0.000 NA
ATOM     10  C   UNL     1      -2.528  10.620  17.569  0.00  0.00    +0.000 A 
BRANCH   6  11
ATOM     11  N   UNL     1      -2.545  12.774  20.606  0.00  0.00    +0.000 N 
ATOM     12  H   UNL     1      -3.283  12.436  21.217  0.00  0.00    +0.000 HD
ATOM     13  H   UNL     1      -1.768  13.175  21.126  0.00  0.00    +0.000 HD
ENDBRANCH   6  11
BRANCH   5  15
ATOM     14  C   UNL     1      -5.607  12.080  18.616  0.00  0.00    +0.000 C 
ATOM     15  C   UNL     1      -4.439  11.796  18.651  0.00  0.00    +0.000 C 
ENDBRANCH   5  15
BRANCH  10  16
ATOM     16  O   UNL     1      -3.398  10.182  16.579  0.00  0.00    +0.000 OA
BRANCH  16  17
ATOM     17  C   UNL     1      -3.236  10.894  15.349  0.00  0.00    +0.000 C 
ATOM     18  C   UNL     1      -3.339   9.926  14.181  0.00  0.00    +0.000 C 
ENDBRANCH  16  17
ENDBRANCH  10  16
ENDBRANCH   1   8
BRANCH   3  19
ATOM     19  C   UNL     1       2.694   8.574  17.876  0.00  0.00    +0.000 C 
BRANCH  19  20
ATOM     20  C   UNL     1       2.791   7.149  18.370  0.00  0.00    +0.000 A 
ATOM     21  C   UNL     1       2.274   6.798  19.628  0.00  0.00    +0.000 A 
ATOM     22  C   UNL     1       2.412   5.498  20.121  0.00  0.00    +0.000 A 
ATOM     23  C   UNL     1       3.068   4.537  19.349  0.00  0.00    +0.000 A 
ATOM     24  C   UNL     1       3.574   4.863  18.088  0.00  0.00    +0.000 A 
ATOM     25  C   UNL     1       3.431   6.165  17.602  0.00  0.00    +0.000 A 
BRANCH  23  26
ATOM     26  S   UNL     1       3.381   2.925  20.031  0.00  0.00    +0.000 S 
ATOM     27  C   UNL     1       2.514   1.823  18.948  0.00  0.00    +0.000 C 
ATOM     28  O   UNL     1       4.801   2.661  19.894  0.00  0.00    +0.000 OA
ATOM     29  O   UNL     1       2.740   2.867  21.332  0.00  0.00    +0.000 OA
ENDBRANCH  23  26
ENDBRANCH  19  20
ENDBRANCH   3  19
TORSDOF 8
ENDMDL
MODEL 7
REMARK VINA RESULT:      -6.8      1.452      2.755
REMARK  Name = 
REMARK  10 active torsions:
REMARK  status: ('A' for Active; 'I' for Inactive)
REMARK    1  A    between atoms: C_2  and  C_3
REMARK    2  A    between atoms: C_4  and  N_5
REMARK    3  A    between atoms: C_7  and  C_8
REMARK    4  A    between atoms: N_10  and  C_11
REMARK    5  A    between atoms: C_11  and  C_12
REMARK    6  A    between atoms: C_15  and  S_16
REMARK    7  A    between atoms: S_16  and  C_17
REMARK    8  A    between atoms: C_23  and  O_24
REMARK    9  A    between atoms: O_24  and  C_25
REMARK   10  A    between atoms: C_25  and  C_26
REMARK                            x       y       z     vdW  Elec       q    Type
REMARK                         _______ _______ _______ _____ _____    ______ ____
ROOT
ATOM      1  C   UNL     1       0.535  10.075  18.817  0.00  0.00    +0.000 C 
ATOM      2  O   UNL     1       1.080  10.460  19.849  0.00  0.00    +0.000 OA
ATOM      3  N   UNL     1       1.129   9.193  17.939  0.00  0.00    +0.000 N 
ATOM      4  H   UNL     1       0.626   8.965  17.087  0.00  0.00    +0.000 HD
ENDROOT
BRANCH   1   8
ATOM      5  C   UNL     1      -3.366  11.410  17.784  0.00  0.00    +0.000 A 
ATOM      6  C   UNL     1      -2.706  10.486  16.948  0.00  0.00    +0.000 A 
ATOM      7  C   UNL     1      -1.450  10.020  17.334  0.00  0.00    +0.000 A 
ATOM      8  C   UNL     1      -0.850  10.541  18.472  0.00  0.00    +0.000 A 
ATOM      9  N   UNL     1      -1.425  11.475  19.271  0.00  0.00    +0.000 NA
ATOM     10  C   UNL     1      -2.673  11.885  18.909  0.00  0.00    +0.000 A 
BRANCH   6  11
ATOM     11  N   UNL     1      -3.339   9.857  15.857  0.00  0.00    +0.000 N 
ATOM     12  H   UNL     1      -3.749  10.499  15.185  0.00  0.00    +0.000 HD
ATOM     13  H   UNL     1      -2.783   9.134  15.408  0.00  0.00    +0.000 HD
ENDBRANCH   6  11
BRANCH   5  15
ATOM     14  C   UNL     1      -5.781  12.313  17.220  0.00  0.00    +0.000 C 
ATOM     15  C   UNL     1      -4.686  11.867  17.442  0.00  0.00    +0.000 C 
ENDBRANCH   5  15
BRANCH  10  16
ATOM     16  O   UNL     1      -3.314  12.806  19.727  0.00  0.00    +0.000 OA
BRANCH  16  17
ATOM     17  C   UNL     1      -3.319  12.412  21.102  0.00  0.00    +0.000 C 
ATOM     18  C   UNL     1      -3.763  13.580  21.966  0.00  0.00    +0.000 C 
ENDBRANCH  16  17
ENDBRANCH  10  16
ENDBRANCH   1   8
BRANCH   3  19
ATOM     19  C   UNL     1       2.437   8.628  18.199  0.00  0.00    +0.000 C 
BRANCH  19  20
ATOM     20  C   UNL     1       2.361   7.220  18.742  0.00  0.00    +0.000 A 
ATOM     21  C   UNL     1       2.040   6.997  20.092  0.00  0.00    +0.000 A 
ATOM     22  C   UNL     1       2.027   5.703  20.620  0.00  0.00    +0.000 A 
ATOM     23  C   UNL     1       2.333   4.621  19.793  0.00  0.00    +0.000 A 
ATOM     24  C   UNL     1       2.638   4.821  18.444  0.00  0.00    +0.000 A 
ATOM     25  C   UNL     1       2.648   6.118  17.923  0.00  0.00    +0.000 A 
BRANCH  23  26
ATOM     26  S   UNL     1       2.466   2.991  20.491  0.00  0.00    +0.000 S 
ATOM     27  C   UNL     1       4.107   2.474  20.069  0.00  0.00    +0.000 C 
ATOM     28  O   UNL     1       2.398   3.127  21.934  0.00  0.00    +0.000 OA
ATOM     29  O   UNL     1       1.533   2.133  19.784  0.00  0.00    +0.000 OA
ENDBRANCH  23  26
ENDBRANCH  19  20
ENDBRANCH   3  19
TORSDOF 8
ENDMDL
MODEL 8
REMARK VINA RESULT:      -6.8      1.547      1.960
REMARK  Name = 
REMARK  10 active torsions:
REMARK  status: ('A' for Active; 'I' for Inactive)
REMARK    1  A    between atoms: C_2  and  C_3
REMARK    2  A    between atoms: C_4  and  N_5
REMARK    3  A    between atoms: C_7  and  C_8
REMARK    4  A    between atoms: N_10  and  C_11
REMARK    5  A    between atoms: C_11  and  C_12
REMARK    6  A    between atoms: C_15  and  S_16
REMARK    7  A    between atoms: S_16  and  C_17
REMARK    8  A    between atoms: C_23  and  O_24
REMARK    9  A    between atoms: O_24  and  C_25
REMARK   10  A    between atoms: C_25  and  C_26
REMARK                            x       y       z     vdW  Elec       q    Type
REMARK                         _______ _______ _______ _____ _____    ______ ____
ROOT
ATOM      1  C   UNL     1       0.617  10.648  18.654  0.00  0.00    +0.000 C 
ATOM      2  O   UNL     1       1.176  11.159  19.621  0.00  0.00    +0.000 OA
ATOM      3  N   UNL     1       1.271   9.834  17.754  0.00  0.00    +0.000 N 
ATOM      4  H   UNL     1       0.743   9.491  16.957  0.00  0.00    +0.000 HD
ENDROOT
BRANCH   1   8
ATOM      5  C   UNL     1      -3.545  11.264  18.050  0.00  0.00    +0.000 A 
ATOM      6  C   UNL     1      -2.889  11.943  19.097  0.00  0.00    +0.000 A 
ATOM      7  C   UNL     1      -1.514  11.769  19.243  0.00  0.00    +0.000 A 
ATOM      8  C   UNL     1      -0.849  10.871  18.420  0.00  0.00    +0.000 A 
ATOM      9  N   UNL     1      -1.454  10.153  17.440  0.00  0.00    +0.000 NA
ATOM     10  C   UNL     1      -2.788  10.370  17.276  0.00  0.00    +0.000 A 
BRANCH   6  11
ATOM     11  N   UNL     1      -3.515  12.944  19.867  0.00  0.00    +0.000 N 
ATOM     12  H   UNL     1      -4.191  12.593  20.539  0.00  0.00    +0.000 HD
ATOM     13  H   UNL     1      -2.876  13.618  20.281  0.00  0.00    +0.000 HD
ENDBRANCH   6  11
BRANCH   5  15
ATOM     14  C   UNL     1      -6.144  11.612  17.750  0.00  0.00    +0.000 C 
ATOM     15  C   UNL     1      -4.953  11.466  17.839  0.00  0.00    +0.000 C 
ENDBRANCH   5  15
BRANCH  10  16
ATOM     16  O   UNL     1      -3.434   9.688  16.253  0.00  0.00    +0.000 OA
BRANCH  16  17
ATOM     17  C   UNL     1      -2.795   9.863  14.986  0.00  0.00    +0.000 C 
ATOM     18  C   UNL     1      -3.847  10.040  13.903  0.00  0.00    +0.000 C 
ENDBRANCH  16  17
ENDBRANCH  10  16
ENDBRANCH   1   8
BRANCH   3  19
ATOM     19  C   UNL     1       2.670   9.496  17.912  0.00  0.00    +0.000 C 
BRANCH  19  20
ATOM     20  C   UNL     1       2.912   8.005  17.891  0.00  0.00    +0.000 A 
ATOM     21  C   UNL     1       4.084   7.485  17.316  0.00  0.00    +0.000 A 
ATOM     22  C   UNL     1       4.291   6.105  17.237  0.00  0.00    +0.000 A 
ATOM     23  C   UNL     1       3.321   5.236  17.740  0.00  0.00    +0.000 A 
ATOM     24  C   UNL     1       2.158   5.734  18.331  0.00  0.00    +0.000 A 
ATOM     25  C   UNL     1       1.959   7.115  18.408  0.00  0.00    +0.000 A 
BRANCH  23  26
ATOM     26  S   UNL     1       3.506   3.482  17.507  0.00  0.00    +0.000 S 
ATOM     27  C   UNL     1       3.807   2.860  19.137  0.00  0.00    +0.000 C 
ATOM     28  O   UNL     1       2.227   2.964  17.060  0.00  0.00    +0.000 OA
ATOM     29  O   UNL     1       4.706   3.268  16.719  0.00  0.00    +0.000 OA
ENDBRANCH  23  26
ENDBRANCH  19  20
ENDBRANCH   3  19
TORSDOF 8
ENDMDL
MODEL 9
REMARK VINA RESULT:      -6.8      4.121      5.109
REMARK  Name = 
REMARK  10 active torsions:
REMARK  status: ('A' for Active; 'I' for Inactive)
REMARK    1  A    between atoms: C_2  and  C_3
REMARK    2  A    between atoms: C_4  and  N_5
REMARK    3  A    between atoms: C_7  and  C_8
REMARK    4  A    between atoms: N_10  and  C_11
REMARK    5  A    between atoms: C_11  and  C_12
REMARK    6  A    between atoms: C_15  and  S_16
REMARK    7  A    between atoms: S_16  and  C_17
REMARK    8  A    between atoms: C_23  and  O_24
REMARK    9  A    between atoms: O_24  and  C_25
REMARK   10  A    between atoms: C_25  and  C_26
REMARK                            x       y       z     vdW  Elec       q    Type
REMARK                         _______ _______ _______ _____ _____    ______ ____
ROOT
ATOM      1  C   UNL     1       1.234   8.906  20.339  0.00  0.00    +0.000 C 
ATOM      2  O   UNL     1       0.904   8.432  21.423  0.00  0.00    +0.000 OA
ATOM      3  N   UNL     1       1.897   8.179  19.372  0.00  0.00    +0.000 N 
ATOM      4  H   UNL     1       2.172   8.664  18.524  0.00  0.00    +0.000 HD
ENDROOT
BRANCH   1   8
ATOM      5  C   UNL     1       0.332  12.949  19.384  0.00  0.00    +0.000 A 
ATOM      6  C   UNL     1       1.350  12.279  18.674  0.00  0.00    +0.000 A 
ATOM      7  C   UNL     1       1.591  10.938  18.965  0.00  0.00    +0.000 A 
ATOM      8  C   UNL     1       0.895  10.328  19.999  0.00  0.00    +0.000 A 
ATOM      9  N   UNL     1      -0.050  10.954  20.746  0.00  0.00    +0.000 NA
ATOM     10  C   UNL     1      -0.311  12.250  20.417  0.00  0.00    +0.000 A 
BRANCH   6  11
ATOM     11  N   UNL     1       1.987  12.837  17.547  0.00  0.00    +0.000 N 
ATOM     12  H   UNL     1       1.381  12.954  16.740  0.00  0.00    +0.000 HD
ATOM     13  H   UNL     1       2.533  13.672  17.742  0.00  0.00    +0.000 HD
ENDBRANCH   6  11
BRANCH   5  15
ATOM     14  C   UNL     1      -0.285  15.465  18.881  0.00  0.00    +0.000 C 
ATOM     15  C   UNL     1       0.022  14.316  19.067  0.00  0.00    +0.000 C 
ENDBRANCH   5  15
BRANCH  10  16
ATOM     16  O   UNL     1      -1.304  12.911  21.129  0.00  0.00    +0.000 OA
BRANCH  16  17
ATOM     17  C   UNL     1      -1.162  12.757  22.544  0.00  0.00    +0.000 C 
ATOM     18  C   UNL     1      -2.472  12.265  23.138  0.00  0.00    +0.000 C 
ENDBRANCH  16  17
ENDBRANCH  10  16
ENDBRANCH   1   8
BRANCH   3  19
ATOM     19  C   UNL     1       2.220   6.781  19.562  0.00  0.00    +0.000 C 
BRANCH  19  20
ATOM     20  C   UNL     1       3.476   6.372  18.828  0.00  0.00    +0.000 A 
ATOM     21  C   UNL     1       3.832   7.004  17.625  0.00  0.00    +0.000 A 
ATOM     22  C   UNL     1       4.957   6.593  16.906  0.00  0.00    +0.000 A 
ATOM     23  C   UNL     1       5.739   5.545  17.394  0.00  0.00    +0.000 A 
ATOM     24  C   UNL     1       5.411   4.915  18.598  0.00  0.00    +0.000 A 
ATOM     25  C   UNL     1       4.284   5.333  19.312  0.00  0.00    +0.000 A 
BRANCH  23  26
ATOM     26  S   UNL     1       7.082   4.917  16.412  0.00  0.00    +0.000 S 
ATOM     27  C   UNL     1       6.314   3.743  15.331  0.00  0.00    +0.000 C 
ATOM     28  O   UNL     1       7.577   6.013  15.600  0.00  0.00    +0.000 OA
ATOM     29  O   UNL     1       7.972   4.192  17.299  0.00  0.00    +0.000 OA
ENDBRANCH  23  26
ENDBRANCH  19  20
ENDBRANCH   3  19
TORSDOF 8
ENDMDL
