MODEL 1
REMARK VINA RESULT:      -7.6      0.000      0.000
REMARK  Name = 
REMARK  8 active torsions:
REMARK  status: ('A' for Active; 'I' for Inactive)
REMARK    1  A    between atoms: C_2  and  C_3
REMARK    2  A    between atoms: C_3  and  C_4
REMARK    3  A    between atoms: C_4  and  N_5
REMARK    4  A    between atoms: N_5  and  S_6
REMARK    5  A    between atoms: S_6  and  C_9
REMARK    6  A    between atoms: C_14  and  O_15
REMARK    7  A    between atoms: N_19  and  C_20
REMARK    8  A    between atoms: C_20  and  C_21
REMARK                            x       y       z     vdW  Elec       q    Type
REMARK                         _______ _______ _______ _____ _____    ______ ____
ROOT
ATOM      1  N   UNL     1       2.451   2.233  19.556  0.00  0.00    +0.000 NA
ATOM      2  H   UNL     1       2.092   2.867  18.836  0.00  0.00    +0.000 HD
ENDROOT
BRANCH   1   3
ATOM      3  S   UNL     1       4.112   1.995  19.224  0.00  0.00    +0.000 S 
ATOM      4  O   UNL     1       4.795   2.009  20.491  0.00  0.00    +0.000 OA
ATOM      5  O   UNL     1       4.200   0.854  18.333  0.00  0.00    +0.000 OA
BRANCH   3   6
ATOM      6  C   UNL     1       4.611   3.455  18.328  0.00  0.00    +0.000 A 
ATOM      7  C   UNL     1       4.138   3.672  17.020  0.00  0.00    +0.000 A 
ATOM      8  C   UNL     1       4.613   4.747  16.248  0.00  0.00    +0.000 A 
ATOM      9  C   UNL     1       5.581   5.596  16.814  0.00  0.00    +0.000 A 
ATOM     10  N   UNL     1       6.239   6.692  16.302  0.00  0.00    +0.000 NA
ATOM     11  C   UNL     1       7.021   7.032  17.297  0.00  0.00    +0.000 A 
ATOM     12  O   UNL     1       6.954   6.283  18.424  0.00  0.00    +0.000 OA
ATOM     13  C   UNL     1       6.013   5.344  18.107  0.00  0.00    +0.000 A 
ATOM     14  C   UNL     1       5.566   4.299  18.915  0.00  0.00    +0.000 A 
BRANCH  11  15
ATOM     15  O   UNL     1       7.873   8.030  17.292  0.00  0.00    +0.000 OA
ATOM     16  H   UNL     1       7.289   8.794  17.413  0.00  0.00    +0.000 HD
ENDBRANCH  11  15
ENDBRANCH   3   6
ENDBRANCH   1   3
BRANCH   1  17
ATOM     17  C   UNL     1       2.155   2.641  20.946  0.00  0.00    +0.000 C 
BRANCH  17  18
ATOM     18  C   UNL     1       1.263   3.879  21.018  0.00  0.00    +0.000 C 
BRANCH  18  20
ATOM     19  O   UNL     1       1.227   4.655  18.726  0.00  0.00    +0.000 OA
ATOM     20  C   UNL     1       1.632   4.822  19.874  0.00  0.00    +0.000 C 
ATOM     21  N   UNL     1       2.442   5.871  20.239  0.00  0.00    +0.000 N 
ATOM     22  H   UNL     1       2.761   5.946  21.195  0.00  0.00    +0.000 HD
BRANCH  21  23
ATOM     23  C   UNL     1       2.905   6.879  19.299  0.00  0.00    +0.000 C 
BRANCH  23  24
ATOM     24  C   UNL     1       1.978   8.069  19.272  0.00  0.00    +0.000 A 
ATOM     25  C   UNL     1       1.722   8.733  18.064  0.00  0.00    +0.000 A 
ATOM     26  C   UNL     1       0.926   9.880  18.036  0.00  0.00    +0.000 A 
ATOM     27  C   UNL     1       0.345  10.358  19.210  0.00  0.00    +0.000 A 
ATOM     28  C   UNL     1       0.556   9.684  20.411  0.00  0.00    +0.000 A 
ATOM     29  C   UNL     1       1.385   8.557  20.448  0.00  0.00    +0.000 A 
ENDBRANCH  23  24
ENDBRANCH  21  23
ENDBRANCH  18  20
ENDBRANCH  17  18
ENDBRANCH   1  17
TORSDOF 8
ENDMDL
MODEL 2
REMARK VINA RESULT:      -7.5      2.405      2.904
REMARK  Name = 
REMARK  8 active torsions:
REMARK  status: ('A' for Active; 'I' for Inactive)
REMARK    1  A    between atoms: C_2  and  C_3
REMARK    2  A    between atoms: C_3  and  C_4
REMARK    3  A    between atoms: C_4  and  N_5
REMARK    4  A    between atoms: N_5  and  S_6
REMARK    5  A    between atoms: S_6  and  C_9
REMARK    6  A    between atoms: C_14  and  O_15
REMARK    7  A    between atoms: N_19  and  C_20
REMARK    8  A    between atoms: C_20  and  C_21
REMARK                            x       y       z     vdW  Elec       q    Type
REMARK                         _______ _______ _______ _____ _____    ______ ____
ROOT
ATOM      1  N   UNL     1       3.070   3.672  18.424  0.00  0.00    +0.000 NA
ATOM      2  H   UNL     1       2.512   4.528  18.497  0.00  0.00    +0.000 HD
ENDROOT
BRANCH   1   3
ATOM      3  S   UNL     1       4.617   4.031  19.061  0.00  0.00    +0.000 S 
ATOM      4  O   UNL     1       4.481   5.247  19.819  0.00  0.00    +0.000 OA
ATOM      5  O   UNL     1       5.108   2.812  19.674  0.00  0.00    +0.000 OA
BRANCH   3   6
ATOM      6  C   UNL     1       5.624   4.396  17.634  0.00  0.00    +0.000 A 
ATOM      7  C   UNL     1       6.559   5.447  17.685  0.00  0.00    +0.000 A 
ATOM      8  C   UNL     1       7.274   5.834  16.538  0.00  0.00    +0.000 A 
ATOM      9  C   UNL     1       7.024   5.150  15.335  0.00  0.00    +0.000 A 
ATOM     10  N   UNL     1       7.540   5.319  14.070  0.00  0.00    +0.000 NA
ATOM     11  C   UNL     1       6.902   4.399  13.388  0.00  0.00    +0.000 A 
ATOM     12  O   UNL     1       6.016   3.627  14.063  0.00  0.00    +0.000 OA
ATOM     13  C   UNL     1       6.096   4.120  15.336  0.00  0.00    +0.000 A 
ATOM     14  C   UNL     1       5.370   3.692  16.447  0.00  0.00    +0.000 A 
BRANCH  11  15
ATOM     15  O   UNL     1       7.040   4.167  12.104  0.00  0.00    +0.000 OA
ATOM     16  H   UNL     1       6.982   3.200  12.065  0.00  0.00    +0.000 HD
ENDBRANCH  11  15
ENDBRANCH   3   6
ENDBRANCH   1   3
BRANCH   1  17
ATOM     17  C   UNL     1       2.435   2.467  18.999  0.00  0.00    +0.000 C 
BRANCH  17  18
ATOM     18  C   UNL     1       1.252   2.802  19.906  0.00  0.00    +0.000 C 
BRANCH  18  20
ATOM     19  O   UNL     1       2.134   3.853  21.900  0.00  0.00    +0.000 OA
ATOM     20  C   UNL     1       1.628   3.991  20.789  0.00  0.00    +0.000 C 
ATOM     21  N   UNL     1       1.361   5.220  20.234  0.00  0.00    +0.000 N 
ATOM     22  H   UNL     1       0.924   5.272  19.324  0.00  0.00    +0.000 HD
BRANCH  21  23
ATOM     23  C   UNL     1       1.646   6.474  20.912  0.00  0.00    +0.000 C 
BRANCH  23  24
ATOM     24  C   UNL     1       1.706   7.622  19.935  0.00  0.00    +0.000 A 
ATOM     25  C   UNL     1       1.094   8.844  20.249  0.00  0.00    +0.000 A 
ATOM     26  C   UNL     1       1.078   9.891  19.325  0.00  0.00    +0.000 A 
ATOM     27  C   UNL     1       1.705   9.744  18.088  0.00  0.00    +0.000 A 
ATOM     28  C   UNL     1       2.354   8.550  17.780  0.00  0.00    +0.000 A 
ATOM     29  C   UNL     1       2.339   7.486  18.688  0.00  0.00    +0.000 A 
ENDBRANCH  23  24
ENDBRANCH  21  23
ENDBRANCH  18  20
ENDBRANCH  17  18
ENDBRANCH   1  17
TORSDOF 8
ENDMDL
MODEL 3
REMARK VINA RESULT:      -7.5      2.846      5.817
REMARK  Name = 
REMARK  8 active torsions:
REMARK  status: ('A' for Active; 'I' for Inactive)
REMARK    1  A    between atoms: C_2  and  C_3
REMARK    2  A    between atoms: C_3  and  C_4
REMARK    3  A    between atoms: C_4  and  N_5
REMARK    4  A    between atoms: N_5  and  S_6
REMARK    5  A    between atoms: S_6  and  C_9
REMARK    6  A    between atoms: C_14  and  O_15
REMARK    7  A    between atoms: N_19  and  C_20
REMARK    8  A    between atoms: C_20  and  C_21
REMARK                            x       y       z     vdW  Elec       q    Type
REMARK                         _______ _______ _______ _____ _____    ______ ____
ROOT
ATOM      1  N   UNL     1       1.740   4.461  19.036  0.00  0.00    +0.000 NA
ATOM      2  H   UNL     1       0.839   4.906  18.836  0.00  0.00    +0.000 HD
ENDROOT
BRANCH   1   3
ATOM      3  S   UNL     1       2.616   5.540  20.033  0.00  0.00    +0.000 S 
ATOM      4  O   UNL     1       2.135   5.348  21.376  0.00  0.00    +0.000 OA
ATOM      5  O   UNL     1       4.018   5.368  19.702  0.00  0.00    +0.000 OA
BRANCH   3   6
ATOM      6  C   UNL     1       2.104   7.165  19.505  0.00  0.00    +0.000 A 
ATOM      7  C   UNL     1       2.453   7.630  18.223  0.00  0.00    +0.000 A 
ATOM      8  C   UNL     1       2.170   8.950  17.831  0.00  0.00    +0.000 A 
ATOM      9  C   UNL     1       1.537   9.798  18.756  0.00  0.00    +0.000 A 
ATOM     10  N   UNL     1       1.165  11.121  18.669  0.00  0.00    +0.000 NA
ATOM     11  C   UNL     1       0.646  11.338  19.853  0.00  0.00    +0.000 A 
ATOM     12  O   UNL     1       0.626  10.301  20.723  0.00  0.00    +0.000 OA
ATOM     13  C   UNL     1       1.209   9.294  20.005  0.00  0.00    +0.000 A 
ATOM     14  C   UNL     1       1.460   7.992  20.438  0.00  0.00    +0.000 A 
BRANCH  11  15
ATOM     15  O   UNL     1       0.153  12.480  20.272  0.00  0.00    +0.000 OA
ATOM     16  H   UNL     1      -0.072  12.921  19.439  0.00  0.00    +0.000 HD
ENDBRANCH  11  15
ENDBRANCH   3   6
ENDBRANCH   1   3
BRANCH   1  17
ATOM     17  C   UNL     1       1.647   3.081  19.559  0.00  0.00    +0.000 C 
BRANCH  17  18
ATOM     18  C   UNL     1       2.514   2.095  18.776  0.00  0.00    +0.000 C 
BRANCH  18  20
ATOM     19  O   UNL     1       2.332   3.075  16.570  0.00  0.00    +0.000 OA
ATOM     20  C   UNL     1       3.050   2.793  17.527  0.00  0.00    +0.000 C 
ATOM     21  N   UNL     1       4.392   3.085  17.569  0.00  0.00    +0.000 N 
ATOM     22  H   UNL     1       4.938   2.811  18.375  0.00  0.00    +0.000 HD
BRANCH  21  23
ATOM     23  C   UNL     1       5.094   3.748  16.482  0.00  0.00    +0.000 C 
BRANCH  23  24
ATOM     24  C   UNL     1       5.962   4.870  16.994  0.00  0.00    +0.000 A 
ATOM     25  C   UNL     1       7.017   4.596  17.876  0.00  0.00    +0.000 A 
ATOM     26  C   UNL     1       7.782   5.632  18.416  0.00  0.00    +0.000 A 
ATOM     27  C   UNL     1       7.525   6.954  18.055  0.00  0.00    +0.000 A 
ATOM     28  C   UNL     1       6.507   7.238  17.148  0.00  0.00    +0.000 A 
ATOM     29  C   UNL     1       5.714   6.205  16.635  0.00  0.00    +0.000 A 
ENDBRANCH  23  24
ENDBRANCH  21  23
ENDBRANCH  18  20
ENDBRANCH  17  18
ENDBRANCH   1  17
TORSDOF 8
ENDMDL
MODEL 4
REMARK VINA RESULT:      -7.4      2.860      6.611
REMARK  Name = 
REMARK  8 active torsions:
REMARK  status: ('A' for Active; 'I' for Inactive)
REMARK    1  A    between atoms: C_2  and  C_3
REMARK    2  A    between atoms: C_3  and  C_4
REMARK    3  A    between atoms: C_4  and  N_5
REMARK    4  A    between atoms: N_5  and  S_6
REMARK    5  A    between atoms: S_6  and  C_9
REMARK    6  A    between atoms: C_14  and  O_15
REMARK    7  A    between atoms: N_19  and  C_20
REMARK    8  A    between atoms: C_20  and  C_21
REMARK                            x       y       z     vdW  Elec       q    Type
REMARK                         _______ _______ _______ _____ _____    ______ ____
ROOT
ATOM      1  N   UNL     1       3.974   7.189  17.378  0.00  0.00    +0.000 NA
ATOM      2  H   UNL     1       3.454   7.167  16.496  0.00  0.00    +0.000 HD
ENDROOT
BRANCH   1   3
ATOM      3  S   UNL     1       2.970   6.474  18.564  0.00  0.00    +0.000 S 
ATOM      4  O   UNL     1       2.074   5.587  17.869  0.00  0.00    +0.000 OA
ATOM      5  O   UNL     1       3.845   5.990  19.614  0.00  0.00    +0.000 OA
BRANCH   3   6
ATOM      6  C   UNL     1       1.998   7.822  19.211  0.00  0.00    +0.000 A 
ATOM      7  C   UNL     1       1.748   8.954  18.413  0.00  0.00    +0.000 A 
ATOM      8  C   UNL     1       1.093  10.081  18.941  0.00  0.00    +0.000 A 
ATOM      9  C   UNL     1       0.702  10.052  20.291  0.00  0.00    +0.000 A 
ATOM     10  N   UNL     1       0.079  10.995  21.077  0.00  0.00    +0.000 NA
ATOM     11  C   UNL     1       0.008  10.384  22.234  0.00  0.00    +0.000 A 
ATOM     12  O   UNL     1       0.512   9.129  22.307  0.00  0.00    +0.000 OA
ATOM     13  C   UNL     1       0.966   8.913  21.036  0.00  0.00    +0.000 A 
ATOM     14  C   UNL     1       1.603   7.768  20.557  0.00  0.00    +0.000 A 
BRANCH  11  15
ATOM     15  O   UNL     1      -0.501  10.889  23.334  0.00  0.00    +0.000 OA
ATOM     16  H   UNL     1      -0.074  11.758  23.373  0.00  0.00    +0.000 HD
ENDBRANCH  11  15
ENDBRANCH   3   6
ENDBRANCH   1   3
BRANCH   1  17
ATOM     17  C   UNL     1       5.338   6.623  17.307  0.00  0.00    +0.000 C 
BRANCH  17  18
ATOM     18  C   UNL     1       5.406   5.357  16.454  0.00  0.00    +0.000 C 
BRANCH  18  20
ATOM     19  O   UNL     1       6.144   3.894  18.236  0.00  0.00    +0.000 OA
ATOM     20  C   UNL     1       5.307   4.138  17.371  0.00  0.00    +0.000 C 
ATOM     21  N   UNL     1       4.202   3.349  17.152  0.00  0.00    +0.000 N 
ATOM     22  H   UNL     1       3.557   3.588  16.411  0.00  0.00    +0.000 HD
BRANCH  21  23
ATOM     23  C   UNL     1       3.924   2.145  17.918  0.00  0.00    +0.000 C 
BRANCH  23  24
ATOM     24  C   UNL     1       2.973   2.428  19.055  0.00  0.00    +0.000 A 
ATOM     25  C   UNL     1       1.600   2.566  18.804  0.00  0.00    +0.000 A 
ATOM     26  C   UNL     1       0.718   2.901  19.834  0.00  0.00    +0.000 A 
ATOM     27  C   UNL     1       1.191   3.066  21.135  0.00  0.00    +0.000 A 
ATOM     28  C   UNL     1       2.546   2.890  21.407  0.00  0.00    +0.000 A 
ATOM     29  C   UNL     1       3.438   2.593  20.370  0.00  0.00    +0.000 A 
ENDBRANCH  23  24
ENDBRANCH  21  23
ENDBRANCH  18  20
ENDBRANCH  17  18
ENDBRANCH   1  17
TORSDOF 8
ENDMDL
MODEL 5
REMARK VINA RESULT:      -7.3      0.794      1.428
REMARK  Name = 
REMARK  8 active torsions:
REMARK  status: ('A' for Active; 'I' for Inactive)
REMARK    1  A    between atoms: C_2  and  C_3
REMARK    2  A    between atoms: C_3  and  C_4
REMARK    3  A    between atoms: C_4  and  N_5
REMARK    4  A    between atoms: N_5  and  S_6
REMARK    5  A    between atoms: S_6  and  C_9
REMARK    6  A    between atoms: C_14  and  O_15
REMARK    7  A    between atoms: N_19  and  C_20
REMARK    8  A    between atoms: C_20  and  C_21
REMARK                            x       y       z     vdW  Elec       q    Type
REMARK                         _______ _______ _______ _____ _____    ______ ____
ROOT
ATOM      1  N   UNL     1       2.381   2.430  19.756  0.00  0.00    +0.000 NA
ATOM      2  H   UNL     1       2.049   3.156  19.113  0.00  0.00    +0.000 HD
ENDROOT
BRANCH   1   3
ATOM      3  S   UNL     1       3.993   2.073  19.311  0.00  0.00    +0.000 S 
ATOM      4  O   UNL     1       4.761   2.039  20.528  0.00  0.00    +0.000 OA
ATOM      5  O   UNL     1       3.937   0.927  18.424  0.00  0.00    +0.000 OA
BRANCH   3   6
ATOM      6  C   UNL     1       4.533   3.491  18.373  0.00  0.00    +0.000 A 
ATOM      7  C   UNL     1       4.131   3.640  17.032  0.00  0.00    +0.000 A 
ATOM      8  C   UNL     1       4.642   4.680  16.236  0.00  0.00    +0.000 A 
ATOM      9  C   UNL     1       5.572   5.563  16.810  0.00  0.00    +0.000 A 
ATOM     10  N   UNL     1       6.252   6.638  16.282  0.00  0.00    +0.000 NA
ATOM     11  C   UNL     1       6.976   7.032  17.300  0.00  0.00    +0.000 A 
ATOM     12  O   UNL     1       6.852   6.339  18.458  0.00  0.00    +0.000 OA
ATOM     13  C   UNL     1       5.934   5.378  18.136  0.00  0.00    +0.000 A 
ATOM     14  C   UNL     1       5.450   4.370  18.969  0.00  0.00    +0.000 A 
BRANCH  11  15
ATOM     15  O   UNL     1       7.822   8.035  17.292  0.00  0.00    +0.000 OA
ATOM     16  H   UNL     1       7.485   8.578  16.563  0.00  0.00    +0.000 HD
ENDBRANCH  11  15
ENDBRANCH   3   6
ENDBRANCH   1   3
BRANCH   1  17
ATOM     17  C   UNL     1       2.194   2.739  21.189  0.00  0.00    +0.000 C 
BRANCH  17  18
ATOM     18  C   UNL     1       2.597   4.171  21.540  0.00  0.00    +0.000 C 
BRANCH  18  20
ATOM     19  O   UNL     1       1.029   4.787  19.802  0.00  0.00    +0.000 OA
ATOM     20  C   UNL     1       1.957   5.125  20.533  0.00  0.00    +0.000 C 
ATOM     21  N   UNL     1       2.498   6.389  20.522  0.00  0.00    +0.000 N 
ATOM     22  H   UNL     1       3.275   6.605  21.131  0.00  0.00    +0.000 HD
BRANCH  21  23
ATOM     23  C   UNL     1       2.030   7.444  19.638  0.00  0.00    +0.000 C 
BRANCH  23  24
ATOM     24  C   UNL     1       1.320   8.529  20.409  0.00  0.00    +0.000 A 
ATOM     25  C   UNL     1       1.066   8.366  21.778  0.00  0.00    +0.000 A 
ATOM     26  C   UNL     1       0.345   9.329  22.489  0.00  0.00    +0.000 A 
ATOM     27  C   UNL     1      -0.099  10.485  21.849  0.00  0.00    +0.000 A 
ATOM     28  C   UNL     1       0.184  10.680  20.498  0.00  0.00    +0.000 A 
ATOM     29  C   UNL     1       0.872   9.700  19.775  0.00  0.00    +0.000 A 
ENDBRANCH  23  24
ENDBRANCH  21  23
ENDBRANCH  18  20
ENDBRANCH  17  18
ENDBRANCH   1  17
TORSDOF 8
ENDMDL
MODEL 6
REMARK VINA RESULT:      -7.3      2.757      6.308
REMARK  Name = 
REMARK  8 active torsions:
REMARK  status: ('A' for Active; 'I' for Inactive)
REMARK    1  A    between atoms: C_2  and  C_3
REMARK    2  A    between atoms: C_3  and  C_4
REMARK    3  A    between atoms: C_4  and  N_5
REMARK    4  A    between atoms: N_5  and  S_6
REMARK    5  A    between atoms: S_6  and  C_9
REMARK    6  A    between atoms: C_14  and  O_15
REMARK    7  A    between atoms: N_19  and  C_20
REMARK    8  A    between atoms: C_20  and  C_21
REMARK                            x       y       z     vdW  Elec       q    Type
REMARK                         _______ _______ _______ _____ _____    ______ ____
ROOT
ATOM      1  N   UNL     1       4.485   6.031  18.957  0.00  0.00    +0.000 NA
ATOM      2  H   UNL     1       4.251   6.471  19.852  0.00  0.00    +0.000 HD
ENDROOT
BRANCH   1   3
ATOM      3  S   UNL     1       3.263   6.482  17.847  0.00  0.00    +0.000 S 
ATOM      4  O   UNL     1       3.918   7.179  16.771  0.00  0.00    +0.000 OA
ATOM      5  O   UNL     1       2.464   5.296  17.602  0.00  0.00    +0.000 OA
BRANCH   3   6
ATOM      6  C   UNL     1       2.264   7.668  18.728  0.00  0.00    +0.000 A 
ATOM      7  C   UNL     1       1.805   8.825  18.071  0.00  0.00    +0.000 A 
ATOM      8  C   UNL     1       1.123   9.834  18.774  0.00  0.00    +0.000 A 
ATOM      9  C   UNL     1       0.919   9.661  20.154  0.00  0.00    +0.000 A 
ATOM     10  N   UNL     1       0.320  10.471  21.093  0.00  0.00    +0.000 NA
ATOM     11  C   UNL     1       0.461   9.770  22.191  0.00  0.00    +0.000 A 
ATOM     12  O   UNL     1       1.085   8.572  22.088  0.00  0.00    +0.000 OA
ATOM     13  C   UNL     1       1.385   8.503  20.756  0.00  0.00    +0.000 A 
ATOM     14  C   UNL     1       2.058   7.471  20.102  0.00  0.00    +0.000 A 
BRANCH  11  15
ATOM     15  O   UNL     1       0.057  10.133  23.385  0.00  0.00    +0.000 OA
ATOM     16  H   UNL     1      -0.907  10.137  23.281  0.00  0.00    +0.000 HD
ENDBRANCH  11  15
ENDBRANCH   3   6
ENDBRANCH   1   3
BRANCH   1  17
ATOM     17  C   UNL     1       5.864   6.279  18.485  0.00  0.00    +0.000 C 
BRANCH  17  18
ATOM     18  C   UNL     1       6.634   4.988  18.212  0.00  0.00    +0.000 C 
BRANCH  18  20
ATOM     19  O   UNL     1       5.117   3.479  17.080  0.00  0.00    +0.000 OA
ATOM     20  C   UNL     1       5.642   3.828  18.135  0.00  0.00    +0.000 C 
ATOM     21  N   UNL     1       5.398   3.207  19.337  0.00  0.00    +0.000 N 
ATOM     22  H   UNL     1       5.843   3.550  20.176  0.00  0.00    +0.000 HD
BRANCH  21  23
ATOM     23  C   UNL     1       4.487   2.082  19.476  0.00  0.00    +0.000 C 
BRANCH  23  24
ATOM     24  C   UNL     1       3.061   2.550  19.633  0.00  0.00    +0.000 A 
ATOM     25  C   UNL     1       2.730   3.468  20.639  0.00  0.00    +0.000 A 
ATOM     26  C   UNL     1       1.403   3.853  20.844  0.00  0.00    +0.000 A 
ATOM     27  C   UNL     1       0.394   3.354  20.022  0.00  0.00    +0.000 A 
ATOM     28  C   UNL     1       0.714   2.473  18.991  0.00  0.00    +0.000 A 
ATOM     29  C   UNL     1       2.037   2.056  18.808  0.00  0.00    +0.000 A 
ENDBRANCH  23  24
ENDBRANCH  21  23
ENDBRANCH  18  20
ENDBRANCH  17  18
ENDBRANCH   1  17
TORSDOF 8
ENDMDL
MODEL 7
REMARK VINA RESULT:      -7.2      2.355      3.430
REMARK  Name = 
REMARK  8 active torsions:
REMARK  status: ('A' for Active; 'I' for Inactive)
REMARK    1  A    between atoms: C_2  and  C_3
REMARK    2  A    between atoms: C_3  and  C_4
REMARK    3  A    between atoms: C_4  and  N_5
REMARK    4  A    between atoms: N_5  and  S_6
REMARK    5  A    between atoms: S_6  and  C_9
REMARK    6  A    between atoms: C_14  and  O_15
REMARK    7  A    between atoms: N_19  and  C_20
REMARK    8  A    between atoms: C_20  and  C_21
REMARK                            x       y       z     vdW  Elec       q    Type
REMARK                         _______ _______ _______ _____ _____    ______ ____
ROOT
ATOM      1  N   UNL     1       2.336   4.997  19.504  0.00  0.00    +0.000 NA
ATOM      2  H   UNL     1       1.543   4.777  20.113  0.00  0.00    +0.000 HD
ENDROOT
BRANCH   1   3
ATOM      3  S   UNL     1       2.980   3.506  18.967  0.00  0.00    +0.000 S 
ATOM      4  O   UNL     1       3.400   2.788  20.142  0.00  0.00    +0.000 OA
ATOM      5  O   UNL     1       2.011   2.942  18.046  0.00  0.00    +0.000 OA
BRANCH   3   6
ATOM      6  C   UNL     1       4.446   3.945  18.051  0.00  0.00    +0.000 A 
ATOM      7  C   UNL     1       5.569   4.459  18.727  0.00  0.00    +0.000 A 
ATOM      8  C   UNL     1       6.688   4.928  18.018  0.00  0.00    +0.000 A 
ATOM      9  C   UNL     1       6.653   4.881  16.613  0.00  0.00    +0.000 A 
ATOM     10  N   UNL     1       7.568   5.285  15.667  0.00  0.00    +0.000 NA
ATOM     11  C   UNL     1       6.951   4.997  14.547  0.00  0.00    +0.000 A 
ATOM     12  O   UNL     1       5.721   4.438  14.641  0.00  0.00    +0.000 OA
ATOM     13  C   UNL     1       5.527   4.363  15.992  0.00  0.00    +0.000 A 
ATOM     14  C   UNL     1       4.397   3.877  16.651  0.00  0.00    +0.000 A 
BRANCH  11  15
ATOM     15  O   UNL     1       7.419   5.214  13.341  0.00  0.00    +0.000 OA
ATOM     16  H   UNL     1       6.732   5.779  12.956  0.00  0.00    +0.000 HD
ENDBRANCH  11  15
ENDBRANCH   3   6
ENDBRANCH   1   3
BRANCH   1  17
ATOM     17  C   UNL     1       2.039   5.961  18.424  0.00  0.00    +0.000 C 
BRANCH  17  18
ATOM     18  C   UNL     1       2.999   7.151  18.416  0.00  0.00    +0.000 C 
BRANCH  18  20
ATOM     19  O   UNL     1       2.211   9.065  17.162  0.00  0.00    +0.000 OA
ATOM     20  C   UNL     1       2.194   8.434  18.216  0.00  0.00    +0.000 C 
ATOM     21  N   UNL     1       1.446   8.813  19.305  0.00  0.00    +0.000 N 
ATOM     22  H   UNL     1       1.487   8.265  20.154  0.00  0.00    +0.000 HD
BRANCH  21  23
ATOM     23  C   UNL     1       0.610  10.003  19.318  0.00  0.00    +0.000 C 
BRANCH  23  24
ATOM     24  C   UNL     1       0.040  10.256  20.691  0.00  0.00    +0.000 A 
ATOM     25  C   UNL     1       0.190   9.296  21.702  0.00  0.00    +0.000 A 
ATOM     26  C   UNL     1      -0.396   9.484  22.956  0.00  0.00    +0.000 A 
ATOM     27  C   UNL     1      -1.109  10.651  23.228  0.00  0.00    +0.000 A 
ATOM     28  C   UNL     1      -1.230  11.632  22.247  0.00  0.00    +0.000 A 
ATOM     29  C   UNL     1      -0.677  11.429  20.978  0.00  0.00    +0.000 A 
ENDBRANCH  23  24
ENDBRANCH  21  23
ENDBRANCH  18  20
ENDBRANCH  17  18
ENDBRANCH   1  17
TORSDOF 8
ENDMDL
MODEL 8
REMARK VINA RESULT:      -7.2      2.841      4.013
REMARK  Name = 
REMARK  8 active torsions:
REMARK  status: ('A' for Active; 'I' for Inactive)
REMARK    1  A    between atoms: C_2  and  C_3
REMARK    2  A    between atoms: C_3  and  C_4
REMARK    3  A    between atoms: C_4  and  N_5
REMARK    4  A    between atoms: N_5  and  S_6
REMARK    5  A    between atoms: S_6  and  C_9
REMARK    6  A    between atoms: C_14  and  O_15
REMARK    7  A    between atoms: N_19  and  C_20
REMARK    8  A    between atoms: C_20  and  C_21
REMARK                            x       y       z     vdW  Elec       q    Type
REMARK                         _______ _______ _______ _____ _____    ______ ____
ROOT
ATOM      1  N   UNL     1       2.947   6.393  20.110  0.00  0.00    +0.000 NA
ATOM      2  H   UNL     1       2.899   6.295  21.128  0.00  0.00    +0.000 HD
ENDROOT
BRANCH   1   3
ATOM      3  S   UNL     1       2.906   4.812  19.457  0.00  0.00    +0.000 S 
ATOM      4  O   UNL     1       3.099   3.904  20.558  0.00  0.00    +0.000 OA
ATOM      5  O   UNL     1       1.726   4.738  18.618  0.00  0.00    +0.000 OA
BRANCH   3   6
ATOM      6  C   UNL     1       4.351   4.711  18.416  0.00  0.00    +0.000 A 
ATOM      7  C   UNL     1       5.632   4.883  18.974  0.00  0.00    +0.000 A 
ATOM      8  C   UNL     1       6.775   4.932  18.158  0.00  0.00    +0.000 A 
ATOM      9  C   UNL     1       6.606   4.815  16.767  0.00  0.00    +0.000 A 
ATOM     10  N   UNL     1       7.516   4.852  15.734  0.00  0.00    +0.000 NA
ATOM     11  C   UNL     1       6.745   4.708  14.684  0.00  0.00    +0.000 A 
ATOM     12  O   UNL     1       5.415   4.572  14.902  0.00  0.00    +0.000 OA
ATOM     13  C   UNL     1       5.325   4.643  16.265  0.00  0.00    +0.000 A 
ATOM     14  C   UNL     1       4.162   4.578  17.032  0.00  0.00    +0.000 A 
BRANCH  11  15
ATOM     15  O   UNL     1       7.151   4.694  13.436  0.00  0.00    +0.000 OA
ATOM     16  H   UNL     1       6.314   4.624  12.952  0.00  0.00    +0.000 HD
ENDBRANCH  11  15
ENDBRANCH   3   6
ENDBRANCH   1   3
BRANCH   1  17
ATOM     17  C   UNL     1       1.955   7.322  19.528  0.00  0.00    +0.000 C 
BRANCH  17  18
ATOM     18  C   UNL     1       2.456   7.992  18.249  0.00  0.00    +0.000 C 
BRANCH  18  20
ATOM     19  O   UNL     1       2.419  10.298  17.514  0.00  0.00    +0.000 OA
ATOM     20  C   UNL     1       1.893   9.411  18.182  0.00  0.00    +0.000 C 
ATOM     21  N   UNL     1       0.751   9.606  18.922  0.00  0.00    +0.000 N 
ATOM     22  H   UNL     1       0.374   8.845  19.469  0.00  0.00    +0.000 HD
BRANCH  21  23
ATOM     23  C   UNL     1       0.060  10.884  18.990  0.00  0.00    +0.000 C 
BRANCH  23  24
ATOM     24  C   UNL     1      -1.323  10.790  18.395  0.00  0.00    +0.000 A 
ATOM     25  C   UNL     1      -1.575   9.899  17.341  0.00  0.00    +0.000 A 
ATOM     26  C   UNL     1      -2.830   9.855  16.731  0.00  0.00    +0.000 A 
ATOM     27  C   UNL     1      -3.861  10.674  17.189  0.00  0.00    +0.000 A 
ATOM     28  C   UNL     1      -3.638  11.534  18.262  0.00  0.00    +0.000 A 
ATOM     29  C   UNL     1      -2.370  11.608  18.850  0.00  0.00    +0.000 A 
ENDBRANCH  23  24
ENDBRANCH  21  23
ENDBRANCH  18  20
ENDBRANCH  17  18
ENDBRANCH   1  17
TORSDOF 8
ENDMDL
MODEL 9
REMARK VINA RESULT:      -7.2      3.008      6.769
REMARK  Name = 
REMARK  8 active torsions:
REMARK  status: ('A' for Active; 'I' for Inactive)
REMARK    1  A    between atoms: C_2  and  C_3
REMARK    2  A    between atoms: C_3  and  C_4
REMARK    3  A    between atoms: C_4  and  N_5
REMARK    4  A    between atoms: N_5  and  S_6
REMARK    5  A    between atoms: S_6  and  C_9
REMARK    6  A    between atoms: C_14  and  O_15
REMARK    7  A    between atoms: N_19  and  C_20
REMARK    8  A    between atoms: C_20  and  C_21
REMARK                            x       y       z     vdW  Elec       q    Type
REMARK                         _______ _______ _______ _____ _____    ______ ____
ROOT
ATOM      1  N   UNL     1       3.964   7.412  17.367  0.00  0.00    +0.000 NA
ATOM      2  H   UNL     1       3.477   7.529  16.474  0.00  0.00    +0.000 HD
ENDROOT
BRANCH   1   3
ATOM      3  S   UNL     1       2.846   6.710  18.454  0.00  0.00    +0.000 S 
ATOM      4  O   UNL     1       1.953   5.901  17.667  0.00  0.00    +0.000 OA
ATOM      5  O   UNL     1       3.621   6.140  19.540  0.00  0.00    +0.000 OA
BRANCH   3   6
ATOM      6  C   UNL     1       1.904   8.086  19.091  0.00  0.00    +0.000 A 
ATOM      7  C   UNL     1       1.681   9.217  18.283  0.00  0.00    +0.000 A 
ATOM      8  C   UNL     1       1.051  10.362  18.802  0.00  0.00    +0.000 A 
ATOM      9  C   UNL     1       0.659  10.352  20.151  0.00  0.00    +0.000 A 
ATOM     10  N   UNL     1       0.057  11.315  20.930  0.00  0.00    +0.000 NA
ATOM     11  C   UNL     1      -0.029  10.715  22.092  0.00  0.00    +0.000 A 
ATOM     12  O   UNL     1       0.447   9.450  22.175  0.00  0.00    +0.000 OA
ATOM     13  C   UNL     1       0.897   9.213  20.906  0.00  0.00    +0.000 A 
ATOM     14  C   UNL     1       1.508   8.051  20.436  0.00  0.00    +0.000 A 
BRANCH  11  15
ATOM     15  O   UNL     1      -0.527  11.240  23.187  0.00  0.00    +0.000 OA
ATOM     16  H   UNL     1      -1.121  11.919  22.833  0.00  0.00    +0.000 HD
ENDBRANCH  11  15
ENDBRANCH   3   6
ENDBRANCH   1   3
BRANCH   1  17
ATOM     17  C   UNL     1       5.259   6.705  17.278  0.00  0.00    +0.000 C 
BRANCH  17  18
ATOM     18  C   UNL     1       5.438   5.969  15.950  0.00  0.00    +0.000 C 
BRANCH  18  20
ATOM     19  O   UNL     1       5.588   3.617  15.399  0.00  0.00    +0.000 OA
ATOM     20  C   UNL     1       5.183   4.479  16.174  0.00  0.00    +0.000 C 
ATOM     21  N   UNL     1       4.473   4.187  17.315  0.00  0.00    +0.000 N 
ATOM     22  H   UNL     1       4.146   4.940  17.905  0.00  0.00    +0.000 HD
BRANCH  21  23
ATOM     23  C   UNL     1       4.127   2.831  17.708  0.00  0.00    +0.000 C 
BRANCH  23  24
ATOM     24  C   UNL     1       3.127   2.828  18.838  0.00  0.00    +0.000 A 
ATOM     25  C   UNL     1       3.569   2.796  20.168  0.00  0.00    +0.000 A 
ATOM     26  C   UNL     1       2.656   2.718  21.221  0.00  0.00    +0.000 A 
ATOM     27  C   UNL     1       1.286   2.706  20.961  0.00  0.00    +0.000 A 
ATOM     28  C   UNL     1       0.831   2.780  19.647  0.00  0.00    +0.000 A 
ATOM     29  C   UNL     1       1.744   2.819  18.588  0.00  0.00    +0.000 A 
ENDBRANCH  23  24
ENDBRANCH  21  23
ENDBRANCH  18  20
ENDBRANCH  17  18
ENDBRANCH   1  17
TORSDOF 8
ENDMDL
