MODEL 1
REMARK VINA RESULT:      -6.5      0.000      0.000
REMARK  Name = 
REMARK  16 active torsions:
REMARK  status: ('A' for Active; 'I' for Inactive)
REMARK    1  A    between atoms: C_1  and  C_2
REMARK    2  A    between atoms: C_2  and  C_3
REMARK    3  A    between atoms: C_3  and  C_4
REMARK    4  A    between atoms: C_4  and  C_5
REMARK    5  A    between atoms: C_5  and  C_6
REMARK    6  A    between atoms: C_7  and  C_8
REMARK    7  A    between atoms: C_8  and  C_9
REMARK    8  A    between atoms: C_10  and  C_11
REMARK    9  A    between atoms: C_11  and  C_12
REMARK   10  A    between atoms: C_12  and  C_13
REMARK   11  A    between atoms: C_13  and  C_14
REMARK   12  A    between atoms: C_14  and  C_15
REMARK   13  A    between atoms: C_15  and  C_16
REMARK   14  A    between atoms: C_16  and  C_17
REMARK   15  A    between atoms: C_17  and  C_18
REMARK   16  A    between atoms: N_20  and  C_21
REMARK                            x       y       z     vdW  Elec       q    Type
REMARK                         _______ _______ _______ _____ _____    ______ ____
ROOT
ATOM      1  C   UNL     1       7.065   5.380  19.157  0.00  0.00    +0.000 C 
ENDROOT
BRANCH   1   2
ATOM      2  C   UNL     1       6.204   4.266  18.564  0.00  0.00    +0.000 C 
BRANCH   2   3
ATOM      3  C   UNL     1       4.706   4.552  18.663  0.00  0.00    +0.000 C 
BRANCH   3   4
ATOM      4  C   UNL     1       3.972   4.296  17.338  0.00  0.00    +0.000 C 
BRANCH   4   5
ATOM      5  C   UNL     1       2.497   3.983  17.574  0.00  0.00    +0.000 C 
BRANCH   5   7
ATOM      6  C   UNL     1       1.326   2.090  18.682  0.00  0.00    +0.000 C 
ATOM      7  C   UNL     1       2.174   2.528  17.736  0.00  0.00    +0.000 C 
BRANCH   6   8
ATOM      8  C   UNL     1       0.613   2.972  19.668  0.00  0.00    +0.000 C 
BRANCH   8  10
ATOM      9  C   UNL     1       2.051   3.778  21.573  0.00  0.00    +0.000 C 
ATOM     10  C   UNL     1       1.218   2.870  21.040  0.00  0.00    +0.000 C 
BRANCH   9  11
ATOM     11  C   UNL     1       2.501   5.005  20.837  0.00  0.00    +0.000 C 
BRANCH  11  12
ATOM     12  C   UNL     1       1.548   6.188  20.987  0.00  0.00    +0.000 C 
BRANCH  12  13
ATOM     13  C   UNL     1       1.472   6.955  19.666  0.00  0.00    +0.000 C 
BRANCH  13  15
ATOM     14  C   UNL     1       2.792   7.969  17.788  0.00  0.00    +0.000 C 
ATOM     15  C   UNL     1       2.859   7.355  19.176  0.00  0.00    +0.000 C 
ENDBRANCH  13  15
ENDBRANCH  12  13
ENDBRANCH  11  12
ENDBRANCH   9  11
ENDBRANCH   8  10
ENDBRANCH   6   8
ENDBRANCH   5   7
ENDBRANCH   4   5
ENDBRANCH   3   4
ENDBRANCH   2   3
ENDBRANCH   1   2
BRANCH   1  16
ATOM     16  C   UNL     1       7.717   6.164  18.021  0.00  0.00    +0.000 C 
BRANCH  16  17
ATOM     17  C   UNL     1       6.742   7.072  17.284  0.00  0.00    +0.000 C 
BRANCH  17  18
ATOM     18  C   UNL     1       6.403   6.485  15.924  0.00  0.00    +0.000 C 
ATOM     19  O   UNL     1       5.368   6.760  15.324  0.00  0.00    +0.000 OA
ATOM     20  N   UNL     1       7.353   5.578  15.480  0.00  0.00    +0.000 N 
ATOM     21  H   UNL     1       7.831   5.057  16.206  0.00  0.00    +0.000 HD
BRANCH  20  22
ATOM     22  C   UNL     1       7.160   4.894  14.256  0.00  0.00    +0.000 A 
ATOM     23  C   UNL     1       7.796   5.266  13.069  0.00  0.00    +0.000 A 
ATOM     24  F   UNL     1       8.742   6.218  13.065  0.00  0.00    +0.000 F 
ATOM     25  C   UNL     1       7.516   4.609  11.871  0.00  0.00    +0.000 A 
ATOM     26  C   UNL     1       6.583   3.571  11.850  0.00  0.00    +0.000 A 
ATOM     27  C   UNL     1       5.964   3.171  13.034  0.00  0.00    +0.000 A 
ATOM     28  C   UNL     1       6.276   3.817  14.228  0.00  0.00    +0.000 A 
ATOM     29  F   UNL     1       5.657   3.436  15.358  0.00  0.00    +0.000 F 
ENDBRANCH  20  22
ENDBRANCH  17  18
ENDBRANCH  16  17
ENDBRANCH   1  16
TORSDOF 15
ENDMDL
MODEL 2
REMARK VINA RESULT:      -6.4      5.048      8.767
REMARK  Name = 
REMARK  16 active torsions:
REMARK  status: ('A' for Active; 'I' for Inactive)
REMARK    1  A    between atoms: C_1  and  C_2
REMARK    2  A    between atoms: C_2  and  C_3
REMARK    3  A    between atoms: C_3  and  C_4
REMARK    4  A    between atoms: C_4  and  C_5
REMARK    5  A    between atoms: C_5  and  C_6
REMARK    6  A    between atoms: C_7  and  C_8
REMARK    7  A    between atoms: C_8  and  C_9
REMARK    8  A    between atoms: C_10  and  C_11
REMARK    9  A    between atoms: C_11  and  C_12
REMARK   10  A    between atoms: C_12  and  C_13
REMARK   11  A    between atoms: C_13  and  C_14
REMARK   12  A    between atoms: C_14  and  C_15
REMARK   13  A    between atoms: C_15  and  C_16
REMARK   14  A    between atoms: C_16  and  C_17
REMARK   15  A    between atoms: C_17  and  C_18
REMARK   16  A    between atoms: N_20  and  C_21
REMARK                            x       y       z     vdW  Elec       q    Type
REMARK                         _______ _______ _______ _____ _____    ______ ____
ROOT
ATOM      1  C   UNL     1       6.696   6.602  17.107  0.00  0.00    +0.000 C 
ENDROOT
BRANCH   1   2
ATOM      2  C   UNL     1       6.816   8.037  17.616  0.00  0.00    +0.000 C 
BRANCH   2   3
ATOM      3  C   UNL     1       8.246   8.572  17.563  0.00  0.00    +0.000 C 
BRANCH   3   4
ATOM      4  C   UNL     1       8.738   9.061  18.934  0.00  0.00    +0.000 C 
BRANCH   4   5
ATOM      5  C   UNL     1       9.264  10.493  18.855  0.00  0.00    +0.000 C 
BRANCH   5   7
ATOM      6  C   UNL     1      10.644  11.777  20.475  0.00  0.00    +0.000 C 
ATOM      7  C   UNL     1       9.488  11.162  20.178  0.00  0.00    +0.000 C 
BRANCH   6   8
ATOM      8  C   UNL     1      11.825  11.873  19.551  0.00  0.00    +0.000 C 
BRANCH   8  10
ATOM      9  C   UNL     1      11.807  14.223  18.645  0.00  0.00    +0.000 C 
ATOM     10  C   UNL     1      12.333  13.284  19.447  0.00  0.00    +0.000 C 
BRANCH   9  11
ATOM     11  C   UNL     1      10.651  13.959  17.727  0.00  0.00    +0.000 C 
BRANCH  11  12
ATOM     12  C   UNL     1       9.343  14.589  18.199  0.00  0.00    +0.000 C 
BRANCH  12  13
ATOM     13  C   UNL     1       8.172  13.683  17.817  0.00  0.00    +0.000 C 
BRANCH  13  15
ATOM     14  C   UNL     1       6.829  15.545  18.830  0.00  0.00    +0.000 C 
ATOM     15  C   UNL     1       6.862  14.460  17.768  0.00  0.00    +0.000 C 
ENDBRANCH  13  15
ENDBRANCH  12  13
ENDBRANCH  11  12
ENDBRANCH   9  11
ENDBRANCH   8  10
ENDBRANCH   6   8
ENDBRANCH   5   7
ENDBRANCH   4   5
ENDBRANCH   3   4
ENDBRANCH   2   3
ENDBRANCH   1   2
BRANCH   1  16
ATOM     16  C   UNL     1       7.584   5.695  17.956  0.00  0.00    +0.000 C 
BRANCH  16  17
ATOM     17  C   UNL     1       7.019   5.437  19.347  0.00  0.00    +0.000 C 
BRANCH  17  18
ATOM     18  C   UNL     1       5.554   5.043  19.253  0.00  0.00    +0.000 C 
ATOM     19  O   UNL     1       4.643   5.809  19.555  0.00  0.00    +0.000 OA
ATOM     20  N   UNL     1       5.376   3.728  18.851  0.00  0.00    +0.000 N 
ATOM     21  H   UNL     1       6.107   3.085  19.132  0.00  0.00    +0.000 HD
BRANCH  20  22
ATOM     22  C   UNL     1       4.073   3.184  18.770  0.00  0.00    +0.000 A 
ATOM     23  C   UNL     1       3.252   3.342  17.651  0.00  0.00    +0.000 A 
ATOM     24  F   UNL     1       3.722   3.907  16.528  0.00  0.00    +0.000 F 
ATOM     25  C   UNL     1       1.946   2.852  17.647  0.00  0.00    +0.000 A 
ATOM     26  C   UNL     1       1.444   2.202  18.776  0.00  0.00    +0.000 A 
ATOM     27  C   UNL     1       2.265   2.012  19.888  0.00  0.00    +0.000 A 
ATOM     28  C   UNL     1       3.576   2.481  19.866  0.00  0.00    +0.000 A 
ATOM     29  F   UNL     1       4.349   2.311  20.952  0.00  0.00    +0.000 F 
ENDBRANCH  20  22
ENDBRANCH  17  18
ENDBRANCH  16  17
ENDBRANCH   1  16
TORSDOF 15
ENDMDL
MODEL 3
REMARK VINA RESULT:      -6.4      4.857      8.749
REMARK  Name = 
REMARK  16 active torsions:
REMARK  status: ('A' for Active; 'I' for Inactive)
REMARK    1  A    between atoms: C_1  and  C_2
REMARK    2  A    between atoms: C_2  and  C_3
REMARK    3  A    between atoms: C_3  and  C_4
REMARK    4  A    between atoms: C_4  and  C_5
REMARK    5  A    between atoms: C_5  and  C_6
REMARK    6  A    between atoms: C_7  and  C_8
REMARK    7  A    between atoms: C_8  and  C_9
REMARK    8  A    between atoms: C_10  and  C_11
REMARK    9  A    between atoms: C_11  and  C_12
REMARK   10  A    between atoms: C_12  and  C_13
REMARK   11  A    between atoms: C_13  and  C_14
REMARK   12  A    between atoms: C_14  and  C_15
REMARK   13  A    between atoms: C_15  and  C_16
REMARK   14  A    between atoms: C_16  and  C_17
REMARK   15  A    between atoms: C_17  and  C_18
REMARK   16  A    between atoms: N_20  and  C_21
REMARK                            x       y       z     vdW  Elec       q    Type
REMARK                         _______ _______ _______ _____ _____    ______ ____
ROOT
ATOM      1  C   UNL     1       2.088   7.742  19.643  0.00  0.00    +0.000 C 
ENDROOT
BRANCH   1   2
ATOM      2  C   UNL     1       2.149   6.228  19.450  0.00  0.00    +0.000 C 
BRANCH   2   3
ATOM      3  C   UNL     1       1.772   5.449  20.709  0.00  0.00    +0.000 C 
BRANCH   3   4
ATOM      4  C   UNL     1       1.117   4.097  20.387  0.00  0.00    +0.000 C 
BRANCH   4   5
ATOM      5  C   UNL     1       2.169   3.016  20.151  0.00  0.00    +0.000 C 
BRANCH   5   7
ATOM      6  C   UNL     1       2.706   2.105  17.901  0.00  0.00    +0.000 C 
ATOM      7  C   UNL     1       1.905   2.117  18.980  0.00  0.00    +0.000 C 
BRANCH   6   8
ATOM      8  C   UNL     1       3.930   2.960  17.733  0.00  0.00    +0.000 C 
BRANCH   8  10
ATOM      9  C   UNL     1       4.352   5.347  17.048  0.00  0.00    +0.000 C 
ATOM     10  C   UNL     1       3.622   4.223  16.977  0.00  0.00    +0.000 C 
BRANCH   9  11
ATOM     11  C   UNL     1       5.560   5.483  17.926  0.00  0.00    +0.000 C 
BRANCH  11  12
ATOM     12  C   UNL     1       6.845   5.766  17.152  0.00  0.00    +0.000 C 
BRANCH  12  13
ATOM     13  C   UNL     1       7.193   4.558  16.281  0.00  0.00    +0.000 C 
BRANCH  13  15
ATOM     14  C   UNL     1       6.099   3.859  14.133  0.00  0.00    +0.000 C 
ATOM     15  C   UNL     1       7.014   4.871  14.800  0.00  0.00    +0.000 C 
ENDBRANCH  13  15
ENDBRANCH  12  13
ENDBRANCH  11  12
ENDBRANCH   9  11
ENDBRANCH   8  10
ENDBRANCH   6   8
ENDBRANCH   5   7
ENDBRANCH   4   5
ENDBRANCH   3   4
ENDBRANCH   2   3
ENDBRANCH   1   2
BRANCH   1  16
ATOM     16  C   UNL     1       2.301   8.427  18.295  0.00  0.00    +0.000 C 
BRANCH  16  17
ATOM     17  C   UNL     1       1.139   9.323  17.888  0.00  0.00    +0.000 C 
BRANCH  17  18
ATOM     18  C   UNL     1       0.797  10.283  19.015  0.00  0.00    +0.000 C 
ATOM     19  O   UNL     1       1.582  11.136  19.418  0.00  0.00    +0.000 OA
ATOM     20  N   UNL     1      -0.456  10.047  19.560  0.00  0.00    +0.000 N 
ATOM     21  H   UNL     1      -0.764   9.081  19.540  0.00  0.00    +0.000 HD
BRANCH  20  22
ATOM     22  C   UNL     1      -0.904  10.815  20.660  0.00  0.00    +0.000 A 
ATOM     23  C   UNL     1      -1.557  12.042  20.514  0.00  0.00    +0.000 A 
ATOM     24  F   UNL     1      -1.918  12.488  19.302  0.00  0.00    +0.000 F 
ATOM     25  C   UNL     1      -1.913  12.800  21.630  0.00  0.00    +0.000 A 
ATOM     26  C   UNL     1      -1.609  12.336  22.910  0.00  0.00    +0.000 A 
ATOM     27  C   UNL     1      -0.985  11.098  23.070  0.00  0.00    +0.000 A 
ATOM     28  C   UNL     1      -0.662  10.339  21.947  0.00  0.00    +0.000 A 
ATOM     29  F   UNL     1      -0.041   9.159  22.113  0.00  0.00    +0.000 F 
ENDBRANCH  20  22
ENDBRANCH  17  18
ENDBRANCH  16  17
ENDBRANCH   1  16
TORSDOF 15
ENDMDL
MODEL 4
REMARK VINA RESULT:      -6.3      5.505      9.123
REMARK  Name = 
REMARK  16 active torsions:
REMARK  status: ('A' for Active; 'I' for Inactive)
REMARK    1  A    between atoms: C_1  and  C_2
REMARK    2  A    between atoms: C_2  and  C_3
REMARK    3  A    between atoms: C_3  and  C_4
REMARK    4  A    between atoms: C_4  and  C_5
REMARK    5  A    between atoms: C_5  and  C_6
REMARK    6  A    between atoms: C_7  and  C_8
REMARK    7  A    between atoms: C_8  and  C_9
REMARK    8  A    between atoms: C_10  and  C_11
REMARK    9  A    between atoms: C_11  and  C_12
REMARK   10  A    between atoms: C_12  and  C_13
REMARK   11  A    between atoms: C_13  and  C_14
REMARK   12  A    between atoms: C_14  and  C_15
REMARK   13  A    between atoms: C_15  and  C_16
REMARK   14  A    between atoms: C_16  and  C_17
REMARK   15  A    between atoms: C_17  and  C_18
REMARK   16  A    between atoms: N_20  and  C_21
REMARK                            x       y       z     vdW  Elec       q    Type
REMARK                         _______ _______ _______ _____ _____    ______ ____
ROOT
ATOM      1  C   UNL     1       8.092   7.351  18.190  0.00  0.00    +0.000 C 
ENDROOT
BRANCH   1   2
ATOM      2  C   UNL     1       7.584   8.723  17.753  0.00  0.00    +0.000 C 
BRANCH   2   3
ATOM      3  C   UNL     1       8.677   9.790  17.741  0.00  0.00    +0.000 C 
BRANCH   3   4
ATOM      4  C   UNL     1       9.086  10.226  19.156  0.00  0.00    +0.000 C 
BRANCH   4   5
ATOM      5  C   UNL     1      10.426  10.957  19.145  0.00  0.00    +0.000 C 
BRANCH   5   7
ATOM      6  C   UNL     1      10.503  12.966  17.681  0.00  0.00    +0.000 C 
ATOM      7  C   UNL     1      10.757  11.658  17.862  0.00  0.00    +0.000 C 
BRANCH   6   8
ATOM      8  C   UNL     1       9.876  13.866  18.707  0.00  0.00    +0.000 C 
BRANCH   8  10
ATOM      9  C   UNL     1      10.615  14.838  20.911  0.00  0.00    +0.000 C 
ATOM     10  C   UNL     1      10.897  14.399  19.674  0.00  0.00    +0.000 C 
BRANCH   9  11
ATOM     11  C   UNL     1       9.223  14.871  21.469  0.00  0.00    +0.000 C 
BRANCH  11  12
ATOM     12  C   UNL     1       9.014  13.914  22.638  0.00  0.00    +0.000 C 
BRANCH  12  13
ATOM     13  C   UNL     1       8.762  12.503  22.106  0.00  0.00    +0.000 C 
BRANCH  13  15
ATOM     14  C   UNL     1       8.414  12.078  24.554  0.00  0.00    +0.000 C 
ATOM     15  C   UNL     1       8.065  11.633  23.145  0.00  0.00    +0.000 C 
ENDBRANCH  13  15
ENDBRANCH  12  13
ENDBRANCH  11  12
ENDBRANCH   9  11
ENDBRANCH   8  10
ENDBRANCH   6   8
ENDBRANCH   5   7
ENDBRANCH   4   5
ENDBRANCH   3   4
ENDBRANCH   2   3
ENDBRANCH   1   2
BRANCH   1  16
ATOM     16  C   UNL     1       6.940   6.351  18.138  0.00  0.00    +0.000 C 
BRANCH  16  17
ATOM     17  C   UNL     1       6.749   5.589  19.443  0.00  0.00    +0.000 C 
BRANCH  17  18
ATOM     18  C   UNL     1       5.521   4.699  19.355  0.00  0.00    +0.000 C 
ATOM     19  O   UNL     1       5.595   3.479  19.240  0.00  0.00    +0.000 OA
ATOM     20  N   UNL     1       4.335   5.417  19.362  0.00  0.00    +0.000 N 
ATOM     21  H   UNL     1       4.383   6.340  18.945  0.00  0.00    +0.000 HD
BRANCH  20  22
ATOM     22  C   UNL     1       3.098   4.743  19.226  0.00  0.00    +0.000 A 
ATOM     23  C   UNL     1       2.335   4.330  20.321  0.00  0.00    +0.000 A 
ATOM     24  F   UNL     1       2.677   4.682  21.570  0.00  0.00    +0.000 F 
ATOM     25  C   UNL     1       1.160   3.601  20.139  0.00  0.00    +0.000 A 
ATOM     26  C   UNL     1       0.740   3.270  18.850  0.00  0.00    +0.000 A 
ATOM     27  C   UNL     1       1.478   3.703  17.748  0.00  0.00    +0.000 A 
ATOM     28  C   UNL     1       2.634   4.455  17.944  0.00  0.00    +0.000 A 
ATOM     29  F   UNL     1       3.348   4.848  16.876  0.00  0.00    +0.000 F 
ENDBRANCH  20  22
ENDBRANCH  17  18
ENDBRANCH  16  17
ENDBRANCH   1  16
TORSDOF 15
ENDMDL
MODEL 5
REMARK VINA RESULT:      -6.2      4.976      8.611
REMARK  Name = 
REMARK  16 active torsions:
REMARK  status: ('A' for Active; 'I' for Inactive)
REMARK    1  A    between atoms: C_1  and  C_2
REMARK    2  A    between atoms: C_2  and  C_3
REMARK    3  A    between atoms: C_3  and  C_4
REMARK    4  A    between atoms: C_4  and  C_5
REMARK    5  A    between atoms: C_5  and  C_6
REMARK    6  A    between atoms: C_7  and  C_8
REMARK    7  A    between atoms: C_8  and  C_9
REMARK    8  A    between atoms: C_10  and  C_11
REMARK    9  A    between atoms: C_11  and  C_12
REMARK   10  A    between atoms: C_12  and  C_13
REMARK   11  A    between atoms: C_13  and  C_14
REMARK   12  A    between atoms: C_14  and  C_15
REMARK   13  A    between atoms: C_15  and  C_16
REMARK   14  A    between atoms: C_16  and  C_17
REMARK   15  A    between atoms: C_17  and  C_18
REMARK   16  A    between atoms: N_20  and  C_21
REMARK                            x       y       z     vdW  Elec       q    Type
REMARK                         _______ _______ _______ _____ _____    ______ ____
ROOT
ATOM      1  C   UNL     1       1.682   7.991  19.861  0.00  0.00    +0.000 C 
ENDROOT
BRANCH   1   2
ATOM      2  C   UNL     1       2.477   6.732  20.203  0.00  0.00    +0.000 C 
BRANCH   2   3
ATOM      3  C   UNL     1       1.590   5.510  20.438  0.00  0.00    +0.000 C 
BRANCH   3   4
ATOM      4  C   UNL     1       2.295   4.424  21.264  0.00  0.00    +0.000 C 
BRANCH   4   5
ATOM      5  C   UNL     1       1.517   3.111  21.232  0.00  0.00    +0.000 C 
BRANCH   5   7
ATOM      6  C   UNL     1       1.012   2.321  18.929  0.00  0.00    +0.000 C 
ATOM      7  C   UNL     1       0.608   2.939  20.051  0.00  0.00    +0.000 C 
BRANCH   6   8
ATOM      8  C   UNL     1       2.382   1.741  18.716  0.00  0.00    +0.000 C 
BRANCH   8  10
ATOM      9  C   UNL     1       3.954   3.157  17.350  0.00  0.00    +0.000 C 
ATOM     10  C   UNL     1       2.994   2.223  17.430  0.00  0.00    +0.000 C 
BRANCH   9  11
ATOM     11  C   UNL     1       4.516   3.857  18.552  0.00  0.00    +0.000 C 
BRANCH  11  12
ATOM     12  C   UNL     1       5.106   5.229  18.235  0.00  0.00    +0.000 C 
BRANCH  12  13
ATOM     13  C   UNL     1       4.327   5.867  17.084  0.00  0.00    +0.000 C 
BRANCH  13  15
ATOM     14  C   UNL     1       5.802   5.418  15.105  0.00  0.00    +0.000 C 
ATOM     15  C   UNL     1       5.265   6.478  16.050  0.00  0.00    +0.000 C 
ENDBRANCH  13  15
ENDBRANCH  12  13
ENDBRANCH  11  12
ENDBRANCH   9  11
ENDBRANCH   8  10
ENDBRANCH   6   8
ENDBRANCH   5   7
ENDBRANCH   4   5
ENDBRANCH   3   4
ENDBRANCH   2   3
ENDBRANCH   1   2
BRANCH   1  16
ATOM     16  C   UNL     1       2.039   8.436  18.445  0.00  0.00    +0.000 C 
BRANCH  16  17
ATOM     17  C   UNL     1       1.058   9.452  17.872  0.00  0.00    +0.000 C 
BRANCH  17  18
ATOM     18  C   UNL     1       0.701  10.488  18.925  0.00  0.00    +0.000 C 
ATOM     19  O   UNL     1       1.471  11.385  19.256  0.00  0.00    +0.000 OA
ATOM     20  N   UNL     1      -0.544  10.269  19.495  0.00  0.00    +0.000 N 
ATOM     21  H   UNL     1      -0.832   9.299  19.551  0.00  0.00    +0.000 HD
BRANCH  20  22
ATOM     22  C   UNL     1      -1.003  11.110  20.536  0.00  0.00    +0.000 A 
ATOM     23  C   UNL     1      -1.679  12.310  20.301  0.00  0.00    +0.000 A 
ATOM     24  F   UNL     1      -2.053  12.656  19.060  0.00  0.00    +0.000 F 
ATOM     25  C   UNL     1      -2.046  13.143  21.358  0.00  0.00    +0.000 A 
ATOM     26  C   UNL     1      -1.728  12.783  22.668  0.00  0.00    +0.000 A 
ATOM     27  C   UNL     1      -1.080  11.573  22.917  0.00  0.00    +0.000 A 
ATOM     28  C   UNL     1      -0.746  10.737  21.854  0.00  0.00    +0.000 A 
ATOM     29  F   UNL     1      -0.103   9.585  22.105  0.00  0.00    +0.000 F 
ENDBRANCH  20  22
ENDBRANCH  17  18
ENDBRANCH  16  17
ENDBRANCH   1  16
TORSDOF 15
ENDMDL
MODEL 6
REMARK VINA RESULT:      -6.2      4.717      8.539
REMARK  Name = 
REMARK  16 active torsions:
REMARK  status: ('A' for Active; 'I' for Inactive)
REMARK    1  A    between atoms: C_1  and  C_2
REMARK    2  A    between atoms: C_2  and  C_3
REMARK    3  A    between atoms: C_3  and  C_4
REMARK    4  A    between atoms: C_4  and  C_5
REMARK    5  A    between atoms: C_5  and  C_6
REMARK    6  A    between atoms: C_7  and  C_8
REMARK    7  A    between atoms: C_8  and  C_9
REMARK    8  A    between atoms: C_10  and  C_11
REMARK    9  A    between atoms: C_11  and  C_12
REMARK   10  A    between atoms: C_12  and  C_13
REMARK   11  A    between atoms: C_13  and  C_14
REMARK   12  A    between atoms: C_14  and  C_15
REMARK   13  A    between atoms: C_15  and  C_16
REMARK   14  A    between atoms: C_16  and  C_17
REMARK   15  A    between atoms: C_17  and  C_18
REMARK   16  A    between atoms: N_20  and  C_21
REMARK                            x       y       z     vdW  Elec       q    Type
REMARK                         _______ _______ _______ _____ _____    ______ ____
ROOT
ATOM      1  C   UNL     1       3.185   7.739  17.725  0.00  0.00    +0.000 C 
ENDROOT
BRANCH   1   2
ATOM      2  C   UNL     1       3.333   6.923  19.008  0.00  0.00    +0.000 C 
BRANCH   2   3
ATOM      3  C   UNL     1       2.225   5.887  19.188  0.00  0.00    +0.000 C 
BRANCH   3   4
ATOM      4  C   UNL     1       1.685   5.851  20.626  0.00  0.00    +0.000 C 
BRANCH   4   5
ATOM      5  C   UNL     1       2.040   4.538  21.319  0.00  0.00    +0.000 C 
BRANCH   5   7
ATOM      6  C   UNL     1       1.826   2.343  20.170  0.00  0.00    +0.000 C 
ATOM      7  C   UNL     1       1.256   3.345  20.860  0.00  0.00    +0.000 C 
BRANCH   6   8
ATOM      8  C   UNL     1       3.276   2.289  19.780  0.00  0.00    +0.000 C 
BRANCH   8  10
ATOM      9  C   UNL     1       3.536   2.228  17.275  0.00  0.00    +0.000 C 
ATOM     10  C   UNL     1       3.468   1.598  18.458  0.00  0.00    +0.000 C 
BRANCH   9  11
ATOM     11  C   UNL     1       3.398   3.715  17.131  0.00  0.00    +0.000 C 
BRANCH  11  12
ATOM     12  C   UNL     1       4.629   4.384  16.525  0.00  0.00    +0.000 C 
BRANCH  12  13
ATOM     13  C   UNL     1       5.769   4.378  17.544  0.00  0.00    +0.000 C 
BRANCH  13  15
ATOM     14  C   UNL     1       7.081   4.579  15.415  0.00  0.00    +0.000 C 
ATOM     15  C   UNL     1       7.081   4.828  16.913  0.00  0.00    +0.000 C 
ENDBRANCH  13  15
ENDBRANCH  12  13
ENDBRANCH  11  12
ENDBRANCH   9  11
ENDBRANCH   8  10
ENDBRANCH   6   8
ENDBRANCH   5   7
ENDBRANCH   4   5
ENDBRANCH   3   4
ENDBRANCH   2   3
ENDBRANCH   1   2
BRANCH   1  16
ATOM     16  C   UNL     1       1.794   8.366  17.690  0.00  0.00    +0.000 C 
BRANCH  16  17
ATOM     17  C   UNL     1       1.807   9.866  17.955  0.00  0.00    +0.000 C 
BRANCH  17  18
ATOM     18  C   UNL     1       0.730  10.229  18.964  0.00  0.00    +0.000 C 
ATOM     19  O   UNL     1      -0.456  10.325  18.660  0.00  0.00    +0.000 OA
ATOM     20  N   UNL     1       1.242  10.489  20.226  0.00  0.00    +0.000 N 
ATOM     21  H   UNL     1       2.176  10.884  20.244  0.00  0.00    +0.000 HD
BRANCH  20  22
ATOM     22  C   UNL     1       0.379  10.900  21.269  0.00  0.00    +0.000 A 
ATOM     23  C   UNL     1      -0.228  10.003  22.152  0.00  0.00    +0.000 A 
ATOM     24  F   UNL     1       0.096   8.701  22.138  0.00  0.00    +0.000 F 
ATOM     25  C   UNL     1      -1.131  10.448  23.116  0.00  0.00    +0.000 A 
ATOM     26  C   UNL     1      -1.445  11.806  23.200  0.00  0.00    +0.000 A 
ATOM     27  C   UNL     1      -0.822  12.715  22.344  0.00  0.00    +0.000 A 
ATOM     28  C   UNL     1       0.100  12.259  21.405  0.00  0.00    +0.000 A 
ATOM     29  F   UNL     1       0.676  13.142  20.573  0.00  0.00    +0.000 F 
ENDBRANCH  20  22
ENDBRANCH  17  18
ENDBRANCH  16  17
ENDBRANCH   1  16
TORSDOF 15
ENDMDL
MODEL 7
REMARK VINA RESULT:      -6.1      5.281      8.393
REMARK  Name = 
REMARK  16 active torsions:
REMARK  status: ('A' for Active; 'I' for Inactive)
REMARK    1  A    between atoms: C_1  and  C_2
REMARK    2  A    between atoms: C_2  and  C_3
REMARK    3  A    between atoms: C_3  and  C_4
REMARK    4  A    between atoms: C_4  and  C_5
REMARK    5  A    between atoms: C_5  and  C_6
REMARK    6  A    between atoms: C_7  and  C_8
REMARK    7  A    between atoms: C_8  and  C_9
REMARK    8  A    between atoms: C_10  and  C_11
REMARK    9  A    between atoms: C_11  and  C_12
REMARK   10  A    between atoms: C_12  and  C_13
REMARK   11  A    between atoms: C_13  and  C_14
REMARK   12  A    between atoms: C_14  and  C_15
REMARK   13  A    between atoms: C_15  and  C_16
REMARK   14  A    between atoms: C_16  and  C_17
REMARK   15  A    between atoms: C_17  and  C_18
REMARK   16  A    between atoms: N_20  and  C_21
REMARK                            x       y       z     vdW  Elec       q    Type
REMARK                         _______ _______ _______ _____ _____    ______ ____
ROOT
ATOM      1  C   UNL     1       1.778   8.455  20.706  0.00  0.00    +0.000 C 
ENDROOT
BRANCH   1   2
ATOM      2  C   UNL     1       2.059   7.806  19.352  0.00  0.00    +0.000 C 
BRANCH   2   3
ATOM      3  C   UNL     1       2.393   6.319  19.460  0.00  0.00    +0.000 C 
BRANCH   3   4
ATOM      4  C   UNL     1       2.044   5.739  20.839  0.00  0.00    +0.000 C 
BRANCH   4   5
ATOM      5  C   UNL     1       2.357   4.246  20.907  0.00  0.00    +0.000 C 
BRANCH   5   7
ATOM      6  C   UNL     1       0.734   2.888  19.602  0.00  0.00    +0.000 C 
ATOM      7  C   UNL     1       1.167   3.341  20.790  0.00  0.00    +0.000 C 
BRANCH   6   8
ATOM      8  C   UNL     1       1.365   3.217  18.278  0.00  0.00    +0.000 C 
BRANCH   8  10
ATOM      9  C   UNL     1       3.659   2.316  17.758  0.00  0.00    +0.000 C 
ATOM     10  C   UNL     1       2.330   2.149  17.844  0.00  0.00    +0.000 C 
BRANCH   9  11
ATOM     11  C   UNL     1       4.340   3.617  18.065  0.00  0.00    +0.000 C 
BRANCH  11  12
ATOM     12  C   UNL     1       4.499   4.522  16.847  0.00  0.00    +0.000 C 
BRANCH  12  13
ATOM     13  C   UNL     1       5.871   5.196  16.885  0.00  0.00    +0.000 C 
BRANCH  13  15
ATOM     14  C   UNL     1       7.072   5.592  19.052  0.00  0.00    +0.000 C 
ATOM     15  C   UNL     1       6.008   6.107  18.099  0.00  0.00    +0.000 C 
ENDBRANCH  13  15
ENDBRANCH  12  13
ENDBRANCH  11  12
ENDBRANCH   9  11
ENDBRANCH   8  10
ENDBRANCH   6   8
ENDBRANCH   5   7
ENDBRANCH   4   5
ENDBRANCH   3   4
ENDBRANCH   2   3
ENDBRANCH   1   2
BRANCH   1  16
ATOM     16  C   UNL     1       0.454   9.212  20.632  0.00  0.00    +0.000 C 
BRANCH  16  17
ATOM     17  C   UNL     1       0.632  10.706  20.395  0.00  0.00    +0.000 C 
BRANCH  17  18
ATOM     18  C   UNL     1      -0.273  11.170  19.267  0.00  0.00    +0.000 C 
ATOM     19  O   UNL     1      -0.069  12.204  18.638  0.00  0.00    +0.000 OA
ATOM     20  N   UNL     1      -1.364  10.336  19.077  0.00  0.00    +0.000 N 
ATOM     21  H   UNL     1      -1.708   9.872  19.910  0.00  0.00    +0.000 HD
BRANCH  20  22
ATOM     22  C   UNL     1      -2.339  10.658  18.103  0.00  0.00    +0.000 A 
ATOM     23  C   UNL     1      -3.419  11.506  18.361  0.00  0.00    +0.000 A 
ATOM     24  F   UNL     1      -3.505  12.176  19.520  0.00  0.00    +0.000 F 
ATOM     25  C   UNL     1      -4.397  11.734  17.393  0.00  0.00    +0.000 A 
ATOM     26  C   UNL     1      -4.306  11.102  16.152  0.00  0.00    +0.000 A 
ATOM     27  C   UNL     1      -3.217  10.276  15.872  0.00  0.00    +0.000 A 
ATOM     28  C   UNL     1      -2.233  10.082  16.839  0.00  0.00    +0.000 A 
ATOM     29  F   UNL     1      -1.200   9.267  16.565  0.00  0.00    +0.000 F 
ENDBRANCH  20  22
ENDBRANCH  17  18
ENDBRANCH  16  17
ENDBRANCH   1  16
TORSDOF 15
ENDMDL
MODEL 8
REMARK VINA RESULT:      -6.1      4.613      8.118
REMARK  Name = 
REMARK  16 active torsions:
REMARK  status: ('A' for Active; 'I' for Inactive)
REMARK    1  A    between atoms: C_1  and  C_2
REMARK    2  A    between atoms: C_2  and  C_3
REMARK    3  A    between atoms: C_3  and  C_4
REMARK    4  A    between atoms: C_4  and  C_5
REMARK    5  A    between atoms: C_5  and  C_6
REMARK    6  A    between atoms: C_7  and  C_8
REMARK    7  A    between atoms: C_8  and  C_9
REMARK    8  A    between atoms: C_10  and  C_11
REMARK    9  A    between atoms: C_11  and  C_12
REMARK   10  A    between atoms: C_12  and  C_13
REMARK   11  A    between atoms: C_13  and  C_14
REMARK   12  A    between atoms: C_14  and  C_15
REMARK   13  A    between atoms: C_15  and  C_16
REMARK   14  A    between atoms: C_16  and  C_17
REMARK   15  A    between atoms: C_17  and  C_18
REMARK   16  A    between atoms: N_20  and  C_21
REMARK                            x       y       z     vdW  Elec       q    Type
REMARK                         _______ _______ _______ _____ _____    ______ ____
ROOT
ATOM      1  C   UNL     1       3.127   6.577  18.816  0.00  0.00    +0.000 C 
ENDROOT
BRANCH   1   2
ATOM      2  C   UNL     1       2.031   6.580  19.880  0.00  0.00    +0.000 C 
BRANCH   2   3
ATOM      3  C   UNL     1       2.060   5.338  20.770  0.00  0.00    +0.000 C 
BRANCH   3   4
ATOM      4  C   UNL     1       1.048   4.273  20.322  0.00  0.00    +0.000 C 
BRANCH   4   5
ATOM      5  C   UNL     1       1.690   2.889  20.265  0.00  0.00    +0.000 C 
BRANCH   5   7
ATOM      6  C   UNL     1       3.982   2.567  19.357  0.00  0.00    +0.000 C 
ATOM      7  C   UNL     1       3.184   2.875  20.393  0.00  0.00    +0.000 C 
BRANCH   6   8
ATOM      8  C   UNL     1       3.498   2.206  17.981  0.00  0.00    +0.000 C 
BRANCH   8  10
ATOM      9  C   UNL     1       3.985   4.097  16.389  0.00  0.00    +0.000 C 
ATOM     10  C   UNL     1       3.135   3.429  17.184  0.00  0.00    +0.000 C 
BRANCH   9  11
ATOM     11  C   UNL     1       5.425   3.710  16.224  0.00  0.00    +0.000 C 
BRANCH  11  12
ATOM     12  C   UNL     1       6.382   4.898  16.262  0.00  0.00    +0.000 C 
BRANCH  12  13
ATOM     13  C   UNL     1       7.387   4.709  17.399  0.00  0.00    +0.000 C 
BRANCH  13  15
ATOM     14  C   UNL     1       7.773   5.700  19.672  0.00  0.00    +0.000 C 
ATOM     15  C   UNL     1       7.574   5.995  18.195  0.00  0.00    +0.000 C 
ENDBRANCH  13  15
ENDBRANCH  12  13
ENDBRANCH  11  12
ENDBRANCH   9  11
ENDBRANCH   8  10
ENDBRANCH   6   8
ENDBRANCH   5   7
ENDBRANCH   4   5
ENDBRANCH   3   4
ENDBRANCH   2   3
ENDBRANCH   1   2
BRANCH   1  16
ATOM     16  C   UNL     1       3.014   7.849  17.980  0.00  0.00    +0.000 C 
BRANCH  16  17
ATOM     17  C   UNL     1       1.575   8.312  17.786  0.00  0.00    +0.000 C 
BRANCH  17  18
ATOM     18  C   UNL     1       1.431   9.767  18.199  0.00  0.00    +0.000 C 
ATOM     19  O   UNL     1       2.279  10.615  17.936  0.00  0.00    +0.000 OA
ATOM     20  N   UNL     1       0.285  10.004  18.942  0.00  0.00    +0.000 N 
ATOM     21  H   UNL     1      -0.029   9.230  19.517  0.00  0.00    +0.000 HD
BRANCH  20  22
ATOM     22  C   UNL     1       0.031  11.297  19.457  0.00  0.00    +0.000 A 
ATOM     23  C   UNL     1      -0.719  12.254  18.769  0.00  0.00    +0.000 A 
ATOM     24  F   UNL     1      -1.360  11.939  17.633  0.00  0.00    +0.000 F 
ATOM     25  C   UNL     1      -0.879  13.541  19.282  0.00  0.00    +0.000 A 
ATOM     26  C   UNL     1      -0.278  13.886  20.494  0.00  0.00    +0.000 A 
ATOM     27  C   UNL     1       0.447  12.929  21.205  0.00  0.00    +0.000 A 
ATOM     28  C   UNL     1       0.574  11.639  20.694  0.00  0.00    +0.000 A 
ATOM     29  F   UNL     1       1.293  10.733  21.377  0.00  0.00    +0.000 F 
ENDBRANCH  20  22
ENDBRANCH  17  18
ENDBRANCH  16  17
ENDBRANCH   1  16
TORSDOF 15
ENDMDL
MODEL 9
REMARK VINA RESULT:      -6.1      5.177      8.993
REMARK  Name = 
REMARK  16 active torsions:
REMARK  status: ('A' for Active; 'I' for Inactive)
REMARK    1  A    between atoms: C_1  and  C_2
REMARK    2  A    between atoms: C_2  and  C_3
REMARK    3  A    between atoms: C_3  and  C_4
REMARK    4  A    between atoms: C_4  and  C_5
REMARK    5  A    between atoms: C_5  and  C_6
REMARK    6  A    between atoms: C_7  and  C_8
REMARK    7  A    between atoms: C_8  and  C_9
REMARK    8  A    between atoms: C_10  and  C_11
REMARK    9  A    between atoms: C_11  and  C_12
REMARK   10  A    between atoms: C_12  and  C_13
REMARK   11  A    between atoms: C_13  and  C_14
REMARK   12  A    between atoms: C_14  and  C_15
REMARK   13  A    between atoms: C_15  and  C_16
REMARK   14  A    between atoms: C_16  and  C_17
REMARK   15  A    between atoms: C_17  and  C_18
REMARK   16  A    between atoms: N_20  and  C_21
REMARK                            x       y       z     vdW  Elec       q    Type
REMARK                         _______ _______ _______ _____ _____    ______ ____
ROOT
ATOM      1  C   UNL     1       7.235   4.637  16.449  0.00  0.00    +0.000 C 
ENDROOT
BRANCH   1   2
ATOM      2  C   UNL     1       7.186   4.697  17.975  0.00  0.00    +0.000 C 
BRANCH   2   3
ATOM      3  C   UNL     1       8.007   5.849  18.554  0.00  0.00    +0.000 C 
BRANCH   3   4
ATOM      4  C   UNL     1       7.735   7.180  17.837  0.00  0.00    +0.000 C 
BRANCH   4   5
ATOM      5  C   UNL     1       8.452   8.337  18.528  0.00  0.00    +0.000 C 
BRANCH   5   7
ATOM      6  C   UNL     1       8.949  10.762  18.297  0.00  0.00    +0.000 C 
ATOM      7  C   UNL     1       8.306   9.669  17.854  0.00  0.00    +0.000 C 
BRANCH   6   8
ATOM      8  C   UNL     1       9.867  10.794  19.485  0.00  0.00    +0.000 C 
BRANCH   8  10
ATOM      9  C   UNL     1      10.110  13.247  20.002  0.00  0.00    +0.000 C 
ATOM     10  C   UNL     1       9.652  12.026  20.319  0.00  0.00    +0.000 C 
BRANCH   9  11
ATOM     11  C   UNL     1      10.926  13.520  18.773  0.00  0.00    +0.000 C 
BRANCH  11  12
ATOM     12  C   UNL     1      10.263  14.500  17.809  0.00  0.00    +0.000 C 
BRANCH  12  13
ATOM     13  C   UNL     1      11.340  15.266  17.037  0.00  0.00    +0.000 C 
BRANCH  13  15
ATOM     14  C   UNL     1      11.753  17.354  18.366  0.00  0.00    +0.000 C 
ATOM     15  C   UNL     1      11.115  16.771  17.117  0.00  0.00    +0.000 C 
ENDBRANCH  13  15
ENDBRANCH  12  13
ENDBRANCH  11  12
ENDBRANCH   9  11
ENDBRANCH   8  10
ENDBRANCH   6   8
ENDBRANCH   5   7
ENDBRANCH   4   5
ENDBRANCH   3   4
ENDBRANCH   2   3
ENDBRANCH   1   2
BRANCH   1  16
ATOM     16  C   UNL     1       6.010   3.882  15.940  0.00  0.00    +0.000 C 
BRANCH  16  17
ATOM     17  C   UNL     1       4.720   4.685  16.058  0.00  0.00    +0.000 C 
BRANCH  17  18
ATOM     18  C   UNL     1       3.801   4.051  17.089  0.00  0.00    +0.000 C 
ATOM     19  O   UNL     1       2.902   3.273  16.784  0.00  0.00    +0.000 OA
ATOM     20  N   UNL     1       4.055   4.493  18.379  0.00  0.00    +0.000 N 
ATOM     21  H   UNL     1       4.402   5.442  18.453  0.00  0.00    +0.000 HD
BRANCH  20  22
ATOM     22  C   UNL     1       3.249   4.045  19.451  0.00  0.00    +0.000 A 
ATOM     23  C   UNL     1       3.545   2.903  20.200  0.00  0.00    +0.000 A 
ATOM     24  F   UNL     1       4.702   2.247  20.023  0.00  0.00    +0.000 F 
ATOM     25  C   UNL     1       2.679   2.458  21.199  0.00  0.00    +0.000 A 
ATOM     26  C   UNL     1       1.496   3.153  21.453  0.00  0.00    +0.000 A 
ATOM     27  C   UNL     1       1.204   4.312  20.733  0.00  0.00    +0.000 A 
ATOM     28  C   UNL     1       2.093   4.761  19.758  0.00  0.00    +0.000 A 
ATOM     29  F   UNL     1       1.790   5.866  19.057  0.00  0.00    +0.000 F 
ENDBRANCH  20  22
ENDBRANCH  17  18
ENDBRANCH  16  17
ENDBRANCH   1  16
TORSDOF 15
ENDMDL
