MODEL 1
REMARK VINA RESULT:      -8.2      0.000      0.000
REMARK  Name = 
REMARK  12 active torsions:
REMARK  status: ('A' for Active; 'I' for Inactive)
REMARK    1  A    between atoms: C_1  and  O_2
REMARK    2  A    between atoms: O_2  and  C_3
REMARK    3  A    between atoms: C_7  and  N_8
REMARK    4  A    between atoms: N_8  and  C_9
REMARK    5  A    between atoms: N_8  and  C_15
REMARK    6  A    between atoms: C_9  and  C_10
REMARK    7  A    between atoms: C_10  and  N_11
REMARK    8  A    between atoms: N_11  and  C_12
REMARK    9  A    between atoms: C_12  and  C_13
REMARK   10  A    between atoms: C_12  and  C_14
REMARK   11  A    between atoms: C_21  and  C_22
REMARK   12  A    between atoms: N_25  and  C_26
REMARK                            x       y       z     vdW  Elec       q    Type
REMARK                         _______ _______ _______ _____ _____    ______ ____
ROOT
ATOM      1  N   UNL     1       2.603   6.288  19.668  0.00  0.00    +0.000 N 
ENDROOT
BRANCH   1   2
ATOM      2  C   UNL     1       2.066   7.607  19.527  0.00  0.00    +0.000 A 
ATOM      3  C   UNL     1       2.185   8.267  18.297  0.00  0.00    +0.000 A 
ATOM      4  C   UNL     1       1.509   9.457  18.058  0.00  0.00    +0.000 A 
ATOM      5  C   UNL     1       0.782  10.075  19.056  0.00  0.00    +0.000 A 
ATOM      6  N   UNL     1       0.086  11.163  18.714  0.00  0.00    +0.000 NA
ATOM      7  C   UNL     1      -0.563  11.784  19.715  0.00  0.00    +0.000 A 
ATOM      8  C   UNL     1      -0.474  11.395  21.049  0.00  0.00    +0.000 A 
ATOM      9  N   UNL     1       0.172  10.249  21.388  0.00  0.00    +0.000 NA
ATOM     10  C   UNL     1       0.775   9.556  20.370  0.00  0.00    +0.000 A 
ATOM     11  C   UNL     1       1.380   8.298  20.550  0.00  0.00    +0.000 A 
BRANCH   8  12
ATOM     12  C   UNL     1      -1.062  12.264  22.061  0.00  0.00    +0.000 A 
ATOM     13  C   UNL     1      -2.268  12.046  22.787  0.00  0.00    +0.000 A 
ATOM     14  N   UNL     1      -2.523  12.997  23.679  0.00  0.00    +0.000 NA
ATOM     15  N   UNL     1      -1.487  13.841  23.536  0.00  0.00    +0.000 N 
ATOM     16  C   UNL     1      -1.367  14.943  24.460  0.00  0.00    +0.000 C 
ATOM     17  C   UNL     1      -0.623  13.481  22.531  0.00  0.00    +0.000 A 
ENDBRANCH   8  12
ENDBRANCH   1   2
BRANCH   1  22
ATOM     18  C   UNL     1       5.874   4.816  18.514  0.00  0.00    +0.000 A 
ATOM     19  C   UNL     1       5.528   4.259  17.290  0.00  0.00    +0.000 A 
ATOM     20  C   UNL     1       4.229   4.408  16.815  0.00  0.00    +0.000 A 
ATOM     21  C   UNL     1       3.263   5.070  17.594  0.00  0.00    +0.000 A 
ATOM     22  C   UNL     1       3.564   5.626  18.852  0.00  0.00    +0.000 A 
ATOM     23  C   UNL     1       4.909   5.534  19.236  0.00  0.00    +0.000 A 
BRANCH  18  25
ATOM     24  C   UNL     1       7.941   5.801  19.135  0.00  0.00    +0.000 C 
ATOM     25  O   UNL     1       7.170   4.621  18.916  0.00  0.00    +0.000 OA
ENDBRANCH  18  25
ENDBRANCH   1  22
BRANCH   1  26
ATOM     26  C   UNL     1       2.052   5.554  20.852  0.00  0.00    +0.000 C 
BRANCH  26  27
ATOM     27  C   UNL     1       1.096   4.392  20.488  0.00  0.00    +0.000 C 
BRANCH  27  28
ATOM     28  N   UNL     1       1.465   3.037  20.926  0.00  0.00    +0.000 NA
ATOM     29  H   UNL     1       0.689   2.675  21.484  0.00  0.00    +0.000 HD
BRANCH  28  30
ATOM     30  C   UNL     1       1.777   2.066  19.869  0.00  0.00    +0.000 C 
ATOM     31  C   UNL     1       1.038   2.317  18.552  0.00  0.00    +0.000 C 
ATOM     32  C   UNL     1       3.286   2.122  19.618  0.00  0.00    +0.000 C 
ENDBRANCH  28  30
ENDBRANCH  27  28
ENDBRANCH  26  27
ENDBRANCH   1  26
TORSDOF 8
ENDMDL
MODEL 2
REMARK VINA RESULT:      -7.9      3.556      9.676
REMARK  Name = 
REMARK  12 active torsions:
REMARK  status: ('A' for Active; 'I' for Inactive)
REMARK    1  A    between atoms: C_1  and  O_2
REMARK    2  A    between atoms: O_2  and  C_3
REMARK    3  A    between atoms: C_7  and  N_8
REMARK    4  A    between atoms: N_8  and  C_9
REMARK    5  A    between atoms: N_8  and  C_15
REMARK    6  A    between atoms: C_9  and  C_10
REMARK    7  A    between atoms: C_10  and  N_11
REMARK    8  A    between atoms: N_11  and  C_12
REMARK    9  A    between atoms: C_12  and  C_13
REMARK   10  A    between atoms: C_12  and  C_14
REMARK   11  A    between atoms: C_21  and  C_22
REMARK   12  A    between atoms: N_25  and  C_26
REMARK                            x       y       z     vdW  Elec       q    Type
REMARK                         _______ _______ _______ _____ _____    ______ ____
ROOT
ATOM      1  N   UNL     1       0.104  10.679  18.873  0.00  0.00    +0.000 N 
ENDROOT
BRANCH   1   2
ATOM      2  C   UNL     1       0.974   9.565  19.104  0.00  0.00    +0.000 A 
ATOM      3  C   UNL     1       0.914   8.892  20.330  0.00  0.00    +0.000 A 
ATOM      4  C   UNL     1       1.591   7.693  20.520  0.00  0.00    +0.000 A 
ATOM      5  C   UNL     1       2.422   7.184  19.542  0.00  0.00    +0.000 A 
ATOM      6  N   UNL     1       2.958   5.982  19.769  0.00  0.00    +0.000 NA
ATOM      7  C   UNL     1       3.813   5.534  18.832  0.00  0.00    +0.000 A 
ATOM      8  C   UNL     1       4.203   6.281  17.724  0.00  0.00    +0.000 A 
ATOM      9  N   UNL     1       3.604   7.471  17.453  0.00  0.00    +0.000 NA
ATOM     10  C   UNL     1       2.670   7.911  18.356  0.00  0.00    +0.000 A 
ATOM     11  C   UNL     1       1.888   9.063  18.151  0.00  0.00    +0.000 A 
BRANCH   8  12
ATOM     12  C   UNL     1       5.282   5.767  16.890  0.00  0.00    +0.000 A 
ATOM     13  C   UNL     1       6.477   5.125  17.328  0.00  0.00    +0.000 A 
ATOM     14  N   UNL     1       7.253   4.724  16.328  0.00  0.00    +0.000 NA
ATOM     15  N   UNL     1       6.571   5.104  15.234  0.00  0.00    +0.000 N 
ATOM     16  C   UNL     1       7.068   4.702  13.940  0.00  0.00    +0.000 C 
ATOM     17  C   UNL     1       5.420   5.796  15.521  0.00  0.00    +0.000 A 
ENDBRANCH   8  12
ENDBRANCH   1   2
BRANCH   1  22
ATOM     18  C   UNL     1      -3.550  11.514  18.491  0.00  0.00    +0.000 A 
ATOM     19  C   UNL     1      -3.907  10.764  17.378  0.00  0.00    +0.000 A 
ATOM     20  C   UNL     1      -2.959   9.942  16.777  0.00  0.00    +0.000 A 
ATOM     21  C   UNL     1      -1.639   9.913  17.261  0.00  0.00    +0.000 A 
ATOM     22  C   UNL     1      -1.228  10.677  18.370  0.00  0.00    +0.000 A 
ATOM     23  C   UNL     1      -2.247  11.410  18.996  0.00  0.00    +0.000 A 
BRANCH  18  25
ATOM     24  C   UNL     1      -4.246  12.907  20.281  0.00  0.00    +0.000 C 
ATOM     25  O   UNL     1      -4.537  12.304  19.021  0.00  0.00    +0.000 OA
ENDBRANCH  18  25
ENDBRANCH   1  22
BRANCH   1  26
ATOM     26  C   UNL     1       0.725  11.994  19.231  0.00  0.00    +0.000 C 
BRANCH  26  27
ATOM     27  C   UNL     1       1.231  12.078  20.692  0.00  0.00    +0.000 C 
BRANCH  27  28
ATOM     28  N   UNL     1       0.535  12.997  21.606  0.00  0.00    +0.000 NA
ATOM     29  H   UNL     1       0.426  13.888  21.117  0.00  0.00    +0.000 HD
BRANCH  28  30
ATOM     30  C   UNL     1      -0.780  12.566  22.098  0.00  0.00    +0.000 C 
ATOM     31  C   UNL     1      -0.798  11.148  22.672  0.00  0.00    +0.000 C 
ATOM     32  C   UNL     1      -1.216  13.555  23.183  0.00  0.00    +0.000 C 
ENDBRANCH  28  30
ENDBRANCH  27  28
ENDBRANCH  26  27
ENDBRANCH   1  26
TORSDOF 8
ENDMDL
MODEL 3
REMARK VINA RESULT:      -7.8      1.125      1.747
REMARK  Name = 
REMARK  12 active torsions:
REMARK  status: ('A' for Active; 'I' for Inactive)
REMARK    1  A    between atoms: C_1  and  O_2
REMARK    2  A    between atoms: O_2  and  C_3
REMARK    3  A    between atoms: C_7  and  N_8
REMARK    4  A    between atoms: N_8  and  C_9
REMARK    5  A    between atoms: N_8  and  C_15
REMARK    6  A    between atoms: C_9  and  C_10
REMARK    7  A    between atoms: C_10  and  N_11
REMARK    8  A    between atoms: N_11  and  C_12
REMARK    9  A    between atoms: C_12  and  C_13
REMARK   10  A    between atoms: C_12  and  C_14
REMARK   11  A    between atoms: C_21  and  C_22
REMARK   12  A    between atoms: N_25  and  C_26
REMARK                            x       y       z     vdW  Elec       q    Type
REMARK                         _______ _______ _______ _____ _____    ______ ____
ROOT
ATOM      1  N   UNL     1       2.944   6.171  19.412  0.00  0.00    +0.000 N 
ENDROOT
BRANCH   1   2
ATOM      2  C   UNL     1       2.335   7.460  19.278  0.00  0.00    +0.000 A 
ATOM      3  C   UNL     1       2.370   8.109  18.038  0.00  0.00    +0.000 A 
ATOM      4  C   UNL     1       1.625   9.260  17.813  0.00  0.00    +0.000 A 
ATOM      5  C   UNL     1       0.908   9.853  18.834  0.00  0.00    +0.000 A 
ATOM      6  N   UNL     1       0.144  10.900  18.508  0.00  0.00    +0.000 NA
ATOM      7  C   UNL     1      -0.494  11.500  19.529  0.00  0.00    +0.000 A 
ATOM      8  C   UNL     1      -0.332  11.134  20.862  0.00  0.00    +0.000 A 
ATOM      9  N   UNL     1       0.385  10.025  21.187  0.00  0.00    +0.000 NA
ATOM     10  C   UNL     1       0.981   9.351  20.152  0.00  0.00    +0.000 A 
ATOM     11  C   UNL     1       1.656   8.128  20.321  0.00  0.00    +0.000 A 
BRANCH   8  12
ATOM     12  C   UNL     1      -0.923  11.985  21.888  0.00  0.00    +0.000 A 
ATOM     13  C   UNL     1      -0.421  13.229  22.367  0.00  0.00    +0.000 A 
ATOM     14  N   UNL     1      -1.206  13.796  23.276  0.00  0.00    +0.000 NA
ATOM     15  N   UNL     1      -2.220  12.922  23.397  0.00  0.00    +0.000 N 
ATOM     16  C   UNL     1      -3.347  13.289  24.222  0.00  0.00    +0.000 C 
ATOM     17  C   UNL     1      -2.059  11.789  22.638  0.00  0.00    +0.000 A 
ENDBRANCH   8  12
ENDBRANCH   1   2
BRANCH   1  22
ATOM     18  C   UNL     1       5.094   4.718  16.680  0.00  0.00    +0.000 A 
ATOM     19  C   UNL     1       6.337   4.647  17.293  0.00  0.00    +0.000 A 
ATOM     20  C   UNL     1       6.464   5.030  18.625  0.00  0.00    +0.000 A 
ATOM     21  C   UNL     1       5.354   5.535  19.324  0.00  0.00    +0.000 A 
ATOM     22  C   UNL     1       4.081   5.650  18.733  0.00  0.00    +0.000 A 
ATOM     23  C   UNL     1       3.989   5.157  17.423  0.00  0.00    +0.000 A 
BRANCH  18  25
ATOM     24  C   UNL     1       6.311   4.199  14.711  0.00  0.00    +0.000 C 
ATOM     25  O   UNL     1       5.051   4.330  15.366  0.00  0.00    +0.000 OA
ENDBRANCH  18  25
ENDBRANCH   1  22
BRANCH   1  26
ATOM     26  C   UNL     1       2.258   5.299  20.418  0.00  0.00    +0.000 C 
BRANCH  26  27
ATOM     27  C   UNL     1       1.429   4.148  19.799  0.00  0.00    +0.000 C 
BRANCH  27  28
ATOM     28  N   UNL     1       1.724   2.777  20.238  0.00  0.00    +0.000 NA
ATOM     29  H   UNL     1       0.831   2.320  20.435  0.00  0.00    +0.000 HD
BRANCH  28  30
ATOM     30  C   UNL     1       2.485   1.936  19.305  0.00  0.00    +0.000 C 
ATOM     31  C   UNL     1       2.240   2.259  17.830  0.00  0.00    +0.000 C 
ATOM     32  C   UNL     1       3.972   2.120  19.621  0.00  0.00    +0.000 C 
ENDBRANCH  28  30
ENDBRANCH  27  28
ENDBRANCH  26  27
ENDBRANCH   1  26
TORSDOF 8
ENDMDL
MODEL 4
REMARK VINA RESULT:      -7.8      2.567      3.444
REMARK  Name = 
REMARK  12 active torsions:
REMARK  status: ('A' for Active; 'I' for Inactive)
REMARK    1  A    between atoms: C_1  and  O_2
REMARK    2  A    between atoms: O_2  and  C_3
REMARK    3  A    between atoms: C_7  and  N_8
REMARK    4  A    between atoms: N_8  and  C_9
REMARK    5  A    between atoms: N_8  and  C_15
REMARK    6  A    between atoms: C_9  and  C_10
REMARK    7  A    between atoms: C_10  and  N_11
REMARK    8  A    between atoms: N_11  and  C_12
REMARK    9  A    between atoms: C_12  and  C_13
REMARK   10  A    between atoms: C_12  and  C_14
REMARK   11  A    between atoms: C_21  and  C_22
REMARK   12  A    between atoms: N_25  and  C_26
REMARK                            x       y       z     vdW  Elec       q    Type
REMARK                         _______ _______ _______ _____ _____    ______ ____
ROOT
ATOM      1  N   UNL     1       3.195   5.298  17.855  0.00  0.00    +0.000 N 
ENDROOT
BRANCH   1   2
ATOM      2  C   UNL     1       2.537   6.305  18.631  0.00  0.00    +0.000 A 
ATOM      3  C   UNL     1       2.055   5.982  19.906  0.00  0.00    +0.000 A 
ATOM      4  C   UNL     1       1.593   6.971  20.766  0.00  0.00    +0.000 A 
ATOM      5  C   UNL     1       1.503   8.286  20.354  0.00  0.00    +0.000 A 
ATOM      6  N   UNL     1       1.140   9.185  21.273  0.00  0.00    +0.000 NA
ATOM      7  C   UNL     1       0.997  10.448  20.834  0.00  0.00    +0.000 A 
ATOM      8  C   UNL     1       1.131  10.820  19.500  0.00  0.00    +0.000 A 
ATOM      9  N   UNL     1       1.571   9.924  18.578  0.00  0.00    +0.000 NA
ATOM     10  C   UNL     1       1.799   8.646  19.020  0.00  0.00    +0.000 A 
ATOM     11  C   UNL     1       2.363   7.643  18.210  0.00  0.00    +0.000 A 
BRANCH   8  12
ATOM     12  C   UNL     1       0.759  12.178  19.122  0.00  0.00    +0.000 A 
ATOM     13  C   UNL     1      -0.506  12.620  18.637  0.00  0.00    +0.000 A 
ATOM     14  N   UNL     1      -0.556  13.930  18.419  0.00  0.00    +0.000 NA
ATOM     15  N   UNL     1       0.676  14.347  18.758  0.00  0.00    +0.000 N 
ATOM     16  C   UNL     1       0.940  15.766  18.772  0.00  0.00    +0.000 C 
ATOM     17  C   UNL     1       1.520  13.325  19.117  0.00  0.00    +0.000 A 
ENDBRANCH   8  12
ENDBRANCH   1   2
BRANCH   1  22
ATOM     18  C   UNL     1       6.362   5.149  15.820  0.00  0.00    +0.000 A 
ATOM     19  C   UNL     1       7.336   5.033  16.802  0.00  0.00    +0.000 A 
ATOM     20  C   UNL     1       6.952   4.953  18.137  0.00  0.00    +0.000 A 
ATOM     21  C   UNL     1       5.594   5.043  18.489  0.00  0.00    +0.000 A 
ATOM     22  C   UNL     1       4.576   5.189  17.527  0.00  0.00    +0.000 A 
ATOM     23  C   UNL     1       5.011   5.164  16.194  0.00  0.00    +0.000 A 
BRANCH  18  25
ATOM     24  C   UNL     1       6.541   4.106  13.697  0.00  0.00    +0.000 C 
ATOM     25  O   UNL     1       6.819   5.229  14.530  0.00  0.00    +0.000 OA
ENDBRANCH  18  25
ENDBRANCH   1  22
BRANCH   1  26
ATOM     26  C   UNL     1       2.261   4.240  17.353  0.00  0.00    +0.000 C 
BRANCH  26  27
ATOM     27  C   UNL     1       2.679   2.797  17.728  0.00  0.00    +0.000 C 
BRANCH  27  28
ATOM     28  N   UNL     1       1.800   2.042  18.633  0.00  0.00    +0.000 NA
ATOM     29  H   UNL     1       1.766   1.079  18.292  0.00  0.00    +0.000 HD
BRANCH  28  30
ATOM     30  C   UNL     1       2.176   2.024  20.053  0.00  0.00    +0.000 C 
ATOM     31  C   UNL     1       3.574   2.576  20.336  0.00  0.00    +0.000 C 
ATOM     32  C   UNL     1       1.141   2.854  20.817  0.00  0.00    +0.000 C 
ENDBRANCH  28  30
ENDBRANCH  27  28
ENDBRANCH  26  27
ENDBRANCH   1  26
TORSDOF 8
ENDMDL
MODEL 5
REMARK VINA RESULT:      -7.8      2.005      3.062
REMARK  Name = 
REMARK  12 active torsions:
REMARK  status: ('A' for Active; 'I' for Inactive)
REMARK    1  A    between atoms: C_1  and  O_2
REMARK    2  A    between atoms: O_2  and  C_3
REMARK    3  A    between atoms: C_7  and  N_8
REMARK    4  A    between atoms: N_8  and  C_9
REMARK    5  A    between atoms: N_8  and  C_15
REMARK    6  A    between atoms: C_9  and  C_10
REMARK    7  A    between atoms: C_10  and  N_11
REMARK    8  A    between atoms: N_11  and  C_12
REMARK    9  A    between atoms: C_12  and  C_13
REMARK   10  A    between atoms: C_12  and  C_14
REMARK   11  A    between atoms: C_21  and  C_22
REMARK   12  A    between atoms: N_25  and  C_26
REMARK                            x       y       z     vdW  Elec       q    Type
REMARK                         _______ _______ _______ _____ _____    ______ ____
ROOT
ATOM      1  N   UNL     1       3.255   5.713  18.235  0.00  0.00    +0.000 N 
ENDROOT
BRANCH   1   2
ATOM      2  C   UNL     1       2.489   6.620  19.034  0.00  0.00    +0.000 A 
ATOM      3  C   UNL     1       1.969   6.183  20.259  0.00  0.00    +0.000 A 
ATOM      4  C   UNL     1       1.395   7.080  21.152  0.00  0.00    +0.000 A 
ATOM      5  C   UNL     1       1.230   8.409  20.816  0.00  0.00    +0.000 A 
ATOM      6  N   UNL     1       0.758   9.220  21.768  0.00  0.00    +0.000 NA
ATOM      7  C   UNL     1       0.546  10.495  21.399  0.00  0.00    +0.000 A 
ATOM      8  C   UNL     1       0.717  10.961  20.099  0.00  0.00    +0.000 A 
ATOM      9  N   UNL     1       1.266  10.159  19.149  0.00  0.00    +0.000 NA
ATOM     10  C   UNL     1       1.564   8.874  19.525  0.00  0.00    +0.000 A 
ATOM     11  C   UNL     1       2.239   7.967  18.687  0.00  0.00    +0.000 A 
BRANCH   8  12
ATOM     12  C   UNL     1       0.266  12.312  19.785  0.00  0.00    +0.000 A 
ATOM     13  C   UNL     1       0.321  12.964  18.520  0.00  0.00    +0.000 A 
ATOM     14  N   UNL     1      -0.210  14.182  18.534  0.00  0.00    +0.000 NA
ATOM     15  N   UNL     1      -0.611  14.330  19.808  0.00  0.00    +0.000 N 
ATOM     16  C   UNL     1      -1.367  15.509  20.158  0.00  0.00    +0.000 C 
ATOM     17  C   UNL     1      -0.283  13.265  20.611  0.00  0.00    +0.000 A 
ENDBRANCH   8  12
ENDBRANCH   1   2
BRANCH   1  22
ATOM     18  C   UNL     1       6.693   5.593  16.697  0.00  0.00    +0.000 A 
ATOM     19  C   UNL     1       7.509   5.465  17.814  0.00  0.00    +0.000 A 
ATOM     20  C   UNL     1       6.929   5.368  19.075  0.00  0.00    +0.000 A 
ATOM     21  C   UNL     1       5.533   5.453  19.219  0.00  0.00    +0.000 A 
ATOM     22  C   UNL     1       4.671   5.610  18.117  0.00  0.00    +0.000 A 
ATOM     23  C   UNL     1       5.301   5.602  16.864  0.00  0.00    +0.000 A 
BRANCH  18  25
ATOM     24  C   UNL     1       6.879   4.816  14.464  0.00  0.00    +0.000 C 
ATOM     25  O   UNL     1       7.339   5.690  15.492  0.00  0.00    +0.000 OA
ENDBRANCH  18  25
ENDBRANCH   1  22
BRANCH   1  26
ATOM     26  C   UNL     1       2.407   4.766  17.444  0.00  0.00    +0.000 C 
BRANCH  26  27
ATOM     27  C   UNL     1       2.473   3.298  17.933  0.00  0.00    +0.000 C 
BRANCH  27  28
ATOM     28  N   UNL     1       1.551   2.890  19.003  0.00  0.00    +0.000 NA
ATOM     29  H   UNL     1       0.880   2.236  18.594  0.00  0.00    +0.000 HD
BRANCH  28  30
ATOM     30  C   UNL     1       2.152   2.265  20.187  0.00  0.00    +0.000 C 
ATOM     31  C   UNL     1       3.632   2.600  20.388  0.00  0.00    +0.000 C 
ATOM     32  C   UNL     1       1.359   2.731  21.412  0.00  0.00    +0.000 C 
ENDBRANCH  28  30
ENDBRANCH  27  28
ENDBRANCH  26  27
ENDBRANCH   1  26
TORSDOF 8
ENDMDL
MODEL 6
REMARK VINA RESULT:      -7.6      1.375      1.864
REMARK  Name = 
REMARK  12 active torsions:
REMARK  status: ('A' for Active; 'I' for Inactive)
REMARK    1  A    between atoms: C_1  and  O_2
REMARK    2  A    between atoms: O_2  and  C_3
REMARK    3  A    between atoms: C_7  and  N_8
REMARK    4  A    between atoms: N_8  and  C_9
REMARK    5  A    between atoms: N_8  and  C_15
REMARK    6  A    between atoms: C_9  and  C_10
REMARK    7  A    between atoms: C_10  and  N_11
REMARK    8  A    between atoms: N_11  and  C_12
REMARK    9  A    between atoms: C_12  and  C_13
REMARK   10  A    between atoms: C_12  and  C_14
REMARK   11  A    between atoms: C_21  and  C_22
REMARK   12  A    between atoms: N_25  and  C_26
REMARK                            x       y       z     vdW  Elec       q    Type
REMARK                         _______ _______ _______ _____ _____    ______ ____
ROOT
ATOM      1  N   UNL     1       3.202   6.193  19.164  0.00  0.00    +0.000 N 
ENDROOT
BRANCH   1   2
ATOM      2  C   UNL     1       2.493   7.434  19.072  0.00  0.00    +0.000 A 
ATOM      3  C   UNL     1       2.346   8.048  17.823  0.00  0.00    +0.000 A 
ATOM      4  C   UNL     1       1.502   9.140  17.659  0.00  0.00    +0.000 A 
ATOM      5  C   UNL     1       0.861   9.711  18.741  0.00  0.00    +0.000 A 
ATOM      6  N   UNL     1      -0.005  10.695  18.481  0.00  0.00    +0.000 NA
ATOM      7  C   UNL     1      -0.568  11.279  19.554  0.00  0.00    +0.000 A 
ATOM      8  C   UNL     1      -0.235  10.962  20.868  0.00  0.00    +0.000 A 
ATOM      9  N   UNL     1       0.589   9.915  21.134  0.00  0.00    +0.000 NA
ATOM     10  C   UNL     1       1.114   9.253  20.053  0.00  0.00    +0.000 A 
ATOM     11  C   UNL     1       1.888   8.084  20.171  0.00  0.00    +0.000 A 
BRANCH   8  12
ATOM     12  C   UNL     1      -0.768  11.800  21.935  0.00  0.00    +0.000 A 
ATOM     13  C   UNL     1      -1.589  11.388  23.024  0.00  0.00    +0.000 A 
ATOM     14  N   UNL     1      -1.879  12.375  23.865  0.00  0.00    +0.000 NA
ATOM     15  N   UNL     1      -1.252  13.434  23.327  0.00  0.00    +0.000 N 
ATOM     16  C   UNL     1      -1.243  14.675  24.065  0.00  0.00    +0.000 C 
ATOM     17  C   UNL     1      -0.633  13.155  22.134  0.00  0.00    +0.000 A 
ENDBRANCH   8  12
ENDBRANCH   1   2
BRANCH   1  22
ATOM     18  C   UNL     1       5.727   5.566  16.438  0.00  0.00    +0.000 A 
ATOM     19  C   UNL     1       6.824   5.108  17.156  0.00  0.00    +0.000 A 
ATOM     20  C   UNL     1       6.722   4.956  18.535  0.00  0.00    +0.000 A 
ATOM     21  C   UNL     1       5.536   5.314  19.200  0.00  0.00    +0.000 A 
ATOM     22  C   UNL     1       4.409   5.809  18.515  0.00  0.00    +0.000 A 
ATOM     23  C   UNL     1       4.534   5.847  17.119  0.00  0.00    +0.000 A 
BRANCH  18  25
ATOM     24  C   UNL     1       5.929   4.482  14.338  0.00  0.00    +0.000 C 
ATOM     25  O   UNL     1       5.908   5.696  15.086  0.00  0.00    +0.000 OA
ENDBRANCH  18  25
ENDBRANCH   1  22
BRANCH   1  26
ATOM     26  C   UNL     1       2.546   5.209  20.083  0.00  0.00    +0.000 C 
BRANCH  26  27
ATOM     27  C   UNL     1       1.413   4.386  19.426  0.00  0.00    +0.000 C 
BRANCH  27  28
ATOM     28  N   UNL     1       1.647   3.853  18.075  0.00  0.00    +0.000 NA
ATOM     29  H   UNL     1       2.348   4.448  17.630  0.00  0.00    +0.000 HD
BRANCH  28  30
ATOM     30  C   UNL     1       2.092   2.456  17.986  0.00  0.00    +0.000 C 
ATOM     31  C   UNL     1       3.596   2.293  17.756  0.00  0.00    +0.000 C 
ATOM     32  C   UNL     1       1.704   1.761  19.295  0.00  0.00    +0.000 C 
ENDBRANCH  28  30
ENDBRANCH  27  28
ENDBRANCH  26  27
ENDBRANCH   1  26
TORSDOF 8
ENDMDL
MODEL 7
REMARK VINA RESULT:      -7.6      4.001      9.966
REMARK  Name = 
REMARK  12 active torsions:
REMARK  status: ('A' for Active; 'I' for Inactive)
REMARK    1  A    between atoms: C_1  and  O_2
REMARK    2  A    between atoms: O_2  and  C_3
REMARK    3  A    between atoms: C_7  and  N_8
REMARK    4  A    between atoms: N_8  and  C_9
REMARK    5  A    between atoms: N_8  and  C_15
REMARK    6  A    between atoms: C_9  and  C_10
REMARK    7  A    between atoms: C_10  and  N_11
REMARK    8  A    between atoms: N_11  and  C_12
REMARK    9  A    between atoms: C_12  and  C_13
REMARK   10  A    between atoms: C_12  and  C_14
REMARK   11  A    between atoms: C_21  and  C_22
REMARK   12  A    between atoms: N_25  and  C_26
REMARK                            x       y       z     vdW  Elec       q    Type
REMARK                         _______ _______ _______ _____ _____    ______ ____
ROOT
ATOM      1  N   UNL     1      -0.084  10.711  18.892  0.00  0.00    +0.000 N 
ENDROOT
BRANCH   1   2
ATOM      2  C   UNL     1       0.825   9.633  19.142  0.00  0.00    +0.000 A 
ATOM      3  C   UNL     1       0.810   8.998  20.390  0.00  0.00    +0.000 A 
ATOM      4  C   UNL     1       1.529   7.829  20.604  0.00  0.00    +0.000 A 
ATOM      5  C   UNL     1       2.358   7.314  19.627  0.00  0.00    +0.000 A 
ATOM      6  N   UNL     1       2.937   6.138  19.881  0.00  0.00    +0.000 NA
ATOM      7  C   UNL     1       3.788   5.688  18.943  0.00  0.00    +0.000 A 
ATOM      8  C   UNL     1       4.132   6.410  17.804  0.00  0.00    +0.000 A 
ATOM      9  N   UNL     1       3.491   7.571  17.507  0.00  0.00    +0.000 NA
ATOM     10  C   UNL     1       2.560   8.010  18.414  0.00  0.00    +0.000 A 
ATOM     11  C   UNL     1       1.737   9.129  18.188  0.00  0.00    +0.000 A 
BRANCH   8  12
ATOM     12  C   UNL     1       5.212   5.903  16.966  0.00  0.00    +0.000 A 
ATOM     13  C   UNL     1       6.457   5.362  17.399  0.00  0.00    +0.000 A 
ATOM     14  N   UNL     1       7.222   4.939  16.400  0.00  0.00    +0.000 NA
ATOM     15  N   UNL     1       6.482   5.206  15.310  0.00  0.00    +0.000 N 
ATOM     16  C   UNL     1       6.959   4.747  14.027  0.00  0.00    +0.000 C 
ATOM     17  C   UNL     1       5.302   5.848  15.594  0.00  0.00    +0.000 A 
ENDBRANCH   8  12
ENDBRANCH   1   2
BRANCH   1  22
ATOM     18  C   UNL     1      -3.677  11.474  18.054  0.00  0.00    +0.000 A 
ATOM     19  C   UNL     1      -3.887  10.693  16.925  0.00  0.00    +0.000 A 
ATOM     20  C   UNL     1      -2.863   9.873  16.464  0.00  0.00    +0.000 A 
ATOM     21  C   UNL     1      -1.610   9.877  17.103  0.00  0.00    +0.000 A 
ATOM     22  C   UNL     1      -1.346  10.675  18.234  0.00  0.00    +0.000 A 
ATOM     23  C   UNL     1      -2.443  11.405  18.714  0.00  0.00    +0.000 A 
BRANCH  18  25
ATOM     24  C   UNL     1      -5.809  12.366  17.513  0.00  0.00    +0.000 C 
ATOM     25  O   UNL     1      -4.731  12.260  18.442  0.00  0.00    +0.000 OA
ENDBRANCH  18  25
ENDBRANCH   1  22
BRANCH   1  26
ATOM     26  C   UNL     1       0.402  12.024  19.422  0.00  0.00    +0.000 C 
BRANCH  26  27
ATOM     27  C   UNL     1       1.123  12.903  18.371  0.00  0.00    +0.000 C 
BRANCH  27  28
ATOM     28  N   UNL     1       2.509  13.308  18.651  0.00  0.00    +0.000 NA
ATOM     29  H   UNL     1       3.093  12.936  17.898  0.00  0.00    +0.000 HD
BRANCH  28  30
ATOM     30  C   UNL     1       2.762  14.749  18.774  0.00  0.00    +0.000 C 
ATOM     31  C   UNL     1       3.571  15.342  17.619  0.00  0.00    +0.000 C 
ATOM     32  C   UNL     1       1.404  15.453  18.851  0.00  0.00    +0.000 C 
ENDBRANCH  28  30
ENDBRANCH  27  28
ENDBRANCH  26  27
ENDBRANCH   1  26
TORSDOF 8
ENDMDL
MODEL 8
REMARK VINA RESULT:      -7.5      3.656      9.925
REMARK  Name = 
REMARK  12 active torsions:
REMARK  status: ('A' for Active; 'I' for Inactive)
REMARK    1  A    between atoms: C_1  and  O_2
REMARK    2  A    between atoms: O_2  and  C_3
REMARK    3  A    between atoms: C_7  and  N_8
REMARK    4  A    between atoms: N_8  and  C_9
REMARK    5  A    between atoms: N_8  and  C_15
REMARK    6  A    between atoms: C_9  and  C_10
REMARK    7  A    between atoms: C_10  and  N_11
REMARK    8  A    between atoms: N_11  and  C_12
REMARK    9  A    between atoms: C_12  and  C_13
REMARK   10  A    between atoms: C_12  and  C_14
REMARK   11  A    between atoms: C_21  and  C_22
REMARK   12  A    between atoms: N_25  and  C_26
REMARK                            x       y       z     vdW  Elec       q    Type
REMARK                         _______ _______ _______ _____ _____    ______ ____
ROOT
ATOM      1  N   UNL     1      -0.173  10.892  19.063  0.00  0.00    +0.000 N 
ENDROOT
BRANCH   1   2
ATOM      2  C   UNL     1       0.677   9.769  19.319  0.00  0.00    +0.000 A 
ATOM      3  C   UNL     1       0.750   9.247  20.617  0.00  0.00    +0.000 A 
ATOM      4  C   UNL     1       1.401   8.045  20.867  0.00  0.00    +0.000 A 
ATOM      5  C   UNL     1       2.080   7.382  19.863  0.00  0.00    +0.000 A 
ATOM      6  N   UNL     1       2.595   6.188  20.168  0.00  0.00    +0.000 NA
ATOM      7  C   UNL     1       3.305   5.590  19.195  0.00  0.00    +0.000 A 
ATOM      8  C   UNL     1       3.576   6.181  17.964  0.00  0.00    +0.000 A 
ATOM      9  N   UNL     1       2.993   7.361  17.626  0.00  0.00    +0.000 NA
ATOM     10  C   UNL     1       2.200   7.951  18.576  0.00  0.00    +0.000 A 
ATOM     11  C   UNL     1       1.442   9.111  18.330  0.00  0.00    +0.000 A 
BRANCH   8  12
ATOM     12  C   UNL     1       4.520   5.516  17.072  0.00  0.00    +0.000 A 
ATOM     13  C   UNL     1       4.723   4.114  16.925  0.00  0.00    +0.000 A 
ATOM     14  N   UNL     1       5.624   3.809  15.998  0.00  0.00    +0.000 NA
ATOM     15  N   UNL     1       6.013   5.011  15.538  0.00  0.00    +0.000 N 
ATOM     16  C   UNL     1       6.907   5.055  14.405  0.00  0.00    +0.000 C 
ATOM     17  C   UNL     1       5.433   6.064  16.200  0.00  0.00    +0.000 A 
ENDBRANCH   8  12
ENDBRANCH   1   2
BRANCH   1  22
ATOM     18  C   UNL     1      -2.994  10.175  16.671  0.00  0.00    +0.000 A 
ATOM     19  C   UNL     1      -4.052  10.860  17.252  0.00  0.00    +0.000 A 
ATOM     20  C   UNL     1      -3.831  11.603  18.408  0.00  0.00    +0.000 A 
ATOM     21  C   UNL     1      -2.560  11.613  19.010  0.00  0.00    +0.000 A 
ATOM     22  C   UNL     1      -1.466  10.911  18.468  0.00  0.00    +0.000 A 
ATOM     23  C   UNL     1      -1.721  10.263  17.251  0.00  0.00    +0.000 A 
BRANCH  18  25
ATOM     24  C   UNL     1      -3.089  10.139  14.300  0.00  0.00    +0.000 C 
ATOM     25  O   UNL     1      -3.293   9.462  15.539  0.00  0.00    +0.000 OA
ENDBRANCH  18  25
ENDBRANCH   1  22
BRANCH   1  26
ATOM     26  C   UNL     1       0.423  12.193  19.506  0.00  0.00    +0.000 C 
BRANCH  26  27
ATOM     27  C   UNL     1       0.494  13.268  18.394  0.00  0.00    +0.000 C 
BRANCH  27  28
ATOM     28  N   UNL     1      -0.410  14.423  18.500  0.00  0.00    +0.000 NA
ATOM     29  H   UNL     1      -1.165  14.163  19.138  0.00  0.00    +0.000 HD
BRANCH  28  30
ATOM     30  C   UNL     1       0.184  15.684  18.964  0.00  0.00    +0.000 C 
ATOM     31  C   UNL     1       1.682  15.810  18.681  0.00  0.00    +0.000 C 
ATOM     32  C   UNL     1      -0.558  16.830  18.271  0.00  0.00    +0.000 C 
ENDBRANCH  28  30
ENDBRANCH  27  28
ENDBRANCH  26  27
ENDBRANCH   1  26
TORSDOF 8
ENDMDL
MODEL 9
REMARK VINA RESULT:      -7.5      3.694      9.803
REMARK  Name = 
REMARK  12 active torsions:
REMARK  status: ('A' for Active; 'I' for Inactive)
REMARK    1  A    between atoms: C_1  and  O_2
REMARK    2  A    between atoms: O_2  and  C_3
REMARK    3  A    between atoms: C_7  and  N_8
REMARK    4  A    between atoms: N_8  and  C_9
REMARK    5  A    between atoms: N_8  and  C_15
REMARK    6  A    between atoms: C_9  and  C_10
REMARK    7  A    between atoms: C_10  and  N_11
REMARK    8  A    between atoms: N_11  and  C_12
REMARK    9  A    between atoms: C_12  and  C_13
REMARK   10  A    between atoms: C_12  and  C_14
REMARK   11  A    between atoms: C_21  and  C_22
REMARK   12  A    between atoms: N_25  and  C_26
REMARK                            x       y       z     vdW  Elec       q    Type
REMARK                         _______ _______ _______ _____ _____    ______ ____
ROOT
ATOM      1  N   UNL     1       0.227  10.671  19.196  0.00  0.00    +0.000 N 
ENDROOT
BRANCH   1   2
ATOM      2  C   UNL     1       1.031   9.498  19.366  0.00  0.00    +0.000 A 
ATOM      3  C   UNL     1       1.051   8.857  20.611  0.00  0.00    +0.000 A 
ATOM      4  C   UNL     1       1.653   7.614  20.763  0.00  0.00    +0.000 A 
ATOM      5  C   UNL     1       2.334   7.021  19.718  0.00  0.00    +0.000 A 
ATOM      6  N   UNL     1       2.800   5.786  19.922  0.00  0.00    +0.000 NA
ATOM      7  C   UNL     1       3.514   5.254  18.914  0.00  0.00    +0.000 A 
ATOM      8  C   UNL     1       3.838   5.946  17.750  0.00  0.00    +0.000 A 
ATOM      9  N   UNL     1       3.305   7.173  17.510  0.00  0.00    +0.000 NA
ATOM     10  C   UNL     1       2.508   7.702  18.492  0.00  0.00    +0.000 A 
ATOM     11  C   UNL     1       1.798   8.907  18.338  0.00  0.00    +0.000 A 
BRANCH   8  12
ATOM     12  C   UNL     1       4.781   5.332  16.822  0.00  0.00    +0.000 A 
ATOM     13  C   UNL     1       5.067   3.944  16.679  0.00  0.00    +0.000 A 
ATOM     14  N   UNL     1       5.942   3.686  15.714  0.00  0.00    +0.000 NA
ATOM     15  N   UNL     1       6.234   4.904  15.226  0.00  0.00    +0.000 N 
ATOM     16  C   UNL     1       7.071   4.991  14.053  0.00  0.00    +0.000 C 
ATOM     17  C   UNL     1       5.617   5.926  15.905  0.00  0.00    +0.000 A 
ENDBRANCH   8  12
ENDBRANCH   1   2
BRANCH   1  22
ATOM     18  C   UNL     1      -2.550  10.183  16.697  0.00  0.00    +0.000 A 
ATOM     19  C   UNL     1      -3.566  10.964  17.231  0.00  0.00    +0.000 A 
ATOM     20  C   UNL     1      -3.326  11.695  18.391  0.00  0.00    +0.000 A 
ATOM     21  C   UNL     1      -2.083  11.599  19.042  0.00  0.00    +0.000 A 
ATOM     22  C   UNL     1      -1.035  10.798  18.549  0.00  0.00    +0.000 A 
ATOM     23  C   UNL     1      -1.298  10.163  17.327  0.00  0.00    +0.000 A 
BRANCH  18  25
ATOM     24  C   UNL     1      -3.577  10.215  14.558  0.00  0.00    +0.000 C 
ATOM     25  O   UNL     1      -2.866   9.488  15.558  0.00  0.00    +0.000 OA
ENDBRANCH  18  25
ENDBRANCH   1  22
BRANCH   1  26
ATOM     26  C   UNL     1       0.839  11.896  19.804  0.00  0.00    +0.000 C 
BRANCH  26  27
ATOM     27  C   UNL     1       1.252  12.975  18.774  0.00  0.00    +0.000 C 
BRANCH  27  28
ATOM     28  N   UNL     1       2.655  13.417  18.770  0.00  0.00    +0.000 NA
ATOM     29  H   UNL     1       3.116  12.959  17.981  0.00  0.00    +0.000 HD
BRANCH  28  30
ATOM     30  C   UNL     1       2.889  14.864  18.676  0.00  0.00    +0.000 C 
ATOM     31  C   UNL     1       3.607  15.298  17.397  0.00  0.00    +0.000 C 
ATOM     32  C   UNL     1       1.527  15.560  18.751  0.00  0.00    +0.000 C 
ENDBRANCH  28  30
ENDBRANCH  27  28
ENDBRANCH  26  27
ENDBRANCH   1  26
TORSDOF 8
ENDMDL
