MODEL 1
REMARK VINA RESULT:      -8.7      0.000      0.000
REMARK  Name = 
REMARK  6 active torsions:
REMARK  status: ('A' for Active; 'I' for Inactive)
REMARK    1  A    between atoms: C_1  and  O_2
REMARK    2  A    between atoms: O_2  and  C_3
REMARK    3  A    between atoms: C_6  and  C_7
REMARK    4  A    between atoms: C_12  and  C_13
REMARK    5  A    between atoms: C_13  and  C_14
REMARK    6  A    between atoms: C_14  and  N_15
REMARK                            x       y       z     vdW  Elec       q    Type
REMARK                         _______ _______ _______ _____ _____    ______ ____
ROOT
ATOM      1  C   UNL     1       3.862   3.409  17.889  0.00  0.00    +0.000 A 
ATOM      2  N   UNL     1       3.447   2.139  17.860  0.00  0.00    +0.000 NA
ATOM      3  N   UNL     1       2.394   1.980  18.753  0.00  0.00    +0.000 NA
ATOM      4  C   UNL     1       2.213   3.146  19.286  0.00  0.00    +0.000 A 
ATOM      5  S   UNL     1       1.147   3.850  20.423  0.00  0.00    +0.000 S 
ATOM      6  C   UNL     1       1.982   5.390  20.096  0.00  0.00    +0.000 A 
ATOM      7  N   UNL     1       2.983   5.367  19.256  0.00  0.00    +0.000 NA
ATOM      8  N   UNL     1       3.078   4.073  18.807  0.00  0.00    +0.000 N 
ENDROOT
BRANCH   1  12
ATOM      9  C   UNL     1       6.994   5.035  15.437  0.00  0.00    +0.000 A 
ATOM     10  C   UNL     1       5.811   4.560  14.873  0.00  0.00    +0.000 A 
ATOM     11  C   UNL     1       4.795   4.043  15.682  0.00  0.00    +0.000 A 
ATOM     12  C   UNL     1       4.947   3.968  17.077  0.00  0.00    +0.000 A 
ATOM     13  C   UNL     1       6.151   4.430  17.626  0.00  0.00    +0.000 A 
ATOM     14  C   UNL     1       7.169   4.954  16.815  0.00  0.00    +0.000 A 
BRANCH   9  16
ATOM     15  C   UNL     1       7.721   5.136  13.189  0.00  0.00    +0.000 C 
ATOM     16  O   UNL     1       7.908   5.520  14.545  0.00  0.00    +0.000 OA
ENDBRANCH   9  16
ENDBRANCH   1  12
BRANCH   6  17
ATOM     17  C   UNL     1       1.489   6.627  20.816  0.00  0.00    +0.000 C 
BRANCH  17  18
ATOM     18  C   UNL     1       2.002   7.879  20.101  0.00  0.00    +0.000 C 
BRANCH  18  19
ATOM     19  N   UNL     1       1.187   9.080  20.281  0.00  0.00    +0.000 N 
ATOM     20  C   UNL     1       0.546   9.631  19.209  0.00  0.00    +0.000 C 
ATOM     21  O   UNL     1       0.652   9.352  18.035  0.00  0.00    +0.000 OA
ATOM     22  C   UNL     1      -0.285  10.709  19.703  0.00  0.00    +0.000 A 
ATOM     23  C   UNL     1      -1.182  11.478  18.988  0.00  0.00    +0.000 A 
ATOM     24  C   UNL     1      -1.777  12.539  19.658  0.00  0.00    +0.000 A 
ATOM     25  C   UNL     1      -1.428  12.809  20.997  0.00  0.00    +0.000 A 
ATOM     26  C   UNL     1      -0.539  11.973  21.708  0.00  0.00    +0.000 A 
ATOM     27  C   UNL     1      -0.002  10.890  21.042  0.00  0.00    +0.000 A 
ATOM     28  C   UNL     1       0.907   9.774  21.436  0.00  0.00    +0.000 C 
ATOM     29  O   UNL     1       1.271   9.547  22.563  0.00  0.00    +0.000 OA
ENDBRANCH  18  19
ENDBRANCH  17  18
ENDBRANCH   6  17
TORSDOF 5
ENDMDL
MODEL 2
REMARK VINA RESULT:      -8.2      0.281      1.636
REMARK  Name = 
REMARK  6 active torsions:
REMARK  status: ('A' for Active; 'I' for Inactive)
REMARK    1  A    between atoms: C_1  and  O_2
REMARK    2  A    between atoms: O_2  and  C_3
REMARK    3  A    between atoms: C_6  and  C_7
REMARK    4  A    between atoms: C_12  and  C_13
REMARK    5  A    between atoms: C_13  and  C_14
REMARK    6  A    between atoms: C_14  and  N_15
REMARK                            x       y       z     vdW  Elec       q    Type
REMARK                         _______ _______ _______ _____ _____    ______ ____
ROOT
ATOM      1  C   UNL     1       3.876   3.517  17.879  0.00  0.00    +0.000 A 
ATOM      2  N   UNL     1       3.464   2.245  17.871  0.00  0.00    +0.000 NA
ATOM      3  N   UNL     1       2.412   2.098  18.767  0.00  0.00    +0.000 NA
ATOM      4  C   UNL     1       2.229   3.272  19.282  0.00  0.00    +0.000 A 
ATOM      5  S   UNL     1       1.162   3.991  20.409  0.00  0.00    +0.000 S 
ATOM      6  C   UNL     1       1.993   5.528  20.055  0.00  0.00    +0.000 A 
ATOM      7  N   UNL     1       2.993   5.494  19.214  0.00  0.00    +0.000 NA
ATOM      8  N   UNL     1       3.091   4.193  18.787  0.00  0.00    +0.000 N 
ENDROOT
BRANCH   1  12
ATOM      9  C   UNL     1       7.013   5.087  15.398  0.00  0.00    +0.000 A 
ATOM     10  C   UNL     1       6.011   4.278  14.865  0.00  0.00    +0.000 A 
ATOM     11  C   UNL     1       4.990   3.782  15.680  0.00  0.00    +0.000 A 
ATOM     12  C   UNL     1       4.958   4.065  17.056  0.00  0.00    +0.000 A 
ATOM     13  C   UNL     1       5.985   4.863  17.580  0.00  0.00    +0.000 A 
ATOM     14  C   UNL     1       7.008   5.365  16.762  0.00  0.00    +0.000 A 
BRANCH   9  16
ATOM     15  C   UNL     1       7.712   5.179  13.141  0.00  0.00    +0.000 C 
ATOM     16  O   UNL     1       7.952   5.515  14.502  0.00  0.00    +0.000 OA
ENDBRANCH   9  16
ENDBRANCH   1  12
BRANCH   6  17
ATOM     17  C   UNL     1       1.497   6.776  20.756  0.00  0.00    +0.000 C 
BRANCH  17  18
ATOM     18  C   UNL     1       1.965   8.016  19.992  0.00  0.00    +0.000 C 
BRANCH  18  19
ATOM     19  N   UNL     1       1.071   9.171  20.068  0.00  0.00    +0.000 N 
ATOM     20  C   UNL     1       0.897   9.816  21.258  0.00  0.00    +0.000 C 
ATOM     21  O   UNL     1       1.280   9.494  22.361  0.00  0.00    +0.000 OA
ATOM     22  C   UNL     1       0.082  10.987  21.006  0.00  0.00    +0.000 A 
ATOM     23  C   UNL     1      -0.263  11.983  21.898  0.00  0.00    +0.000 A 
ATOM     24  C   UNL     1      -1.160  12.946  21.453  0.00  0.00    +0.000 A 
ATOM     25  C   UNL     1      -1.700  12.854  20.154  0.00  0.00    +0.000 A 
ATOM     26  C   UNL     1      -1.289  11.846  19.255  0.00  0.00    +0.000 A 
ATOM     27  C   UNL     1      -0.354  10.932  19.697  0.00  0.00    +0.000 A 
ATOM     28  C   UNL     1       0.355   9.782  19.063  0.00  0.00    +0.000 C 
ATOM     29  O   UNL     1       0.305   9.502  17.892  0.00  0.00    +0.000 OA
ENDBRANCH  18  19
ENDBRANCH  17  18
ENDBRANCH   6  17
TORSDOF 5
ENDMDL
MODEL 3
REMARK VINA RESULT:      -8.1      2.257      3.628
REMARK  Name = 
REMARK  6 active torsions:
REMARK  status: ('A' for Active; 'I' for Inactive)
REMARK    1  A    between atoms: C_1  and  O_2
REMARK    2  A    between atoms: O_2  and  C_3
REMARK    3  A    between atoms: C_6  and  C_7
REMARK    4  A    between atoms: C_12  and  C_13
REMARK    5  A    between atoms: C_13  and  C_14
REMARK    6  A    between atoms: C_14  and  N_15
REMARK                            x       y       z     vdW  Elec       q    Type
REMARK                         _______ _______ _______ _____ _____    ______ ____
ROOT
ATOM      1  C   UNL     1       2.981   6.009  19.097  0.00  0.00    +0.000 A 
ATOM      2  N   UNL     1       2.716   5.116  20.055  0.00  0.00    +0.000 NA
ATOM      3  N   UNL     1       1.879   5.694  21.002  0.00  0.00    +0.000 NA
ATOM      4  C   UNL     1       1.673   6.903  20.589  0.00  0.00    +0.000 A 
ATOM      5  S   UNL     1       0.772   8.263  21.104  0.00  0.00    +0.000 S 
ATOM      6  C   UNL     1       1.347   9.072  19.623  0.00  0.00    +0.000 A 
ATOM      7  N   UNL     1       2.163   8.406  18.849  0.00  0.00    +0.000 NA
ATOM      8  N   UNL     1       2.317   7.171  19.428  0.00  0.00    +0.000 N 
ENDROOT
BRANCH   1  12
ATOM      9  C   UNL     1       5.451   5.387  15.637  0.00  0.00    +0.000 A 
ATOM     10  C   UNL     1       5.275   6.660  16.175  0.00  0.00    +0.000 A 
ATOM     11  C   UNL     1       4.477   6.849  17.307  0.00  0.00    +0.000 A 
ATOM     12  C   UNL     1       3.817   5.768  17.917  0.00  0.00    +0.000 A 
ATOM     13  C   UNL     1       3.988   4.497  17.351  0.00  0.00    +0.000 A 
ATOM     14  C   UNL     1       4.793   4.307  16.217  0.00  0.00    +0.000 A 
BRANCH   9  16
ATOM     15  C   UNL     1       6.338   4.065  13.888  0.00  0.00    +0.000 C 
ATOM     16  O   UNL     1       6.257   5.329  14.535  0.00  0.00    +0.000 OA
ENDBRANCH   9  16
ENDBRANCH   1  12
BRANCH   6  17
ATOM     17  C   UNL     1       0.863  10.482  19.355  0.00  0.00    +0.000 C 
BRANCH  17  18
ATOM     18  C   UNL     1       0.792  11.261  20.671  0.00  0.00    +0.000 C 
BRANCH  18  19
ATOM     19  N   UNL     1      -0.549  11.683  21.075  0.00  0.00    +0.000 N 
ATOM     20  C   UNL     1      -0.967  11.474  22.357  0.00  0.00    +0.000 C 
ATOM     21  O   UNL     1      -0.430  10.838  23.237  0.00  0.00    +0.000 OA
ATOM     22  C   UNL     1      -2.259  12.111  22.505  0.00  0.00    +0.000 A 
ATOM     23  C   UNL     1      -3.010  12.238  23.656  0.00  0.00    +0.000 A 
ATOM     24  C   UNL     1      -4.280  12.785  23.524  0.00  0.00    +0.000 A 
ATOM     25  C   UNL     1      -4.759  13.147  22.249  0.00  0.00    +0.000 A 
ATOM     26  C   UNL     1      -3.945  13.043  21.100  0.00  0.00    +0.000 A 
ATOM     27  C   UNL     1      -2.666  12.551  21.261  0.00  0.00    +0.000 A 
ATOM     28  C   UNL     1      -1.511  12.336  20.339  0.00  0.00    +0.000 C 
ATOM     29  O   UNL     1      -1.466  12.708  19.193  0.00  0.00    +0.000 OA
ENDBRANCH  18  19
ENDBRANCH  17  18
ENDBRANCH   6  17
TORSDOF 5
ENDMDL
MODEL 4
REMARK VINA RESULT:      -8.0      1.176      1.343
REMARK  Name = 
REMARK  6 active torsions:
REMARK  status: ('A' for Active; 'I' for Inactive)
REMARK    1  A    between atoms: C_1  and  O_2
REMARK    2  A    between atoms: O_2  and  C_3
REMARK    3  A    between atoms: C_6  and  C_7
REMARK    4  A    between atoms: C_12  and  C_13
REMARK    5  A    between atoms: C_13  and  C_14
REMARK    6  A    between atoms: C_14  and  N_15
REMARK                            x       y       z     vdW  Elec       q    Type
REMARK                         _______ _______ _______ _____ _____    ______ ____
ROOT
ATOM      1  C   UNL     1       4.401   4.198  18.346  0.00  0.00    +0.000 A 
ATOM      2  N   UNL     1       4.187   3.013  18.926  0.00  0.00    +0.000 NA
ATOM      3  N   UNL     1       3.233   3.158  19.926  0.00  0.00    +0.000 NA
ATOM      4  C   UNL     1       2.910   4.412  19.918  0.00  0.00    +0.000 A 
ATOM      5  S   UNL     1       1.826   5.431  20.763  0.00  0.00    +0.000 S 
ATOM      6  C   UNL     1       2.390   6.741  19.693  0.00  0.00    +0.000 A 
ATOM      7  N   UNL     1       3.323   6.452  18.826  0.00  0.00    +0.000 NA
ATOM      8  N   UNL     1       3.587   5.114  18.977  0.00  0.00    +0.000 N 
ENDROOT
BRANCH   1  12
ATOM      9  C   UNL     1       7.055   4.928  15.047  0.00  0.00    +0.000 A 
ATOM     10  C   UNL     1       5.684   4.779  14.847  0.00  0.00    +0.000 A 
ATOM     11  C   UNL     1       4.829   4.552  15.930  0.00  0.00    +0.000 A 
ATOM     12  C   UNL     1       5.329   4.447  17.239  0.00  0.00    +0.000 A 
ATOM     13  C   UNL     1       6.714   4.579  17.419  0.00  0.00    +0.000 A 
ATOM     14  C   UNL     1       7.571   4.811  16.334  0.00  0.00    +0.000 A 
BRANCH   9  16
ATOM     15  C   UNL     1       7.231   4.646  12.705  0.00  0.00    +0.000 C 
ATOM     16  O   UNL     1       7.786   5.151  13.913  0.00  0.00    +0.000 OA
ENDBRANCH   9  16
ENDBRANCH   1  12
BRANCH   6  17
ATOM     17  C   UNL     1       1.760   8.108  19.861  0.00  0.00    +0.000 C 
BRANCH  17  18
ATOM     18  C   UNL     1       1.023   8.176  21.200  0.00  0.00    +0.000 C 
BRANCH  18  19
ATOM     19  N   UNL     1       0.287   9.416  21.447  0.00  0.00    +0.000 N 
ATOM     20  C   UNL     1      -0.247  10.107  20.399  0.00  0.00    +0.000 C 
ATOM     21  O   UNL     1      -0.093   9.925  19.211  0.00  0.00    +0.000 OA
ATOM     22  C   UNL     1      -1.026  11.198  20.946  0.00  0.00    +0.000 A 
ATOM     23  C   UNL     1      -1.821  12.094  20.260  0.00  0.00    +0.000 A 
ATOM     24  C   UNL     1      -2.377  13.135  20.993  0.00  0.00    +0.000 A 
ATOM     25  C   UNL     1      -2.088  13.257  22.367  0.00  0.00    +0.000 A 
ATOM     26  C   UNL     1      -1.306  12.296  23.043  0.00  0.00    +0.000 A 
ATOM     27  C   UNL     1      -0.810  11.238  22.309  0.00  0.00    +0.000 A 
ATOM     28  C   UNL     1      -0.009  10.024  22.646  0.00  0.00    +0.000 C 
ATOM     29  O   UNL     1       0.271   9.671  23.764  0.00  0.00    +0.000 OA
ENDBRANCH  18  19
ENDBRANCH  17  18
ENDBRANCH   6  17
TORSDOF 5
ENDMDL
MODEL 5
REMARK VINA RESULT:      -8.0      0.827      2.009
REMARK  Name = 
REMARK  6 active torsions:
REMARK  status: ('A' for Active; 'I' for Inactive)
REMARK    1  A    between atoms: C_1  and  O_2
REMARK    2  A    between atoms: O_2  and  C_3
REMARK    3  A    between atoms: C_6  and  C_7
REMARK    4  A    between atoms: C_12  and  C_13
REMARK    5  A    between atoms: C_13  and  C_14
REMARK    6  A    between atoms: C_14  and  N_15
REMARK                            x       y       z     vdW  Elec       q    Type
REMARK                         _______ _______ _______ _____ _____    ______ ____
ROOT
ATOM      1  C   UNL     1       4.596   3.587  18.794  0.00  0.00    +0.000 A 
ATOM      2  N   UNL     1       4.754   2.396  19.380  0.00  0.00    +0.000 NA
ATOM      3  N   UNL     1       3.868   2.289  20.446  0.00  0.00    +0.000 NA
ATOM      4  C   UNL     1       3.215   3.407  20.467  0.00  0.00    +0.000 A 
ATOM      5  S   UNL     1       1.955   4.102  21.391  0.00  0.00    +0.000 S 
ATOM      6  C   UNL     1       2.063   5.501  20.293  0.00  0.00    +0.000 A 
ATOM      7  N   UNL     1       2.978   5.467  19.360  0.00  0.00    +0.000 NA
ATOM      8  N   UNL     1       3.608   4.254  19.485  0.00  0.00    +0.000 N 
ENDROOT
BRANCH   1  12
ATOM      9  C   UNL     1       6.849   5.006  15.422  0.00  0.00    +0.000 A 
ATOM     10  C   UNL     1       7.383   5.039  16.708  0.00  0.00    +0.000 A 
ATOM     11  C   UNL     1       6.644   4.565  17.796  0.00  0.00    +0.000 A 
ATOM     12  C   UNL     1       5.342   4.065  17.626  0.00  0.00    +0.000 A 
ATOM     13  C   UNL     1       4.812   4.059  16.328  0.00  0.00    +0.000 A 
ATOM     14  C   UNL     1       5.555   4.530  15.235  0.00  0.00    +0.000 A 
BRANCH   9  16
ATOM     15  C   UNL     1       7.469   4.954  13.140  0.00  0.00    +0.000 C 
ATOM     16  O   UNL     1       7.668   5.492  14.441  0.00  0.00    +0.000 OA
ENDBRANCH   9  16
ENDBRANCH   1  12
BRANCH   6  17
ATOM     17  C   UNL     1       1.097   6.647  20.511  0.00  0.00    +0.000 C 
BRANCH  17  18
ATOM     18  C   UNL     1       1.874   7.957  20.656  0.00  0.00    +0.000 C 
BRANCH  18  19
ATOM     19  N   UNL     1       1.096   9.174  20.426  0.00  0.00    +0.000 N 
ATOM     20  C   UNL     1       0.698   9.934  21.486  0.00  0.00    +0.000 C 
ATOM     21  O   UNL     1       0.771   9.685  22.670  0.00  0.00    +0.000 OA
ATOM     22  C   UNL     1       0.078  11.131  20.958  0.00  0.00    +0.000 A 
ATOM     23  C   UNL     1      -0.382  12.225  21.664  0.00  0.00    +0.000 A 
ATOM     24  C   UNL     1      -1.053  13.205  20.943  0.00  0.00    +0.000 A 
ATOM     25  C   UNL     1      -1.268  13.035  19.560  0.00  0.00    +0.000 A 
ATOM     26  C   UNL     1      -0.744  11.923  18.865  0.00  0.00    +0.000 A 
ATOM     27  C   UNL     1      -0.031  10.990  19.589  0.00  0.00    +0.000 A 
ATOM     28  C   UNL     1       0.704   9.740  19.234  0.00  0.00    +0.000 C 
ATOM     29  O   UNL     1       0.915   9.360  18.109  0.00  0.00    +0.000 OA
ENDBRANCH  18  19
ENDBRANCH  17  18
ENDBRANCH   6  17
TORSDOF 5
ENDMDL
MODEL 6
REMARK VINA RESULT:      -8.0      2.161      3.154
REMARK  Name = 
REMARK  6 active torsions:
REMARK  status: ('A' for Active; 'I' for Inactive)
REMARK    1  A    between atoms: C_1  and  O_2
REMARK    2  A    between atoms: O_2  and  C_3
REMARK    3  A    between atoms: C_6  and  C_7
REMARK    4  A    between atoms: C_12  and  C_13
REMARK    5  A    between atoms: C_13  and  C_14
REMARK    6  A    between atoms: C_14  and  N_15
REMARK                            x       y       z     vdW  Elec       q    Type
REMARK                         _______ _______ _______ _____ _____    ______ ____
ROOT
ATOM      1  C   UNL     1       3.102   5.876  19.105  0.00  0.00    +0.000 A 
ATOM      2  N   UNL     1       2.919   4.979  20.079  0.00  0.00    +0.000 NA
ATOM      3  N   UNL     1       2.077   5.518  21.045  0.00  0.00    +0.000 NA
ATOM      4  C   UNL     1       1.788   6.708  20.627  0.00  0.00    +0.000 A 
ATOM      5  S   UNL     1       0.823   8.019  21.155  0.00  0.00    +0.000 S 
ATOM      6  C   UNL     1       1.306   8.843  19.650  0.00  0.00    +0.000 A 
ATOM      7  N   UNL     1       2.137   8.217  18.860  0.00  0.00    +0.000 NA
ATOM      8  N   UNL     1       2.381   7.000  19.445  0.00  0.00    +0.000 N 
ENDROOT
BRANCH   1  12
ATOM      9  C   UNL     1       5.515   5.359  15.587  0.00  0.00    +0.000 A 
ATOM     10  C   UNL     1       5.434   6.594  16.229  0.00  0.00    +0.000 A 
ATOM     11  C   UNL     1       4.654   6.747  17.379  0.00  0.00    +0.000 A 
ATOM     12  C   UNL     1       3.917   5.672  17.903  0.00  0.00    +0.000 A 
ATOM     13  C   UNL     1       3.993   4.443  17.233  0.00  0.00    +0.000 A 
ATOM     14  C   UNL     1       4.779   4.287  16.082  0.00  0.00    +0.000 A 
BRANCH   9  16
ATOM     15  C   UNL     1       6.442   4.072  13.834  0.00  0.00    +0.000 C 
ATOM     16  O   UNL     1       6.313   5.333  14.478  0.00  0.00    +0.000 OA
ENDBRANCH   9  16
ENDBRANCH   1  12
BRANCH   6  17
ATOM     17  C   UNL     1       0.732  10.219  19.384  0.00  0.00    +0.000 C 
BRANCH  17  18
ATOM     18  C   UNL     1       0.920  11.104  20.619  0.00  0.00    +0.000 C 
BRANCH  18  19
ATOM     19  N   UNL     1      -0.315  11.559  21.255  0.00  0.00    +0.000 N 
ATOM     20  C   UNL     1      -1.185  12.348  20.561  0.00  0.00    +0.000 C 
ATOM     21  O   UNL     1      -1.034  12.878  19.481  0.00  0.00    +0.000 OA
ATOM     22  C   UNL     1      -2.366  12.524  21.379  0.00  0.00    +0.000 A 
ATOM     23  C   UNL     1      -3.541  13.166  21.039  0.00  0.00    +0.000 A 
ATOM     24  C   UNL     1      -4.492  13.313  22.041  0.00  0.00    +0.000 A 
ATOM     25  C   UNL     1      -4.217  12.849  23.343  0.00  0.00    +0.000 A 
ATOM     26  C   UNL     1      -3.022  12.159  23.642  0.00  0.00    +0.000 A 
ATOM     27  C   UNL     1      -2.115  11.972  22.619  0.00  0.00    +0.000 A 
ATOM     28  C   UNL     1      -0.799  11.274  22.512  0.00  0.00    +0.000 C 
ATOM     29  O   UNL     1      -0.313  10.583  23.372  0.00  0.00    +0.000 OA
ENDBRANCH  18  19
ENDBRANCH  17  18
ENDBRANCH   6  17
TORSDOF 5
ENDMDL
MODEL 7
REMARK VINA RESULT:      -7.9      1.059      1.910
REMARK  Name = 
REMARK  6 active torsions:
REMARK  status: ('A' for Active; 'I' for Inactive)
REMARK    1  A    between atoms: C_1  and  O_2
REMARK    2  A    between atoms: O_2  and  C_3
REMARK    3  A    between atoms: C_6  and  C_7
REMARK    4  A    between atoms: C_12  and  C_13
REMARK    5  A    between atoms: C_13  and  C_14
REMARK    6  A    between atoms: C_14  and  N_15
REMARK                            x       y       z     vdW  Elec       q    Type
REMARK                         _______ _______ _______ _____ _____    ______ ____
ROOT
ATOM      1  C   UNL     1       4.038   3.707  17.875  0.00  0.00    +0.000 A 
ATOM      2  N   UNL     1       3.594   2.453  18.004  0.00  0.00    +0.000 NA
ATOM      3  N   UNL     1       2.641   2.405  19.014  0.00  0.00    +0.000 NA
ATOM      4  C   UNL     1       2.545   3.618  19.457  0.00  0.00    +0.000 A 
ATOM      5  S   UNL     1       1.625   4.451  20.634  0.00  0.00    +0.000 S 
ATOM      6  C   UNL     1       2.455   5.930  20.084  0.00  0.00    +0.000 A 
ATOM      7  N   UNL     1       3.357   5.802  19.147  0.00  0.00    +0.000 NA
ATOM      8  N   UNL     1       3.373   4.472  18.809  0.00  0.00    +0.000 N 
ENDROOT
BRANCH   1  12
ATOM      9  C   UNL     1       7.029   5.048  15.096  0.00  0.00    +0.000 A 
ATOM     10  C   UNL     1       7.260   5.073  16.470  0.00  0.00    +0.000 A 
ATOM     11  C   UNL     1       6.284   4.624  17.364  0.00  0.00    +0.000 A 
ATOM     12  C   UNL     1       5.040   4.159  16.905  0.00  0.00    +0.000 A 
ATOM     13  C   UNL     1       4.815   4.160  15.521  0.00  0.00    +0.000 A 
ATOM     14  C   UNL     1       5.796   4.606  14.623  0.00  0.00    +0.000 A 
BRANCH   9  16
ATOM     15  C   UNL     1       7.946   5.267  12.928  0.00  0.00    +0.000 C 
ATOM     16  O   UNL     1       8.059   5.506  14.325  0.00  0.00    +0.000 OA
ENDBRANCH   9  16
ENDBRANCH   1  12
BRANCH   6  17
ATOM     17  C   UNL     1       2.070   7.240  20.739  0.00  0.00    +0.000 C 
BRANCH  17  18
ATOM     18  C   UNL     1       1.190   8.053  19.788  0.00  0.00    +0.000 C 
BRANCH  18  19
ATOM     19  N   UNL     1       0.644   9.291  20.346  0.00  0.00    +0.000 N 
ATOM     20  C   UNL     1      -0.167   9.240  21.442  0.00  0.00    +0.000 C 
ATOM     21  O   UNL     1      -0.649   8.271  21.987  0.00  0.00    +0.000 OA
ATOM     22  C   UNL     1      -0.437  10.603  21.849  0.00  0.00    +0.000 A 
ATOM     23  C   UNL     1      -1.130  11.029  22.965  0.00  0.00    +0.000 A 
ATOM     24  C   UNL     1      -1.366  12.393  23.079  0.00  0.00    +0.000 A 
ATOM     25  C   UNL     1      -0.933  13.267  22.062  0.00  0.00    +0.000 A 
ATOM     26  C   UNL     1      -0.189  12.800  20.957  0.00  0.00    +0.000 A 
ATOM     27  C   UNL     1       0.084  11.449  20.891  0.00  0.00    +0.000 A 
ATOM     28  C   UNL     1       0.857  10.590  19.945  0.00  0.00    +0.000 C 
ATOM     29  O   UNL     1       1.543  11.002  19.043  0.00  0.00    +0.000 OA
ENDBRANCH  18  19
ENDBRANCH  17  18
ENDBRANCH   6  17
TORSDOF 5
ENDMDL
MODEL 8
REMARK VINA RESULT:      -7.9      1.048      2.002
REMARK  Name = 
REMARK  6 active torsions:
REMARK  status: ('A' for Active; 'I' for Inactive)
REMARK    1  A    between atoms: C_1  and  O_2
REMARK    2  A    between atoms: O_2  and  C_3
REMARK    3  A    between atoms: C_6  and  C_7
REMARK    4  A    between atoms: C_12  and  C_13
REMARK    5  A    between atoms: C_13  and  C_14
REMARK    6  A    between atoms: C_14  and  N_15
REMARK                            x       y       z     vdW  Elec       q    Type
REMARK                         _______ _______ _______ _____ _____    ______ ____
ROOT
ATOM      1  C   UNL     1       3.979   4.108  17.997  0.00  0.00    +0.000 A 
ATOM      2  N   UNL     1       3.473   2.896  18.248  0.00  0.00    +0.000 NA
ATOM      3  N   UNL     1       2.466   3.009  19.199  0.00  0.00    +0.000 NA
ATOM      4  C   UNL     1       2.402   4.269  19.489  0.00  0.00    +0.000 A 
ATOM      5  S   UNL     1       1.459   5.273  20.502  0.00  0.00    +0.000 S 
ATOM      6  C   UNL     1       2.382   6.642  19.829  0.00  0.00    +0.000 A 
ATOM      7  N   UNL     1       3.326   6.366  18.968  0.00  0.00    +0.000 NA
ATOM      8  N   UNL     1       3.301   5.006  18.792  0.00  0.00    +0.000 N 
ENDROOT
BRANCH   1  12
ATOM      9  C   UNL     1       7.063   4.959  15.128  0.00  0.00    +0.000 A 
ATOM     10  C   UNL     1       5.747   4.735  14.725  0.00  0.00    +0.000 A 
ATOM     11  C   UNL     1       4.751   4.469  15.669  0.00  0.00    +0.000 A 
ATOM     12  C   UNL     1       5.050   4.399  17.040  0.00  0.00    +0.000 A 
ATOM     13  C   UNL     1       6.382   4.606  17.426  0.00  0.00    +0.000 A 
ATOM     14  C   UNL     1       7.382   4.877  16.480  0.00  0.00    +0.000 A 
BRANCH   9  16
ATOM     15  C   UNL     1       7.475   4.949  12.800  0.00  0.00    +0.000 C 
ATOM     16  O   UNL     1       7.944   5.213  14.116  0.00  0.00    +0.000 OA
ENDBRANCH   9  16
ENDBRANCH   1  12
BRANCH   6  17
ATOM     17  C   UNL     1       2.023   8.035  20.300  0.00  0.00    +0.000 C 
BRANCH  17  18
ATOM     18  C   UNL     1       0.679   8.002  21.031  0.00  0.00    +0.000 C 
BRANCH  18  19
ATOM     19  N   UNL     1      -0.031   9.279  21.093  0.00  0.00    +0.000 N 
ATOM     20  C   UNL     1      -0.328   9.831  22.305  0.00  0.00    +0.000 C 
ATOM     21  O   UNL     1      -0.211   9.347  23.410  0.00  0.00    +0.000 OA
ATOM     22  C   UNL     1      -0.896  11.140  22.062  0.00  0.00    +0.000 A 
ATOM     23  C   UNL     1      -1.251  12.093  22.996  0.00  0.00    +0.000 A 
ATOM     24  C   UNL     1      -1.894  13.231  22.525  0.00  0.00    +0.000 A 
ATOM     25  C   UNL     1      -2.187  13.353  21.152  0.00  0.00    +0.000 A 
ATOM     26  C   UNL     1      -1.769  12.377  20.220  0.00  0.00    +0.000 A 
ATOM     27  C   UNL     1      -1.081  11.282  20.701  0.00  0.00    +0.000 A 
ATOM     28  C   UNL     1      -0.445  10.092  20.062  0.00  0.00    +0.000 C 
ATOM     29  O   UNL     1      -0.315   9.935  18.874  0.00  0.00    +0.000 OA
ENDBRANCH  18  19
ENDBRANCH  17  18
ENDBRANCH   6  17
TORSDOF 5
ENDMDL
MODEL 9
REMARK VINA RESULT:      -7.9      2.240      8.640
REMARK  Name = 
REMARK  6 active torsions:
REMARK  status: ('A' for Active; 'I' for Inactive)
REMARK    1  A    between atoms: C_1  and  O_2
REMARK    2  A    between atoms: O_2  and  C_3
REMARK    3  A    between atoms: C_6  and  C_7
REMARK    4  A    between atoms: C_12  and  C_13
REMARK    5  A    between atoms: C_13  and  C_14
REMARK    6  A    between atoms: C_14  and  N_15
REMARK                            x       y       z     vdW  Elec       q    Type
REMARK                         _______ _______ _______ _____ _____    ______ ____
ROOT
ATOM      1  C   UNL     1       2.313   6.003  19.947  0.00  0.00    +0.000 A 
ATOM      2  N   UNL     1       1.630   5.049  20.588  0.00  0.00    +0.000 NA
ATOM      3  N   UNL     1       2.340   3.856  20.523  0.00  0.00    +0.000 NA
ATOM      4  C   UNL     1       3.413   4.127  19.851  0.00  0.00    +0.000 A 
ATOM      5  S   UNL     1       4.813   3.289  19.339  0.00  0.00    +0.000 S 
ATOM      6  C   UNL     1       5.367   4.842  18.661  0.00  0.00    +0.000 A 
ATOM      7  N   UNL     1       4.564   5.868  18.770  0.00  0.00    +0.000 NA
ATOM      8  N   UNL     1       3.466   5.424  19.462  0.00  0.00    +0.000 N 
ENDROOT
BRANCH   1  12
ATOM      9  C   UNL     1       1.114  10.101  19.464  0.00  0.00    +0.000 A 
ATOM     10  C   UNL     1       1.706   9.397  18.418  0.00  0.00    +0.000 A 
ATOM     11  C   UNL     1       2.082   8.061  18.584  0.00  0.00    +0.000 A 
ATOM     12  C   UNL     1       1.895   7.402  19.810  0.00  0.00    +0.000 A 
ATOM     13  C   UNL     1       1.317   8.131  20.859  0.00  0.00    +0.000 A 
ATOM     14  C   UNL     1       0.935   9.470  20.692  0.00  0.00    +0.000 A 
BRANCH   9  16
ATOM     15  C   UNL     1       1.805  12.179  18.571  0.00  0.00    +0.000 C 
ATOM     16  O   UNL     1       0.785  11.396  19.180  0.00  0.00    +0.000 OA
ENDBRANCH   9  16
ENDBRANCH   1  12
BRANCH   6  17
ATOM     17  C   UNL     1       6.726   4.876  17.994  0.00  0.00    +0.000 C 
BRANCH  17  18
ATOM     18  C   UNL     1       6.674   5.785  16.764  0.00  0.00    +0.000 C 
BRANCH  18  19
ATOM     19  N   UNL     1       6.345   5.116  15.505  0.00  0.00    +0.000 N 
ATOM     20  C   UNL     1       7.248   5.114  14.483  0.00  0.00    +0.000 C 
ATOM     21  O   UNL     1       8.290   5.725  14.388  0.00  0.00    +0.000 OA
ATOM     22  C   UNL     1       6.718   4.271  13.432  0.00  0.00    +0.000 A 
ATOM     23  C   UNL     1       7.336   3.901  12.254  0.00  0.00    +0.000 A 
ATOM     24  C   UNL     1       6.576   3.181  11.342  0.00  0.00    +0.000 A 
ATOM     25  C   UNL     1       5.226   2.892  11.627  0.00  0.00    +0.000 A 
ATOM     26  C   UNL     1       4.641   3.248  12.861  0.00  0.00    +0.000 A 
ATOM     27  C   UNL     1       5.430   3.913  13.778  0.00  0.00    +0.000 A 
ATOM     28  C   UNL     1       5.214   4.406  15.170  0.00  0.00    +0.000 C 
ATOM     29  O   UNL     1       4.239   4.175  15.840  0.00  0.00    +0.000 OA
ENDBRANCH  18  19
ENDBRANCH  17  18
ENDBRANCH   6  17
TORSDOF 5
ENDMDL
