MODEL 1
REMARK VINA RESULT:      -7.9      0.000      0.000
REMARK  Name = 
REMARK  5 active torsions:
REMARK  status: ('A' for Active; 'I' for Inactive)
REMARK    1  A    between atoms: C_1  and  C_2
REMARK    2  A    between atoms: N_7  and  C_8
REMARK    3  A    between atoms: C_13  and  C_14
REMARK    4  A    between atoms: C_14  and  O_16
REMARK    5  A    between atoms: C_17  and  C_18
REMARK                            x       y       z     vdW  Elec       q    Type
REMARK                         _______ _______ _______ _____ _____    ______ ____
ROOT
ATOM      1  C   UNL     1       0.593   9.391  23.534  0.00  0.00    +0.000 C 
ATOM      2  C   UNL     1       1.074   9.480  22.091  0.00  0.00    +0.000 C 
ATOM      3  C   UNL     1       0.778   8.159  21.351  0.00  0.00    +0.000 C 
ATOM      4  N   UNL     1       1.438   8.138  20.030  0.00  0.00    +0.000 N 
ATOM      5  C   UNL     1       2.162   6.991  19.754  0.00  0.00    +0.000 C 
ATOM      6  O   UNL     1       2.226   6.068  20.570  0.00  0.00    +0.000 OA
ATOM      7  N   UNL     1       2.913   6.956  18.603  0.00  0.00    +0.000 N 
ATOM      8  C   UNL     1       0.954   9.256  19.167  0.00  0.00    +0.000 C 
ATOM      9  C   UNL     1       1.453   9.341  17.728  0.00  0.00    +0.000 C 
ATOM     10  C   UNL     1       1.134  10.641  19.890  0.00  0.00    +0.000 C 
ATOM     11  N   UNL     1       0.590  10.611  21.267  0.00  0.00    +0.000 N 
ATOM     12  C   UNL     1      -0.234  11.617  21.730  0.00  0.00    +0.000 A 
ATOM     13  C   UNL     1      -0.054  12.952  21.369  0.00  0.00    +0.000 A 
ATOM     14  N   UNL     1      -0.847  13.982  21.765  0.00  0.00    +0.000 NA
ATOM     15  C   UNL     1      -1.899  13.650  22.525  0.00  0.00    +0.000 A 
ATOM     16  C   UNL     1      -2.793  14.642  22.916  0.00  0.00    +0.000 A 
ATOM     17  C   UNL     1      -3.954  14.337  23.624  0.00  0.00    +0.000 A 
ATOM     18  C   UNL     1      -4.206  13.019  23.978  0.00  0.00    +0.000 A 
ATOM     19  C   UNL     1      -3.283  12.023  23.635  0.00  0.00    +0.000 A 
ATOM     20  C   UNL     1      -2.132  12.308  22.900  0.00  0.00    +0.000 A 
ATOM     21  N   UNL     1      -1.285  11.313  22.525  0.00  0.00    +0.000 NA
ATOM     22  H   UNL     1       3.316   7.845  18.334  0.00  0.00    +0.000 HD
ENDROOT
BRANCH   7  23
ATOM     23  C   UNL     1       3.666   5.790  18.245  0.00  0.00    +0.000 A 
ATOM     24  C   UNL     1       5.064   5.860  18.162  0.00  0.00    +0.000 A 
ATOM     25  C   UNL     1       5.824   4.733  17.825  0.00  0.00    +0.000 A 
ATOM     26  C   UNL     1       5.200   3.514  17.575  0.00  0.00    +0.000 A 
ATOM     27  C   UNL     1       3.810   3.422  17.655  0.00  0.00    +0.000 A 
ATOM     28  C   UNL     1       3.043   4.557  17.980  0.00  0.00    +0.000 A 
BRANCH  28  29
ATOM     29  C   UNL     1       1.574   4.387  17.936  0.00  0.00    +0.000 C 
ATOM     30  O   UNL     1       0.876   4.762  17.012  0.00  0.00    +0.000 OA
BRANCH  29  31
ATOM     31  O   UNL     1       1.083   3.799  19.052  0.00  0.00    +0.000 OA
ATOM     32  H   UNL     1       1.527   2.952  19.266  0.00  0.00    +0.000 HD
ENDBRANCH  29  31
ENDBRANCH  28  29
ENDBRANCH   7  23
TORSDOF 3
ENDMDL
MODEL 2
REMARK VINA RESULT:      -7.7      1.930      3.005
REMARK  Name = 
REMARK  5 active torsions:
REMARK  status: ('A' for Active; 'I' for Inactive)
REMARK    1  A    between atoms: C_1  and  C_2
REMARK    2  A    between atoms: N_7  and  C_8
REMARK    3  A    between atoms: C_13  and  C_14
REMARK    4  A    between atoms: C_14  and  O_16
REMARK    5  A    between atoms: C_17  and  C_18
REMARK                            x       y       z     vdW  Elec       q    Type
REMARK                         _______ _______ _______ _____ _____    ______ ____
ROOT
ATOM      1  C   UNL     1      -1.561  12.138  17.998  0.00  0.00    +0.000 C 
ATOM      2  C   UNL     1      -0.973  11.119  18.966  0.00  0.00    +0.000 C 
ATOM      3  C   UNL     1       0.523  10.900  18.661  0.00  0.00    +0.000 C 
ATOM      4  N   UNL     1       1.054   9.756  19.429  0.00  0.00    +0.000 N 
ATOM      5  C   UNL     1       1.773   8.835  18.688  0.00  0.00    +0.000 C 
ATOM      6  O   UNL     1       1.948   8.991  17.477  0.00  0.00    +0.000 OA
ATOM      7  N   UNL     1       2.183   7.677  19.308  0.00  0.00    +0.000 N 
ATOM      8  C   UNL     1       0.923   9.986  20.898  0.00  0.00    +0.000 C 
ATOM      9  C   UNL     1       1.505   8.951  21.858  0.00  0.00    +0.000 C 
ATOM     10  C   UNL     1      -0.567  10.310  21.285  0.00  0.00    +0.000 C 
ATOM     11  N   UNL     1      -1.137  11.367  20.417  0.00  0.00    +0.000 N 
ATOM     12  C   UNL     1      -1.824  12.436  20.953  0.00  0.00    +0.000 A 
ATOM     13  C   UNL     1      -2.651  12.305  22.069  0.00  0.00    +0.000 A 
ATOM     14  N   UNL     1      -3.331  13.322  22.662  0.00  0.00    +0.000 NA
ATOM     15  C   UNL     1      -3.134  14.539  22.137  0.00  0.00    +0.000 A 
ATOM     16  C   UNL     1      -3.744  15.640  22.730  0.00  0.00    +0.000 A 
ATOM     17  C   UNL     1      -3.497  16.936  22.284  0.00  0.00    +0.000 A 
ATOM     18  C   UNL     1      -2.650  17.131  21.202  0.00  0.00    +0.000 A 
ATOM     19  C   UNL     1      -2.076  16.024  20.565  0.00  0.00    +0.000 A 
ATOM     20  C   UNL     1      -2.290  14.722  21.019  0.00  0.00    +0.000 A 
ATOM     21  N   UNL     1      -1.669  13.670  20.423  0.00  0.00    +0.000 NA
ATOM     22  H   UNL     1       1.542   7.323  20.007  0.00  0.00    +0.000 HD
ENDROOT
BRANCH   7  23
ATOM     23  C   UNL     1       2.953   6.694  18.604  0.00  0.00    +0.000 A 
ATOM     24  C   UNL     1       3.817   7.090  17.573  0.00  0.00    +0.000 A 
ATOM     25  C   UNL     1       4.588   6.152  16.877  0.00  0.00    +0.000 A 
ATOM     26  C   UNL     1       4.516   4.801  17.205  0.00  0.00    +0.000 A 
ATOM     27  C   UNL     1       3.663   4.386  18.229  0.00  0.00    +0.000 A 
ATOM     28  C   UNL     1       2.877   5.326  18.921  0.00  0.00    +0.000 A 
BRANCH  28  29
ATOM     29  C   UNL     1       1.928   4.778  19.915  0.00  0.00    +0.000 C 
ATOM     30  O   UNL     1       1.004   4.037  19.633  0.00  0.00    +0.000 OA
BRANCH  29  31
ATOM     31  O   UNL     1       2.175   5.218  21.171  0.00  0.00    +0.000 OA
ATOM     32  H   UNL     1       1.569   5.935  21.452  0.00  0.00    +0.000 HD
ENDBRANCH  29  31
ENDBRANCH  28  29
ENDBRANCH   7  23
TORSDOF 3
ENDMDL
MODEL 3
REMARK VINA RESULT:      -7.6      7.800      9.207
REMARK  Name = 
REMARK  5 active torsions:
REMARK  status: ('A' for Active; 'I' for Inactive)
REMARK    1  A    between atoms: C_1  and  C_2
REMARK    2  A    between atoms: N_7  and  C_8
REMARK    3  A    between atoms: C_13  and  C_14
REMARK    4  A    between atoms: C_14  and  O_16
REMARK    5  A    between atoms: C_17  and  C_18
REMARK                            x       y       z     vdW  Elec       q    Type
REMARK                         _______ _______ _______ _____ _____    ______ ____
ROOT
ATOM      1  C   UNL     1       2.670  13.877  18.059  0.00  0.00    +0.000 C 
ATOM      2  C   UNL     1       3.872  14.428  18.815  0.00  0.00    +0.000 C 
ATOM      3  C   UNL     1       5.032  14.706  17.836  0.00  0.00    +0.000 C 
ATOM      4  N   UNL     1       6.275  15.019  18.569  0.00  0.00    +0.000 N 
ATOM      5  C   UNL     1       7.392  14.315  18.156  0.00  0.00    +0.000 C 
ATOM      6  O   UNL     1       7.324  13.499  17.234  0.00  0.00    +0.000 OA
ATOM      7  N   UNL     1       8.554  14.454  18.880  0.00  0.00    +0.000 N 
ATOM      8  C   UNL     1       6.107  16.231  19.424  0.00  0.00    +0.000 C 
ATOM      9  C   UNL     1       7.316  16.766  20.186  0.00  0.00    +0.000 C 
ATOM     10  C   UNL     1       4.879  16.068  20.394  0.00  0.00    +0.000 C 
ATOM     11  N   UNL     1       3.668  15.621  19.669  0.00  0.00    +0.000 N 
ATOM     12  C   UNL     1       2.451  16.243  19.862  0.00  0.00    +0.000 A 
ATOM     13  C   UNL     1       2.052  16.725  21.109  0.00  0.00    +0.000 A 
ATOM     14  N   UNL     1       0.882  17.371  21.358  0.00  0.00    +0.000 NA
ATOM     15  C   UNL     1       0.095  17.585  20.295  0.00  0.00    +0.000 A 
ATOM     16  C   UNL     1      -1.088  18.298  20.459  0.00  0.00    +0.000 A 
ATOM     17  C   UNL     1      -1.894  18.631  19.373  0.00  0.00    +0.000 A 
ATOM     18  C   UNL     1      -1.526  18.211  18.102  0.00  0.00    +0.000 A 
ATOM     19  C   UNL     1      -0.364  17.446  17.936  0.00  0.00    +0.000 A 
ATOM     20  C   UNL     1       0.468  17.131  19.010  0.00  0.00    +0.000 A 
ATOM     21  N   UNL     1       1.623  16.442  18.812  0.00  0.00    +0.000 NA
ATOM     22  H   UNL     1       8.419  14.583  19.874  0.00  0.00    +0.000 HD
ENDROOT
BRANCH   7  23
ATOM     23  C   UNL     1       9.753  13.772  18.491  0.00  0.00    +0.000 A 
ATOM     24  C   UNL     1       9.985  12.460  18.929  0.00  0.00    +0.000 A 
ATOM     25  C   UNL     1      11.143  11.768  18.556  0.00  0.00    +0.000 A 
ATOM     26  C   UNL     1      12.087  12.372  17.730  0.00  0.00    +0.000 A 
ATOM     27  C   UNL     1      11.875  13.677  17.281  0.00  0.00    +0.000 A 
ATOM     28  C   UNL     1      10.718  14.379  17.667  0.00  0.00    +0.000 A 
BRANCH  28  29
ATOM     29  C   UNL     1      10.634  15.790  17.228  0.00  0.00    +0.000 C 
ATOM     30  O   UNL     1      10.481  16.727  17.990  0.00  0.00    +0.000 OA
BRANCH  29  31
ATOM     31  O   UNL     1      10.709  15.924  15.884  0.00  0.00    +0.000 OA
ATOM     32  H   UNL     1      10.395  15.130  15.402  0.00  0.00    +0.000 HD
ENDBRANCH  29  31
ENDBRANCH  28  29
ENDBRANCH   7  23
TORSDOF 3
ENDMDL
MODEL 4
REMARK VINA RESULT:      -7.4      3.207      9.656
REMARK  Name = 
REMARK  5 active torsions:
REMARK  status: ('A' for Active; 'I' for Inactive)
REMARK    1  A    between atoms: C_1  and  C_2
REMARK    2  A    between atoms: N_7  and  C_8
REMARK    3  A    between atoms: C_13  and  C_14
REMARK    4  A    between atoms: C_14  and  O_16
REMARK    5  A    between atoms: C_17  and  C_18
REMARK                            x       y       z     vdW  Elec       q    Type
REMARK                         _______ _______ _______ _____ _____    ______ ____
ROOT
ATOM      1  C   UNL     1      -0.479   7.807  21.101  0.00  0.00    +0.000 C 
ATOM      2  C   UNL     1      -0.274   9.290  20.820  0.00  0.00    +0.000 C 
ATOM      3  C   UNL     1      -0.074  10.057  22.144  0.00  0.00    +0.000 C 
ATOM      4  N   UNL     1      -0.104  11.515  21.915  0.00  0.00    +0.000 N 
ATOM      5  C   UNL     1      -0.933  12.226  22.764  0.00  0.00    +0.000 C 
ATOM      6  O   UNL     1      -1.581  11.655  23.644  0.00  0.00    +0.000 OA
ATOM      7  N   UNL     1      -1.116  13.568  22.525  0.00  0.00    +0.000 N 
ATOM      8  C   UNL     1       0.982  11.938  20.981  0.00  0.00    +0.000 C 
ATOM      9  C   UNL     1       1.170  13.425  20.698  0.00  0.00    +0.000 C 
ATOM     10  C   UNL     1       0.908  11.131  19.633  0.00  0.00    +0.000 C 
ATOM     11  N   UNL     1       0.800   9.674  19.875  0.00  0.00    +0.000 N 
ATOM     12  C   UNL     1       1.600   8.777  19.196  0.00  0.00    +0.000 A 
ATOM     13  C   UNL     1       1.961   8.965  17.862  0.00  0.00    +0.000 A 
ATOM     14  N   UNL     1       2.768   8.136  17.148  0.00  0.00    +0.000 NA
ATOM     15  C   UNL     1       3.274   7.092  17.818  0.00  0.00    +0.000 A 
ATOM     16  C   UNL     1       4.160   6.236  17.173  0.00  0.00    +0.000 A 
ATOM     17  C   UNL     1       4.789   5.194  17.850  0.00  0.00    +0.000 A 
ATOM     18  C   UNL     1       4.497   4.983  19.191  0.00  0.00    +0.000 A 
ATOM     19  C   UNL     1       3.565   5.807  19.833  0.00  0.00    +0.000 A 
ATOM     20  C   UNL     1       2.951   6.874  19.176  0.00  0.00    +0.000 A 
ATOM     21  N   UNL     1       2.098   7.698  19.841  0.00  0.00    +0.000 NA
ATOM     22  H   UNL     1      -1.109  13.827  21.547  0.00  0.00    +0.000 HD
ENDROOT
BRANCH   7  23
ATOM     23  C   UNL     1      -1.942  14.366  23.382  0.00  0.00    +0.000 A 
ATOM     24  C   UNL     1      -1.370  15.046  24.468  0.00  0.00    +0.000 A 
ATOM     25  C   UNL     1      -2.152  15.840  25.315  0.00  0.00    +0.000 A 
ATOM     26  C   UNL     1      -3.518  15.978  25.085  0.00  0.00    +0.000 A 
ATOM     27  C   UNL     1      -4.107  15.312  24.009  0.00  0.00    +0.000 A 
ATOM     28  C   UNL     1      -3.325  14.502  23.165  0.00  0.00    +0.000 A 
BRANCH  28  29
ATOM     29  C   UNL     1      -4.055  13.754  22.117  0.00  0.00    +0.000 C 
ATOM     30  O   UNL     1      -4.465  14.258  21.088  0.00  0.00    +0.000 OA
BRANCH  29  31
ATOM     31  O   UNL     1      -4.251  12.456  22.442  0.00  0.00    +0.000 OA
ATOM     32  H   UNL     1      -4.367  12.315  23.406  0.00  0.00    +0.000 HD
ENDBRANCH  29  31
ENDBRANCH  28  29
ENDBRANCH   7  23
TORSDOF 3
ENDMDL
MODEL 5
REMARK VINA RESULT:      -7.4      1.395      1.949
REMARK  Name = 
REMARK  5 active torsions:
REMARK  status: ('A' for Active; 'I' for Inactive)
REMARK    1  A    between atoms: C_1  and  C_2
REMARK    2  A    between atoms: N_7  and  C_8
REMARK    3  A    between atoms: C_13  and  C_14
REMARK    4  A    between atoms: C_14  and  O_16
REMARK    5  A    between atoms: C_17  and  C_18
REMARK                            x       y       z     vdW  Elec       q    Type
REMARK                         _______ _______ _______ _____ _____    ______ ____
ROOT
ATOM      1  C   UNL     1       0.375   9.287  23.500  0.00  0.00    +0.000 C 
ATOM      2  C   UNL     1       0.969   9.396  22.102  0.00  0.00    +0.000 C 
ATOM      3  C   UNL     1       0.554   8.176  21.254  0.00  0.00    +0.000 C 
ATOM      4  N   UNL     1       1.301   8.144  19.980  0.00  0.00    +0.000 N 
ATOM      5  C   UNL     1       1.884   6.927  19.673  0.00  0.00    +0.000 C 
ATOM      6  O   UNL     1       1.763   5.956  20.424  0.00  0.00    +0.000 OA
ATOM      7  N   UNL     1       2.706   6.858  18.572  0.00  0.00    +0.000 N 
ATOM      8  C   UNL     1       1.036   9.368  19.168  0.00  0.00    +0.000 C 
ATOM      9  C   UNL     1       1.647   9.470  17.773  0.00  0.00    +0.000 C 
ATOM     10  C   UNL     1       1.345  10.669  19.996  0.00  0.00    +0.000 C 
ATOM     11  N   UNL     1       0.702  10.631  21.330  0.00  0.00    +0.000 N 
ATOM     12  C   UNL     1      -0.012  11.711  21.807  0.00  0.00    +0.000 A 
ATOM     13  C   UNL     1       0.371  13.028  21.552  0.00  0.00    +0.000 A 
ATOM     14  N   UNL     1      -0.304  14.132  21.967  0.00  0.00    +0.000 NA
ATOM     15  C   UNL     1      -1.444  13.904  22.632  0.00  0.00    +0.000 A 
ATOM     16  C   UNL     1      -2.224  14.984  23.033  0.00  0.00    +0.000 A 
ATOM     17  C   UNL     1      -3.464  14.800  23.641  0.00  0.00    +0.000 A 
ATOM     18  C   UNL     1      -3.915  13.510  23.884  0.00  0.00    +0.000 A 
ATOM     19  C   UNL     1      -3.111  12.419  23.534  0.00  0.00    +0.000 A 
ATOM     20  C   UNL     1      -1.881  12.587  22.896  0.00  0.00    +0.000 A 
ATOM     21  N   UNL     1      -1.150  11.509  22.509  0.00  0.00    +0.000 NA
ATOM     22  H   UNL     1       3.244   7.696  18.393  0.00  0.00    +0.000 HD
ENDROOT
BRANCH   7  23
ATOM     23  C   UNL     1       3.320   5.623  18.184  0.00  0.00    +0.000 A 
ATOM     24  C   UNL     1       2.838   4.410  18.699  0.00  0.00    +0.000 A 
ATOM     25  C   UNL     1       3.414   3.189  18.330  0.00  0.00    +0.000 A 
ATOM     26  C   UNL     1       4.475   3.156  17.430  0.00  0.00    +0.000 A 
ATOM     27  C   UNL     1       4.969   4.351  16.903  0.00  0.00    +0.000 A 
ATOM     28  C   UNL     1       4.401   5.581  17.285  0.00  0.00    +0.000 A 
BRANCH  28  29
ATOM     29  C   UNL     1       5.060   6.796  16.757  0.00  0.00    +0.000 C 
ATOM     30  O   UNL     1       5.434   7.721  17.454  0.00  0.00    +0.000 OA
BRANCH  29  31
ATOM     31  O   UNL     1       5.171   6.786  15.408  0.00  0.00    +0.000 OA
ATOM     32  H   UNL     1       5.469   5.921  15.055  0.00  0.00    +0.000 HD
ENDBRANCH  29  31
ENDBRANCH  28  29
ENDBRANCH   7  23
TORSDOF 3
ENDMDL
MODEL 6
REMARK VINA RESULT:      -7.3      1.333      2.107
REMARK  Name = 
REMARK  5 active torsions:
REMARK  status: ('A' for Active; 'I' for Inactive)
REMARK    1  A    between atoms: C_1  and  C_2
REMARK    2  A    between atoms: N_7  and  C_8
REMARK    3  A    between atoms: C_13  and  C_14
REMARK    4  A    between atoms: C_14  and  O_16
REMARK    5  A    between atoms: C_17  and  C_18
REMARK                            x       y       z     vdW  Elec       q    Type
REMARK                         _______ _______ _______ _____ _____    ______ ____
ROOT
ATOM      1  C   UNL     1       0.635   9.446  23.412  0.00  0.00    +0.000 C 
ATOM      2  C   UNL     1       1.164   9.382  21.985  0.00  0.00    +0.000 C 
ATOM      3  C   UNL     1       0.580   8.153  21.258  0.00  0.00    +0.000 C 
ATOM      4  N   UNL     1       1.252   7.942  19.960  0.00  0.00    +0.000 N 
ATOM      5  C   UNL     1       1.687   6.649  19.728  0.00  0.00    +0.000 C 
ATOM      6  O   UNL     1       1.504   5.758  20.560  0.00  0.00    +0.000 OA
ATOM      7  N   UNL     1       2.440   6.407  18.602  0.00  0.00    +0.000 N 
ATOM      8  C   UNL     1       1.076   9.123  19.063  0.00  0.00    +0.000 C 
ATOM      9  C   UNL     1       1.622   9.050  17.639  0.00  0.00    +0.000 C 
ATOM     10  C   UNL     1       1.564  10.441  19.768  0.00  0.00    +0.000 C 
ATOM     11  N   UNL     1       0.990  10.576  21.127  0.00  0.00    +0.000 N 
ATOM     12  C   UNL     1       0.419  11.761  21.544  0.00  0.00    +0.000 A 
ATOM     13  C   UNL     1       0.925  13.005  21.167  0.00  0.00    +0.000 A 
ATOM     14  N   UNL     1       0.393  14.205  21.519  0.00  0.00    +0.000 NA
ATOM     15  C   UNL     1      -0.730  14.154  22.249  0.00  0.00    +0.000 A 
ATOM     16  C   UNL     1      -1.370  15.340  22.594  0.00  0.00    +0.000 A 
ATOM     17  C   UNL     1      -2.589  15.340  23.267  0.00  0.00    +0.000 A 
ATOM     18  C   UNL     1      -3.161  14.129  23.634  0.00  0.00    +0.000 A 
ATOM     19  C   UNL     1      -2.495  12.933  23.340  0.00  0.00    +0.000 A 
ATOM     20  C   UNL     1      -1.289  12.916  22.638  0.00  0.00    +0.000 A 
ATOM     21  N   UNL     1      -0.697  11.738  22.309  0.00  0.00    +0.000 NA
ATOM     22  H   UNL     1       3.053   7.166  18.332  0.00  0.00    +0.000 HD
ENDROOT
BRANCH   7  23
ATOM     23  C   UNL     1       2.900   5.086  18.290  0.00  0.00    +0.000 A 
ATOM     24  C   UNL     1       1.973   4.074  18.001  0.00  0.00    +0.000 A 
ATOM     25  C   UNL     1       2.395   2.777  17.684  0.00  0.00    +0.000 A 
ATOM     26  C   UNL     1       3.752   2.472  17.639  0.00  0.00    +0.000 A 
ATOM     27  C   UNL     1       4.692   3.465  17.921  0.00  0.00    +0.000 A 
ATOM     28  C   UNL     1       4.269   4.765  18.255  0.00  0.00    +0.000 A 
BRANCH  28  29
ATOM     29  C   UNL     1       5.332   5.719  18.641  0.00  0.00    +0.000 C 
ATOM     30  O   UNL     1       6.041   5.582  19.620  0.00  0.00    +0.000 OA
BRANCH  29  31
ATOM     31  O   UNL     1       5.409   6.781  17.806  0.00  0.00    +0.000 OA
ATOM     32  H   UNL     1       6.313   7.157  17.745  0.00  0.00    +0.000 HD
ENDBRANCH  29  31
ENDBRANCH  28  29
ENDBRANCH   7  23
TORSDOF 3
ENDMDL
MODEL 7
REMARK VINA RESULT:      -7.2      7.338      8.532
REMARK  Name = 
REMARK  5 active torsions:
REMARK  status: ('A' for Active; 'I' for Inactive)
REMARK    1  A    between atoms: C_1  and  C_2
REMARK    2  A    between atoms: N_7  and  C_8
REMARK    3  A    between atoms: C_13  and  C_14
REMARK    4  A    between atoms: C_14  and  O_16
REMARK    5  A    between atoms: C_17  and  C_18
REMARK                            x       y       z     vdW  Elec       q    Type
REMARK                         _______ _______ _______ _____ _____    ______ ____
ROOT
ATOM      1  C   UNL     1       2.622  13.832  18.099  0.00  0.00    +0.000 C 
ATOM      2  C   UNL     1       3.829  14.383  18.848  0.00  0.00    +0.000 C 
ATOM      3  C   UNL     1       4.989  14.643  17.865  0.00  0.00    +0.000 C 
ATOM      4  N   UNL     1       6.235  14.954  18.594  0.00  0.00    +0.000 N 
ATOM      5  C   UNL     1       7.348  14.239  18.188  0.00  0.00    +0.000 C 
ATOM      6  O   UNL     1       7.273  13.413  17.275  0.00  0.00    +0.000 OA
ATOM      7  N   UNL     1       8.510  14.377  18.909  0.00  0.00    +0.000 N 
ATOM      8  C   UNL     1       6.076  16.177  19.436  0.00  0.00    +0.000 C 
ATOM      9  C   UNL     1       7.290  16.712  20.191  0.00  0.00    +0.000 C 
ATOM     10  C   UNL     1       4.849  16.033  20.409  0.00  0.00    +0.000 C 
ATOM     11  N   UNL     1       3.633  15.586  19.689  0.00  0.00    +0.000 N 
ATOM     12  C   UNL     1       2.421  16.218  19.877  0.00  0.00    +0.000 A 
ATOM     13  C   UNL     1       2.026  16.716  21.118  0.00  0.00    +0.000 A 
ATOM     14  N   UNL     1       0.861  17.373  21.361  0.00  0.00    +0.000 NA
ATOM     15  C   UNL     1       0.075  17.581  20.297  0.00  0.00    +0.000 A 
ATOM     16  C   UNL     1      -1.104  18.304  20.455  0.00  0.00    +0.000 A 
ATOM     17  C   UNL     1      -1.908  18.630  19.365  0.00  0.00    +0.000 A 
ATOM     18  C   UNL     1      -1.544  18.195  18.098  0.00  0.00    +0.000 A 
ATOM     19  C   UNL     1      -0.388  17.420  17.940  0.00  0.00    +0.000 A 
ATOM     20  C   UNL     1       0.444  17.111  19.017  0.00  0.00    +0.000 A 
ATOM     21  N   UNL     1       1.593  16.412  18.825  0.00  0.00    +0.000 NA
ATOM     22  H   UNL     1       8.378  14.518  19.902  0.00  0.00    +0.000 HD
ENDROOT
BRANCH   7  23
ATOM     23  C   UNL     1       9.705  13.684  18.527  0.00  0.00    +0.000 A 
ATOM     24  C   UNL     1      10.486  14.169  17.467  0.00  0.00    +0.000 A 
ATOM     25  C   UNL     1      11.662  13.517  17.079  0.00  0.00    +0.000 A 
ATOM     26  C   UNL     1      12.085  12.373  17.751  0.00  0.00    +0.000 A 
ATOM     27  C   UNL     1      11.324  11.874  18.809  0.00  0.00    +0.000 A 
ATOM     28  C   UNL     1      10.133  12.520  19.191  0.00  0.00    +0.000 A 
BRANCH  28  29
ATOM     29  C   UNL     1       9.342  11.858  20.252  0.00  0.00    +0.000 C 
ATOM     30  O   UNL     1       8.819  12.452  21.177  0.00  0.00    +0.000 OA
BRANCH  29  31
ATOM     31  O   UNL     1       9.292  10.514  20.103  0.00  0.00    +0.000 OA
ATOM     32  H   UNL     1       8.764  10.071  20.802  0.00  0.00    +0.000 HD
ENDBRANCH  29  31
ENDBRANCH  28  29
ENDBRANCH   7  23
TORSDOF 3
ENDMDL
MODEL 8
REMARK VINA RESULT:      -7.2      4.432     11.033
REMARK  Name = 
REMARK  5 active torsions:
REMARK  status: ('A' for Active; 'I' for Inactive)
REMARK    1  A    between atoms: C_1  and  C_2
REMARK    2  A    between atoms: N_7  and  C_8
REMARK    3  A    between atoms: C_13  and  C_14
REMARK    4  A    between atoms: C_14  and  O_16
REMARK    5  A    between atoms: C_17  and  C_18
REMARK                            x       y       z     vdW  Elec       q    Type
REMARK                         _______ _______ _______ _____ _____    ______ ____
ROOT
ATOM      1  C   UNL     1       1.063  13.448  20.536  0.00  0.00    +0.000 C 
ATOM      2  C   UNL     1       0.008  13.172  21.600  0.00  0.00    +0.000 C 
ATOM      3  C   UNL     1      -1.318  13.867  21.224  0.00  0.00    +0.000 C 
ATOM      4  N   UNL     1      -2.278  13.808  22.344  0.00  0.00    +0.000 N 
ATOM      5  C   UNL     1      -2.874  15.013  22.672  0.00  0.00    +0.000 C 
ATOM      6  O   UNL     1      -2.607  16.043  22.048  0.00  0.00    +0.000 OA
ATOM      7  N   UNL     1      -3.675  15.062  23.788  0.00  0.00    +0.000 N 
ATOM      8  C   UNL     1      -2.597  12.395  22.707  0.00  0.00    +0.000 C 
ATOM      9  C   UNL     1      -3.648  12.132  23.782  0.00  0.00    +0.000 C 
ATOM     10  C   UNL     1      -1.285  11.585  23.016  0.00  0.00    +0.000 C 
ATOM     11  N   UNL     1      -0.272  11.761  21.949  0.00  0.00    +0.000 N 
ATOM     12  C   UNL     1       0.389  10.677  21.409  0.00  0.00    +0.000 A 
ATOM     13  C   UNL     1       0.762   9.574  22.177  0.00  0.00    +0.000 A 
ATOM     14  N   UNL     1       1.388   8.466  21.700  0.00  0.00    +0.000 NA
ATOM     15  C   UNL     1       1.609   8.443  20.379  0.00  0.00    +0.000 A 
ATOM     16  C   UNL     1       2.186   7.314  19.807  0.00  0.00    +0.000 A 
ATOM     17  C   UNL     1       2.349   7.199  18.428  0.00  0.00    +0.000 A 
ATOM     18  C   UNL     1       1.959   8.250  17.609  0.00  0.00    +0.000 A 
ATOM     19  C   UNL     1       1.428   9.413  18.183  0.00  0.00    +0.000 A 
ATOM     20  C   UNL     1       1.230   9.529  19.559  0.00  0.00    +0.000 A 
ATOM     21  N   UNL     1       0.653  10.643  20.083  0.00  0.00    +0.000 NA
ATOM     22  H   UNL     1      -3.380  14.461  24.547  0.00  0.00    +0.000 HD
ENDROOT
BRANCH   7  23
ATOM     23  C   UNL     1      -4.342  16.273  24.168  0.00  0.00    +0.000 A 
ATOM     24  C   UNL     1      -5.608  16.568  23.641  0.00  0.00    +0.000 A 
ATOM     25  C   UNL     1      -6.285  17.739  24.003  0.00  0.00    +0.000 A 
ATOM     26  C   UNL     1      -5.713  18.631  24.905  0.00  0.00    +0.000 A 
ATOM     27  C   UNL     1      -4.455  18.356  25.443  0.00  0.00    +0.000 A 
ATOM     28  C   UNL     1      -3.766  17.186  25.069  0.00  0.00    +0.000 A 
BRANCH  28  29
ATOM     29  C   UNL     1      -2.396  17.035  25.609  0.00  0.00    +0.000 C 
ATOM     30  O   UNL     1      -1.919  15.969  25.953  0.00  0.00    +0.000 OA
BRANCH  29  31
ATOM     31  O   UNL     1      -1.743  18.215  25.713  0.00  0.00    +0.000 OA
ATOM     32  H   UNL     1      -2.298  18.928  26.093  0.00  0.00    +0.000 HD
ENDBRANCH  29  31
ENDBRANCH  28  29
ENDBRANCH   7  23
TORSDOF 3
ENDMDL
MODEL 9
REMARK VINA RESULT:      -7.1      3.041      9.607
REMARK  Name = 
REMARK  5 active torsions:
REMARK  status: ('A' for Active; 'I' for Inactive)
REMARK    1  A    between atoms: C_1  and  C_2
REMARK    2  A    between atoms: N_7  and  C_8
REMARK    3  A    between atoms: C_13  and  C_14
REMARK    4  A    between atoms: C_14  and  O_16
REMARK    5  A    between atoms: C_17  and  C_18
REMARK                            x       y       z     vdW  Elec       q    Type
REMARK                         _______ _______ _______ _____ _____    ______ ____
ROOT
ATOM      1  C   UNL     1       2.586   8.419  17.596  0.00  0.00    +0.000 C 
ATOM      2  C   UNL     1       1.997   8.798  18.948  0.00  0.00    +0.000 C 
ATOM      3  C   UNL     1       0.628   9.483  18.756  0.00  0.00    +0.000 C 
ATOM      4  N   UNL     1       0.148  10.062  20.027  0.00  0.00    +0.000 N 
ATOM      5  C   UNL     1      -0.283  11.375  19.949  0.00  0.00    +0.000 C 
ATOM      6  O   UNL     1      -0.262  11.987  18.878  0.00  0.00    +0.000 OA
ATOM      7  N   UNL     1      -0.616  12.022  21.115  0.00  0.00    +0.000 N 
ATOM      8  C   UNL     1      -0.019   9.008  21.072  0.00  0.00    +0.000 C 
ATOM      9  C   UNL     1      -0.600   9.403  22.427  0.00  0.00    +0.000 C 
ATOM     10  C   UNL     1       1.313   8.194  21.265  0.00  0.00    +0.000 C 
ATOM     11  N   UNL     1       1.862   7.733  19.968  0.00  0.00    +0.000 N 
ATOM     12  C   UNL     1       2.275   6.428  19.793  0.00  0.00    +0.000 A 
ATOM     13  C   UNL     1       2.902   5.704  20.807  0.00  0.00    +0.000 A 
ATOM     14  N   UNL     1       3.305   4.409  20.708  0.00  0.00    +0.000 NA
ATOM     15  C   UNL     1       3.024   3.797  19.550  0.00  0.00    +0.000 A 
ATOM     16  C   UNL     1       3.347   2.453  19.397  0.00  0.00    +0.000 A 
ATOM     17  C   UNL     1       2.990   1.744  18.252  0.00  0.00    +0.000 A 
ATOM     18  C   UNL     1       2.329   2.404  17.225  0.00  0.00    +0.000 A 
ATOM     19  C   UNL     1       2.049   3.771  17.349  0.00  0.00    +0.000 A 
ATOM     20  C   UNL     1       2.372   4.486  18.502  0.00  0.00    +0.000 A 
ATOM     21  N   UNL     1       2.032   5.796  18.622  0.00  0.00    +0.000 NA
ATOM     22  H   UNL     1      -0.064  11.755  21.920  0.00  0.00    +0.000 HD
ENDROOT
BRANCH   7  23
ATOM     23  C   UNL     1      -1.093  13.374  21.101  0.00  0.00    +0.000 A 
ATOM     24  C   UNL     1      -2.465  13.629  20.958  0.00  0.00    +0.000 A 
ATOM     25  C   UNL     1      -2.958  14.939  20.950  0.00  0.00    +0.000 A 
ATOM     26  C   UNL     1      -2.090  16.018  21.096  0.00  0.00    +0.000 A 
ATOM     27  C   UNL     1      -0.722  15.786  21.243  0.00  0.00    +0.000 A 
ATOM     28  C   UNL     1      -0.222  14.470  21.236  0.00  0.00    +0.000 A 
BRANCH  28  29
ATOM     29  C   UNL     1       1.250  14.330  21.290  0.00  0.00    +0.000 C 
ATOM     30  O   UNL     1       1.917  14.577  22.278  0.00  0.00    +0.000 OA
BRANCH  29  31
ATOM     31  O   UNL     1       1.781  13.933  20.111  0.00  0.00    +0.000 OA
ATOM     32  H   UNL     1       1.101  13.679  19.451  0.00  0.00    +0.000 HD
ENDBRANCH  29  31
ENDBRANCH  28  29
ENDBRANCH   7  23
TORSDOF 3
ENDMDL
