MODEL 1
REMARK VINA RESULT:      -7.6      0.000      0.000
REMARK  Name = 
REMARK  6 active torsions:
REMARK  status: ('A' for Active; 'I' for Inactive)
REMARK    1  A    between atoms: C_1  and  C_2
REMARK    2  A    between atoms: C_2  and  C_3
REMARK    3  A    between atoms: C_2  and  C_4
REMARK    4  A    between atoms: C_4  and  C_6
REMARK    5  A    between atoms: C_6  and  O_7
REMARK    6  A    between atoms: O_7  and  C_8
REMARK                            x       y       z     vdW  Elec       q    Type
REMARK                         _______ _______ _______ _____ _____    ______ ____
ROOT
ATOM      1  C   UNL     1       4.827   4.945  18.568  0.00  0.00    +0.000 A 
ATOM      2  C   UNL     1       5.594   4.906  17.397  0.00  0.00    +0.000 A 
ATOM      3  O   UNL     1       6.553   3.976  17.099  0.00  0.00    +0.000 OA
ATOM      4  C   UNL     1       7.074   4.304  15.888  0.00  0.00    +0.000 A 
ATOM      5  C   UNL     1       6.465   5.432  15.390  0.00  0.00    +0.000 A 
ATOM      6  C   UNL     1       5.504   5.830  16.358  0.00  0.00    +0.000 A 
ATOM      7  C   UNL     1       4.579   6.885  16.463  0.00  0.00    +0.000 A 
ATOM      8  C   UNL     1       3.773   6.963  17.607  0.00  0.00    +0.000 A 
ATOM      9  C   UNL     1       2.817   8.051  17.768  0.00  0.00    +0.000 A 
ATOM     10  C   UNL     1       2.066   8.130  18.872  0.00  0.00    +0.000 A 
ATOM     11  C   UNL     1       2.145   7.129  19.944  0.00  0.00    +0.000 A 
ATOM     12  O   UNL     1       1.455   7.219  20.951  0.00  0.00    +0.000 OA
ATOM     13  O   UNL     1       3.031   6.085  19.741  0.00  0.00    +0.000 OA
ATOM     14  C   UNL     1       3.895   6.000  18.618  0.00  0.00    +0.000 A 
ENDROOT
BRANCH   1  15
ATOM     15  O   UNL     1       5.033   3.982  19.521  0.00  0.00    +0.000 OA
BRANCH  15  16
ATOM     16  C   UNL     1       4.349   2.753  19.315  0.00  0.00    +0.000 C 
BRANCH  16  17
ATOM     17  C   UNL     1       3.161   2.621  20.250  0.00  0.00    +0.000 C 
ATOM     18  O   UNL     1       3.341   2.535  21.470  0.00  0.00    +0.000 OA
BRANCH  17  20
ATOM     19  C   UNL     1       0.866   3.616  20.387  0.00  0.00    +0.000 C 
ATOM     20  C   UNL     1       1.759   2.622  19.643  0.00  0.00    +0.000 C 
ATOM     21  C   UNL     1       1.799   2.971  18.158  0.00  0.00    +0.000 C 
ENDBRANCH  17  20
ENDBRANCH  16  17
ENDBRANCH  15  16
ENDBRANCH   1  15
TORSDOF 4
ENDMDL
MODEL 2
REMARK VINA RESULT:      -7.3      1.857      4.537
REMARK  Name = 
REMARK  6 active torsions:
REMARK  status: ('A' for Active; 'I' for Inactive)
REMARK    1  A    between atoms: C_1  and  C_2
REMARK    2  A    between atoms: C_2  and  C_3
REMARK    3  A    between atoms: C_2  and  C_4
REMARK    4  A    between atoms: C_4  and  C_6
REMARK    5  A    between atoms: C_6  and  O_7
REMARK    6  A    between atoms: O_7  and  C_8
REMARK                            x       y       z     vdW  Elec       q    Type
REMARK                         _______ _______ _______ _____ _____    ______ ____
ROOT
ATOM      1  C   UNL     1       3.635   5.323  17.886  0.00  0.00    +0.000 A 
ATOM      2  C   UNL     1       3.680   4.190  18.709  0.00  0.00    +0.000 A 
ATOM      3  O   UNL     1       4.274   2.998  18.396  0.00  0.00    +0.000 OA
ATOM      4  C   UNL     1       4.076   2.158  19.445  0.00  0.00    +0.000 A 
ATOM      5  C   UNL     1       3.366   2.788  20.440  0.00  0.00    +0.000 A 
ATOM      6  C   UNL     1       3.105   4.105  19.976  0.00  0.00    +0.000 A 
ATOM      7  C   UNL     1       2.431   5.226  20.494  0.00  0.00    +0.000 A 
ATOM      8  C   UNL     1       2.369   6.393  19.720  0.00  0.00    +0.000 A 
ATOM      9  C   UNL     1       1.662   7.570  20.208  0.00  0.00    +0.000 A 
ATOM     10  C   UNL     1       1.590   8.673  19.455  0.00  0.00    +0.000 A 
ATOM     11  C   UNL     1       2.231   8.762  18.136  0.00  0.00    +0.000 A 
ATOM     12  O   UNL     1       2.151   9.777  17.457  0.00  0.00    +0.000 OA
ATOM     13  O   UNL     1       2.932   7.642  17.721  0.00  0.00    +0.000 OA
ATOM     14  C   UNL     1       2.975   6.429  18.457  0.00  0.00    +0.000 A 
ENDROOT
BRANCH   1  15
ATOM     15  O   UNL     1       4.225   5.263  16.652  0.00  0.00    +0.000 OA
BRANCH  15  16
ATOM     16  C   UNL     1       5.387   6.065  16.483  0.00  0.00    +0.000 C 
BRANCH  16  17
ATOM     17  C   UNL     1       6.642   5.306  16.873  0.00  0.00    +0.000 C 
ATOM     18  O   UNL     1       6.904   4.227  16.331  0.00  0.00    +0.000 OA
BRANCH  17  20
ATOM     19  C   UNL     1       7.634   7.441  17.730  0.00  0.00    +0.000 C 
ATOM     20  C   UNL     1       7.566   5.925  17.920  0.00  0.00    +0.000 C 
ATOM     21  C   UNL     1       7.096   5.601  19.335  0.00  0.00    +0.000 C 
ENDBRANCH  17  20
ENDBRANCH  16  17
ENDBRANCH  15  16
ENDBRANCH   1  15
TORSDOF 4
ENDMDL
MODEL 3
REMARK VINA RESULT:      -7.1      1.321      2.385
REMARK  Name = 
REMARK  6 active torsions:
REMARK  status: ('A' for Active; 'I' for Inactive)
REMARK    1  A    between atoms: C_1  and  C_2
REMARK    2  A    between atoms: C_2  and  C_3
REMARK    3  A    between atoms: C_2  and  C_4
REMARK    4  A    between atoms: C_4  and  C_6
REMARK    5  A    between atoms: C_6  and  O_7
REMARK    6  A    between atoms: O_7  and  C_8
REMARK                            x       y       z     vdW  Elec       q    Type
REMARK                         _______ _______ _______ _____ _____    ______ ____
ROOT
ATOM      1  C   UNL     1       2.818   6.087  19.798  0.00  0.00    +0.000 A 
ATOM      2  C   UNL     1       3.623   5.937  18.661  0.00  0.00    +0.000 A 
ATOM      3  O   UNL     1       4.437   4.870  18.393  0.00  0.00    +0.000 OA
ATOM      4  C   UNL     1       5.058   5.120  17.211  0.00  0.00    +0.000 A 
ATOM      5  C   UNL     1       4.656   6.334  16.703  0.00  0.00    +0.000 A 
ATOM      6  C   UNL     1       3.726   6.871  17.632  0.00  0.00    +0.000 A 
ATOM      7  C   UNL     1       2.973   8.056  17.711  0.00  0.00    +0.000 A 
ATOM      8  C   UNL     1       2.137   8.252  18.820  0.00  0.00    +0.000 A 
ATOM      9  C   UNL     1       1.357   9.475  18.954  0.00  0.00    +0.000 A 
ATOM     10  C   UNL     1       0.578   9.663  20.024  0.00  0.00    +0.000 A 
ATOM     11  C   UNL     1       0.450   8.655  21.085  0.00  0.00    +0.000 A 
ATOM     12  O   UNL     1      -0.263   8.845  22.061  0.00  0.00    +0.000 OA
ATOM     13  O   UNL     1       1.171   7.486  20.906  0.00  0.00    +0.000 OA
ATOM     14  C   UNL     1       2.061   7.275  19.821  0.00  0.00    +0.000 A 
ENDROOT
BRANCH   1  15
ATOM     15  O   UNL     1       2.827   5.097  20.745  0.00  0.00    +0.000 OA
BRANCH  15  16
ATOM     16  C   UNL     1       1.631   4.337  20.855  0.00  0.00    +0.000 C 
BRANCH  16  17
ATOM     17  C   UNL     1       1.926   2.848  20.888  0.00  0.00    +0.000 C 
ATOM     18  O   UNL     1       2.222   2.300  21.955  0.00  0.00    +0.000 OA
BRANCH  17  20
ATOM     19  C   UNL     1       0.953   2.821  18.580  0.00  0.00    +0.000 C 
ATOM     20  C   UNL     1       1.822   2.061  19.582  0.00  0.00    +0.000 C 
ATOM     21  C   UNL     1       3.200   1.800  18.981  0.00  0.00    +0.000 C 
ENDBRANCH  17  20
ENDBRANCH  16  17
ENDBRANCH  15  16
ENDBRANCH   1  15
TORSDOF 4
ENDMDL
MODEL 4
REMARK VINA RESULT:      -7.1      1.903      5.429
REMARK  Name = 
REMARK  6 active torsions:
REMARK  status: ('A' for Active; 'I' for Inactive)
REMARK    1  A    between atoms: C_1  and  C_2
REMARK    2  A    between atoms: C_2  and  C_3
REMARK    3  A    between atoms: C_2  and  C_4
REMARK    4  A    between atoms: C_4  and  C_6
REMARK    5  A    between atoms: C_6  and  O_7
REMARK    6  A    between atoms: O_7  and  C_8
REMARK                            x       y       z     vdW  Elec       q    Type
REMARK                         _______ _______ _______ _____ _____    ______ ____
ROOT
ATOM      1  C   UNL     1       3.648   5.618  17.907  0.00  0.00    +0.000 A 
ATOM      2  C   UNL     1       3.022   6.852  18.122  0.00  0.00    +0.000 A 
ATOM      3  O   UNL     1       3.098   7.942  17.298  0.00  0.00    +0.000 OA
ATOM      4  C   UNL     1       2.374   8.937  17.873  0.00  0.00    +0.000 A 
ATOM      5  C   UNL     1       1.822   8.510  19.058  0.00  0.00    +0.000 A 
ATOM      6  C   UNL     1       2.234   7.161  19.230  0.00  0.00    +0.000 A 
ATOM      7  C   UNL     1       2.029   6.178  20.215  0.00  0.00    +0.000 A 
ATOM      8  C   UNL     1       2.618   4.917  20.042  0.00  0.00    +0.000 A 
ATOM      9  C   UNL     1       2.451   3.877  21.049  0.00  0.00    +0.000 A 
ATOM     10  C   UNL     1       3.033   2.684  20.887  0.00  0.00    +0.000 A 
ATOM     11  C   UNL     1       3.832   2.359  19.698  0.00  0.00    +0.000 A 
ATOM     12  O   UNL     1       4.364   1.264  19.567  0.00  0.00    +0.000 OA
ATOM     13  O   UNL     1       3.936   3.355  18.741  0.00  0.00    +0.000 OA
ATOM     14  C   UNL     1       3.392   4.656  18.904  0.00  0.00    +0.000 A 
ENDROOT
BRANCH   1  15
ATOM     15  O   UNL     1       4.413   5.456  16.783  0.00  0.00    +0.000 OA
BRANCH  15  16
ATOM     16  C   UNL     1       5.686   4.855  16.984  0.00  0.00    +0.000 C 
BRANCH  16  17
ATOM     17  C   UNL     1       6.804   5.872  16.841  0.00  0.00    +0.000 C 
ATOM     18  O   UNL     1       7.416   5.971  15.772  0.00  0.00    +0.000 OA
BRANCH  17  20
ATOM     19  C   UNL     1       7.956   6.002  19.061  0.00  0.00    +0.000 C 
ATOM     20  C   UNL     1       7.122   6.770  18.035  0.00  0.00    +0.000 C 
ATOM     21  C   UNL     1       7.867   8.029  17.600  0.00  0.00    +0.000 C 
ENDBRANCH  17  20
ENDBRANCH  16  17
ENDBRANCH  15  16
ENDBRANCH   1  15
TORSDOF 4
ENDMDL
MODEL 5
REMARK VINA RESULT:      -7.1      1.721      5.477
REMARK  Name = 
REMARK  6 active torsions:
REMARK  status: ('A' for Active; 'I' for Inactive)
REMARK    1  A    between atoms: C_1  and  C_2
REMARK    2  A    between atoms: C_2  and  C_3
REMARK    3  A    between atoms: C_2  and  C_4
REMARK    4  A    between atoms: C_4  and  C_6
REMARK    5  A    between atoms: C_6  and  O_7
REMARK    6  A    between atoms: O_7  and  C_8
REMARK                            x       y       z     vdW  Elec       q    Type
REMARK                         _______ _______ _______ _____ _____    ______ ____
ROOT
ATOM      1  C   UNL     1       4.479   5.398  18.439  0.00  0.00    +0.000 A 
ATOM      2  C   UNL     1       3.632   6.508  18.327  0.00  0.00    +0.000 A 
ATOM      3  O   UNL     1       3.832   7.587  17.509  0.00  0.00    +0.000 OA
ATOM      4  C   UNL     1       2.801   8.448  17.713  0.00  0.00    +0.000 A 
ATOM      5  C   UNL     1       1.930   7.943  18.649  0.00  0.00    +0.000 A 
ATOM      6  C   UNL     1       2.456   6.687  19.053  0.00  0.00    +0.000 A 
ATOM      7  C   UNL     1       2.062   5.693  19.966  0.00  0.00    +0.000 A 
ATOM      8  C   UNL     1       2.864   4.551  20.108  0.00  0.00    +0.000 A 
ATOM      9  C   UNL     1       2.506   3.506  21.059  0.00  0.00    +0.000 A 
ATOM     10  C   UNL     1       3.287   2.430  21.202  0.00  0.00    +0.000 A 
ATOM     11  C   UNL     1       4.505   2.236  20.405  0.00  0.00    +0.000 A 
ATOM     12  O   UNL     1       5.212   1.248  20.552  0.00  0.00    +0.000 OA
ATOM     13  O   UNL     1       4.793   3.226  19.480  0.00  0.00    +0.000 OA
ATOM     14  C   UNL     1       4.031   4.415  19.344  0.00  0.00    +0.000 A 
ENDROOT
BRANCH   1  15
ATOM     15  O   UNL     1       5.617   5.359  17.679  0.00  0.00    +0.000 OA
BRANCH  15  16
ATOM     16  C   UNL     1       5.471   4.811  16.375  0.00  0.00    +0.000 C 
BRANCH  16  17
ATOM     17  C   UNL     1       6.685   5.109  15.513  0.00  0.00    +0.000 C 
ATOM     18  O   UNL     1       7.515   5.947  15.883  0.00  0.00    +0.000 OA
BRANCH  17  20
ATOM     19  C   UNL     1       5.484   3.964  13.637  0.00  0.00    +0.000 C 
ATOM     20  C   UNL     1       6.854   4.332  14.209  0.00  0.00    +0.000 C 
ATOM     21  C   UNL     1       7.645   5.137  13.182  0.00  0.00    +0.000 C 
ENDBRANCH  17  20
ENDBRANCH  16  17
ENDBRANCH  15  16
ENDBRANCH   1  15
TORSDOF 4
ENDMDL
MODEL 6
REMARK VINA RESULT:      -7.0      1.769      5.388
REMARK  Name = 
REMARK  6 active torsions:
REMARK  status: ('A' for Active; 'I' for Inactive)
REMARK    1  A    between atoms: C_1  and  C_2
REMARK    2  A    between atoms: C_2  and  C_3
REMARK    3  A    between atoms: C_2  and  C_4
REMARK    4  A    between atoms: C_4  and  C_6
REMARK    5  A    between atoms: C_6  and  O_7
REMARK    6  A    between atoms: O_7  and  C_8
REMARK                            x       y       z     vdW  Elec       q    Type
REMARK                         _______ _______ _______ _____ _____    ______ ____
ROOT
ATOM      1  C   UNL     1       3.213   5.437  18.815  0.00  0.00    +0.000 A 
ATOM      2  C   UNL     1       2.330   4.356  18.936  0.00  0.00    +0.000 A 
ATOM      3  O   UNL     1       1.268   4.283  19.796  0.00  0.00    +0.000 OA
ATOM      4  C   UNL     1       0.684   3.069  19.619  0.00  0.00    +0.000 A 
ATOM      5  C   UNL     1       1.348   2.352  18.651  0.00  0.00    +0.000 A 
ATOM      6  C   UNL     1       2.414   3.175  18.200  0.00  0.00    +0.000 A 
ATOM      7  C   UNL     1       3.446   3.034  17.255  0.00  0.00    +0.000 A 
ATOM      8  C   UNL     1       4.350   4.093  17.080  0.00  0.00    +0.000 A 
ATOM      9  C   UNL     1       5.447   3.981  16.128  0.00  0.00    +0.000 A 
ATOM     10  C   UNL     1       6.316   4.986  15.982  0.00  0.00    +0.000 A 
ATOM     11  C   UNL     1       6.196   6.241  16.737  0.00  0.00    +0.000 A 
ATOM     12  O   UNL     1       7.003   7.150  16.596  0.00  0.00    +0.000 OA
ATOM     13  O   UNL     1       5.117   6.331  17.601  0.00  0.00    +0.000 OA
ATOM     14  C   UNL     1       4.212   5.263  17.837  0.00  0.00    +0.000 A 
ENDROOT
BRANCH   1  15
ATOM     15  O   UNL     1       3.026   6.531  19.617  0.00  0.00    +0.000 OA
BRANCH  15  16
ATOM     16  C   UNL     1       2.284   7.599  19.042  0.00  0.00    +0.000 C 
BRANCH  16  17
ATOM     17  C   UNL     1       1.505   8.361  20.099  0.00  0.00    +0.000 C 
ATOM     18  O   UNL     1       1.371   7.883  21.231  0.00  0.00    +0.000 OA
BRANCH  17  20
ATOM     19  C   UNL     1       0.765   9.831  18.211  0.00  0.00    +0.000 C 
ATOM     20  C   UNL     1       0.926   9.724  19.728  0.00  0.00    +0.000 C 
ATOM     21  C   UNL     1      -0.419   9.959  20.410  0.00  0.00    +0.000 C 
ENDBRANCH  17  20
ENDBRANCH  16  17
ENDBRANCH  15  16
ENDBRANCH   1  15
TORSDOF 4
ENDMDL
MODEL 7
REMARK VINA RESULT:      -7.0      0.918      1.155
REMARK  Name = 
REMARK  6 active torsions:
REMARK  status: ('A' for Active; 'I' for Inactive)
REMARK    1  A    between atoms: C_1  and  C_2
REMARK    2  A    between atoms: C_2  and  C_3
REMARK    3  A    between atoms: C_2  and  C_4
REMARK    4  A    between atoms: C_4  and  C_6
REMARK    5  A    between atoms: C_6  and  O_7
REMARK    6  A    between atoms: O_7  and  C_8
REMARK                            x       y       z     vdW  Elec       q    Type
REMARK                         _______ _______ _______ _____ _____    ______ ____
ROOT
ATOM      1  C   UNL     1       4.616   5.196  18.605  0.00  0.00    +0.000 A 
ATOM      2  C   UNL     1       5.360   5.071  17.425  0.00  0.00    +0.000 A 
ATOM      3  O   UNL     1       6.279   4.093  17.160  0.00  0.00    +0.000 OA
ATOM      4  C   UNL     1       6.791   4.341  15.925  0.00  0.00    +0.000 A 
ATOM      5  C   UNL     1       6.214   5.464  15.381  0.00  0.00    +0.000 A 
ATOM      6  C   UNL     1       5.284   5.945  16.342  0.00  0.00    +0.000 A 
ATOM      7  C   UNL     1       4.399   7.036  16.408  0.00  0.00    +0.000 A 
ATOM      8  C   UNL     1       3.616   7.201  17.560  0.00  0.00    +0.000 A 
ATOM      9  C   UNL     1       2.703   8.330  17.680  0.00  0.00    +0.000 A 
ATOM     10  C   UNL     1       1.975   8.491  18.790  0.00  0.00    +0.000 A 
ATOM     11  C   UNL     1       2.036   7.543  19.911  0.00  0.00    +0.000 A 
ATOM     12  O   UNL     1       1.368   7.708  20.922  0.00  0.00    +0.000 OA
ATOM     13  O   UNL     1       2.882   6.458  19.746  0.00  0.00    +0.000 OA
ATOM     14  C   UNL     1       3.722   6.286  18.615  0.00  0.00    +0.000 A 
ENDROOT
BRANCH   1  15
ATOM     15  O   UNL     1       4.803   4.276  19.602  0.00  0.00    +0.000 OA
BRANCH  15  16
ATOM     16  C   UNL     1       4.383   2.951  19.306  0.00  0.00    +0.000 C 
BRANCH  16  17
ATOM     17  C   UNL     1       2.875   2.814  19.412  0.00  0.00    +0.000 C 
ATOM     18  O   UNL     1       2.251   2.181  18.554  0.00  0.00    +0.000 OA
BRANCH  17  20
ATOM     19  C   UNL     1       0.734   3.817  20.240  0.00  0.00    +0.000 C 
ATOM     20  C   UNL     1       2.173   3.454  20.608  0.00  0.00    +0.000 C 
ATOM     21  C   UNL     1       2.179   2.524  21.818  0.00  0.00    +0.000 C 
ENDBRANCH  17  20
ENDBRANCH  16  17
ENDBRANCH  15  16
ENDBRANCH   1  15
TORSDOF 4
ENDMDL
MODEL 8
REMARK VINA RESULT:      -7.0      1.172      4.463
REMARK  Name = 
REMARK  6 active torsions:
REMARK  status: ('A' for Active; 'I' for Inactive)
REMARK    1  A    between atoms: C_1  and  C_2
REMARK    2  A    between atoms: C_2  and  C_3
REMARK    3  A    between atoms: C_2  and  C_4
REMARK    4  A    between atoms: C_4  and  C_6
REMARK    5  A    between atoms: C_6  and  O_7
REMARK    6  A    between atoms: O_7  and  C_8
REMARK                            x       y       z     vdW  Elec       q    Type
REMARK                         _______ _______ _______ _____ _____    ______ ____
ROOT
ATOM      1  C   UNL     1       2.529   6.311  19.888  0.00  0.00    +0.000 A 
ATOM      2  C   UNL     1       1.820   7.511  20.027  0.00  0.00    +0.000 A 
ATOM      3  O   UNL     1       0.981   7.829  21.060  0.00  0.00    +0.000 OA
ATOM      4  C   UNL     1       0.478   9.066  20.809  0.00  0.00    +0.000 A 
ATOM      5  C   UNL     1       0.983   9.561  19.629  0.00  0.00    +0.000 A 
ATOM      6  C   UNL     1       1.854   8.564  19.114  0.00  0.00    +0.000 A 
ATOM      7  C   UNL     1       2.655   8.443  17.965  0.00  0.00    +0.000 A 
ATOM      8  C   UNL     1       3.400   7.269  17.782  0.00  0.00    +0.000 A 
ATOM      9  C   UNL     1       4.225   7.091  16.595  0.00  0.00    +0.000 A 
ATOM     10  C   UNL     1       4.916   5.960  16.418  0.00  0.00    +0.000 A 
ATOM     11  C   UNL     1       4.901   4.872  17.405  0.00  0.00    +0.000 A 
ATOM     12  O   UNL     1       5.534   3.840  17.226  0.00  0.00    +0.000 OA
ATOM     13  O   UNL     1       4.141   5.090  18.542  0.00  0.00    +0.000 OA
ATOM     14  C   UNL     1       3.339   6.246  18.737  0.00  0.00    +0.000 A 
ENDROOT
BRANCH   1  15
ATOM     15  O   UNL     1       2.388   5.349  20.852  0.00  0.00    +0.000 OA
BRANCH  15  16
ATOM     16  C   UNL     1       1.287   4.465  20.687  0.00  0.00    +0.000 C 
BRANCH  16  17
ATOM     17  C   UNL     1       1.724   3.015  20.792  0.00  0.00    +0.000 C 
ATOM     18  O   UNL     1       1.932   2.511  21.902  0.00  0.00    +0.000 OA
BRANCH  17  20
ATOM     19  C   UNL     1       1.269   2.981  18.329  0.00  0.00    +0.000 C 
ATOM     20  C   UNL     1       1.871   2.209  19.503  0.00  0.00    +0.000 C 
ATOM     21  C   UNL     1       3.335   1.886  19.215  0.00  0.00    +0.000 C 
ENDBRANCH  17  20
ENDBRANCH  16  17
ENDBRANCH  15  16
ENDBRANCH   1  15
TORSDOF 4
ENDMDL
MODEL 9
REMARK VINA RESULT:      -7.0      1.735      5.389
REMARK  Name = 
REMARK  6 active torsions:
REMARK  status: ('A' for Active; 'I' for Inactive)
REMARK    1  A    between atoms: C_1  and  C_2
REMARK    2  A    between atoms: C_2  and  C_3
REMARK    3  A    between atoms: C_2  and  C_4
REMARK    4  A    between atoms: C_4  and  C_6
REMARK    5  A    between atoms: C_6  and  O_7
REMARK    6  A    between atoms: O_7  and  C_8
REMARK                            x       y       z     vdW  Elec       q    Type
REMARK                         _______ _______ _______ _____ _____    ______ ____
ROOT
ATOM      1  C   UNL     1       3.339   6.445  18.046  0.00  0.00    +0.000 A 
ATOM      2  C   UNL     1       2.657   7.651  18.251  0.00  0.00    +0.000 A 
ATOM      3  O   UNL     1       2.720   8.753  17.442  0.00  0.00    +0.000 OA
ATOM      4  C   UNL     1       1.936   9.712  18.000  0.00  0.00    +0.000 A 
ATOM      5  C   UNL     1       1.359   9.249  19.159  0.00  0.00    +0.000 A 
ATOM      6  C   UNL     1       1.817   7.915  19.331  0.00  0.00    +0.000 A 
ATOM      7  C   UNL     1       1.615   6.912  20.297  0.00  0.00    +0.000 A 
ATOM      8  C   UNL     1       2.260   5.678  20.133  0.00  0.00    +0.000 A 
ATOM      9  C   UNL     1       2.097   4.619  21.121  0.00  0.00    +0.000 A 
ATOM     10  C   UNL     1       2.732   3.453  20.968  0.00  0.00    +0.000 A 
ATOM     11  C   UNL     1       3.586   3.173  19.806  0.00  0.00    +0.000 A 
ATOM     12  O   UNL     1       4.165   2.102  19.684  0.00  0.00    +0.000 OA
ATOM     13  O   UNL     1       3.685   4.184  18.865  0.00  0.00    +0.000 OA
ATOM     14  C   UNL     1       3.085   5.461  19.022  0.00  0.00    +0.000 A 
ENDROOT
BRANCH   1  15
ATOM     15  O   UNL     1       4.151   6.326  16.949  0.00  0.00    +0.000 OA
BRANCH  15  16
ATOM     16  C   UNL     1       5.533   6.572  17.175  0.00  0.00    +0.000 C 
BRANCH  16  17
ATOM     17  C   UNL     1       6.393   5.886  16.129  0.00  0.00    +0.000 C 
ATOM     18  O   UNL     1       7.579   6.207  15.997  0.00  0.00    +0.000 OA
BRANCH  17  20
ATOM     19  C   UNL     1       6.606   4.535  14.030  0.00  0.00    +0.000 C 
ATOM     20  C   UNL     1       5.758   4.788  15.277  0.00  0.00    +0.000 C 
ATOM     21  C   UNL     1       5.602   3.493  16.070  0.00  0.00    +0.000 C 
ENDBRANCH  17  20
ENDBRANCH  16  17
ENDBRANCH  15  16
ENDBRANCH   1  15
TORSDOF 4
ENDMDL
