MODEL 1
REMARK VINA RESULT:      -7.7      0.000      0.000
REMARK  Name = 
REMARK  11 active torsions:
REMARK  status: ('A' for Active; 'I' for Inactive)
REMARK    1  A    between atoms: C_1  and  C_2
REMARK    2  A    between atoms: C_2  and  O_3
REMARK    3  A    between atoms: O_3  and  C_4
REMARK    4  A    between atoms: C_8  and  C_9
REMARK    5  A    between atoms: C_9  and  C_11
REMARK    6  A    between atoms: C_14  and  C_15
REMARK    7  A    between atoms: C_15  and  O_17
REMARK    8  A    between atoms: C_20  and  O_21
REMARK    9  A    between atoms: O_21  and  C_22
REMARK   10  A    between atoms: C_23  and  O_24
REMARK   11  A    between atoms: O_24  and  C_25
REMARK                            x       y       z     vdW  Elec       q    Type
REMARK                         _______ _______ _______ _____ _____    ______ ____
ROOT
ATOM      1  C   UNL     1       6.524   6.878  18.047  0.00  0.00    +0.000 A 
ATOM      2  N   UNL     1       6.142   7.332  16.815  0.00  0.00    +0.000 NA
ATOM      3  C   UNL     1       5.053   6.854  16.320  0.00  0.00    +0.000 A 
ATOM      4  C   UNL     1       4.832   5.557  16.556  0.00  0.00    +0.000 A 
ATOM      5  C   UNL     1       4.482   5.588  17.954  0.00  0.00    +0.000 A 
ATOM      6  C   UNL     1       3.297   6.088  18.755  0.00  0.00    +0.000 A 
ATOM      7  C   UNL     1       2.702   5.294  19.783  0.00  0.00    +0.000 A 
ATOM      8  C   UNL     1       3.099   4.055  19.678  0.00  0.00    +0.000 A 
ATOM      9  C   UNL     1       4.605   4.115  19.224  0.00  0.00    +0.000 A 
ATOM     10  C   UNL     1       5.528   5.468  18.648  0.00  0.00    +0.000 A 
ENDROOT
BRANCH   1  11
ATOM     11  C   UNL     1       7.982   7.914  17.764  0.00  0.00    +0.000 C 
ATOM     12  O   UNL     1       8.439   7.715  16.612  0.00  0.00    +0.000 OA
BRANCH  11  17
ATOM     13  C   UNL     1       9.785  11.399  19.657  0.00  0.00    +0.000 A 
ATOM     14  C   UNL     1       9.556  12.497  18.834  0.00  0.00    +0.000 A 
ATOM     15  C   UNL     1       8.705  12.241  17.784  0.00  0.00    +0.000 A 
ATOM     16  C   UNL     1       8.205  10.848  17.514  0.00  0.00    +0.000 A 
ATOM     17  C   UNL     1       8.499   9.599  18.274  0.00  0.00    +0.000 A 
ATOM     18  C   UNL     1       9.246  10.010  19.404  0.00  0.00    +0.000 A 
BRANCH  13  19
ATOM     19  O   UNL     1      10.506  11.763  20.787  0.00  0.00    +0.000 OA
BRANCH  19  21
ATOM     20  C   UNL     1       8.797  12.236  22.419  0.00  0.00    +0.000 C 
ATOM     21  C   UNL     1       9.874  12.800  21.518  0.00  0.00    +0.000 C 
ENDBRANCH  19  21
ENDBRANCH  13  19
ENDBRANCH  11  17
ENDBRANCH   1  11
BRANCH   4  22
ATOM     22  C   UNL     1       5.943   4.461  16.260  0.00  0.00    +0.000 C 
ATOM     23  O   UNL     1       5.678   3.265  16.287  0.00  0.00    +0.000 OA
BRANCH  22  24
ATOM     24  O   UNL     1       7.231   4.847  16.075  0.00  0.00    +0.000 OA
ATOM     25  H   UNL     1       7.880   4.207  15.704  0.00  0.00    +0.000 HD
ENDBRANCH  22  24
ENDBRANCH   4  22
BRANCH   7  26
ATOM     26  O   UNL     1       1.846   5.868  20.666  0.00  0.00    +0.000 OA
ATOM     27  C   UNL     1       1.659   7.301  20.641  0.00  0.00    +0.000 C 
ENDBRANCH   7  26
BRANCH   8  28
ATOM     28  O   UNL     1       2.047   3.195  19.911  0.00  0.00    +0.000 OA
ATOM     29  C   UNL     1       1.114   2.447  20.710  0.00  0.00    +0.000 C 
ENDBRANCH   8  28
TORSDOF 8
ENDMDL
MODEL 2
REMARK VINA RESULT:      -7.5      1.024      1.926
REMARK  Name = 
REMARK  11 active torsions:
REMARK  status: ('A' for Active; 'I' for Inactive)
REMARK    1  A    between atoms: C_1  and  C_2
REMARK    2  A    between atoms: C_2  and  O_3
REMARK    3  A    between atoms: O_3  and  C_4
REMARK    4  A    between atoms: C_8  and  C_9
REMARK    5  A    between atoms: C_9  and  C_11
REMARK    6  A    between atoms: C_14  and  C_15
REMARK    7  A    between atoms: C_15  and  O_17
REMARK    8  A    between atoms: C_20  and  O_21
REMARK    9  A    between atoms: O_21  and  C_22
REMARK   10  A    between atoms: C_23  and  O_24
REMARK   11  A    between atoms: O_24  and  C_25
REMARK                            x       y       z     vdW  Elec       q    Type
REMARK                         _______ _______ _______ _____ _____    ______ ____
ROOT
ATOM      1  C   UNL     1       6.647   6.824  18.089  0.00  0.00    +0.000 A 
ATOM      2  N   UNL     1       6.229   7.292  16.875  0.00  0.00    +0.000 NA
ATOM      3  C   UNL     1       5.135   6.806  16.398  0.00  0.00    +0.000 A 
ATOM      4  C   UNL     1       4.937   5.503  16.618  0.00  0.00    +0.000 A 
ATOM      5  C   UNL     1       4.621   5.507  18.025  0.00  0.00    +0.000 A 
ATOM      6  C   UNL     1       3.449   5.978  18.862  0.00  0.00    +0.000 A 
ATOM      7  C   UNL     1       2.890   5.161  19.892  0.00  0.00    +0.000 A 
ATOM      8  C   UNL     1       3.301   3.929  19.757  0.00  0.00    +0.000 A 
ATOM      9  C   UNL     1       4.794   4.017  19.268  0.00  0.00    +0.000 A 
ATOM     10  C   UNL     1       5.685   5.391  18.692  0.00  0.00    +0.000 A 
ENDROOT
BRANCH   1  11
ATOM     11  C   UNL     1       8.084   7.885  17.788  0.00  0.00    +0.000 C 
ATOM     12  O   UNL     1       8.465   7.770  16.598  0.00  0.00    +0.000 OA
BRANCH  11  17
ATOM     13  C   UNL     1       8.949  12.120  18.325  0.00  0.00    +0.000 A 
ATOM     14  C   UNL     1       9.318  12.315  19.652  0.00  0.00    +0.000 A 
ATOM     15  C   UNL     1       9.482  11.149  20.364  0.00  0.00    +0.000 A 
ATOM     16  C   UNL     1       9.146   9.815  19.754  0.00  0.00    +0.000 A 
ATOM     17  C   UNL     1       8.632   9.531  18.383  0.00  0.00    +0.000 A 
ATOM     18  C   UNL     1       8.652  10.774  17.705  0.00  0.00    +0.000 A 
BRANCH  13  19
ATOM     19  O   UNL     1       8.969  13.317  17.621  0.00  0.00    +0.000 OA
BRANCH  19  21
ATOM     20  C   UNL     1      11.209  13.263  16.734  0.00  0.00    +0.000 C 
ATOM     21  C   UNL     1      10.236  13.950  17.668  0.00  0.00    +0.000 C 
ENDBRANCH  19  21
ENDBRANCH  13  19
ENDBRANCH  11  17
ENDBRANCH   1  11
BRANCH   4  22
ATOM     22  C   UNL     1       6.056   4.428  16.279  0.00  0.00    +0.000 C 
ATOM     23  O   UNL     1       7.169   4.769  15.894  0.00  0.00    +0.000 OA
BRANCH  22  24
ATOM     24  O   UNL     1       5.748   3.107  16.313  0.00  0.00    +0.000 OA
ATOM     25  H   UNL     1       6.084   2.549  17.050  0.00  0.00    +0.000 HD
ENDBRANCH  22  24
ENDBRANCH   4  22
BRANCH   7  26
ATOM     26  O   UNL     1       2.047   5.710  20.803  0.00  0.00    +0.000 OA
ATOM     27  C   UNL     1       1.604   7.073  20.627  0.00  0.00    +0.000 C 
ENDBRANCH   7  26
BRANCH   8  28
ATOM     28  O   UNL     1       2.266   3.051  20.002  0.00  0.00    +0.000 OA
ATOM     29  C   UNL     1       1.110   2.541  20.689  0.00  0.00    +0.000 C 
ENDBRANCH   8  28
TORSDOF 8
ENDMDL
MODEL 3
REMARK VINA RESULT:      -7.4      0.884      1.122
REMARK  Name = 
REMARK  11 active torsions:
REMARK  status: ('A' for Active; 'I' for Inactive)
REMARK    1  A    between atoms: C_1  and  C_2
REMARK    2  A    between atoms: C_2  and  O_3
REMARK    3  A    between atoms: O_3  and  C_4
REMARK    4  A    between atoms: C_8  and  C_9
REMARK    5  A    between atoms: C_9  and  C_11
REMARK    6  A    between atoms: C_14  and  C_15
REMARK    7  A    between atoms: C_15  and  O_17
REMARK    8  A    between atoms: C_20  and  O_21
REMARK    9  A    between atoms: O_21  and  C_22
REMARK   10  A    between atoms: C_23  and  O_24
REMARK   11  A    between atoms: O_24  and  C_25
REMARK                            x       y       z     vdW  Elec       q    Type
REMARK                         _______ _______ _______ _____ _____    ______ ____
ROOT
ATOM      1  C   UNL     1       6.560   6.816  17.963  0.00  0.00    +0.000 A 
ATOM      2  N   UNL     1       6.129   7.336  16.775  0.00  0.00    +0.000 NA
ATOM      3  C   UNL     1       5.046   6.849  16.274  0.00  0.00    +0.000 A 
ATOM      4  C   UNL     1       4.882   5.531  16.426  0.00  0.00    +0.000 A 
ATOM      5  C   UNL     1       4.567   5.455  17.830  0.00  0.00    +0.000 A 
ATOM      6  C   UNL     1       3.385   5.852  18.691  0.00  0.00    +0.000 A 
ATOM      7  C   UNL     1       2.848   4.969  19.677  0.00  0.00    +0.000 A 
ATOM      8  C   UNL     1       3.289   3.756  19.478  0.00  0.00    +0.000 A 
ATOM      9  C   UNL     1       4.779   3.907  18.995  0.00  0.00    +0.000 A 
ATOM     10  C   UNL     1       5.634   5.331  18.491  0.00  0.00    +0.000 A 
ENDROOT
BRANCH   1  11
ATOM     11  C   UNL     1       7.970   7.927  17.717  0.00  0.00    +0.000 C 
ATOM     12  O   UNL     1       8.525   7.685  16.619  0.00  0.00    +0.000 OA
BRANCH  11  17
ATOM     13  C   UNL     1       9.577  11.641  19.329  0.00  0.00    +0.000 A 
ATOM     14  C   UNL     1       9.100  12.687  18.546  0.00  0.00    +0.000 A 
ATOM     15  C   UNL     1       8.147  12.310  17.629  0.00  0.00    +0.000 A 
ATOM     16  C   UNL     1       7.790  10.861  17.434  0.00  0.00    +0.000 A 
ATOM     17  C   UNL     1       8.341   9.672  18.146  0.00  0.00    +0.000 A 
ATOM     18  C   UNL     1       9.184  10.192  19.158  0.00  0.00    +0.000 A 
BRANCH  13  19
ATOM     19  O   UNL     1      10.399  12.112  20.344  0.00  0.00    +0.000 OA
BRANCH  19  21
ATOM     20  C   UNL     1      12.315  12.969  19.159  0.00  0.00    +0.000 C 
ATOM     21  C   UNL     1      11.773  11.890  20.072  0.00  0.00    +0.000 C 
ENDBRANCH  19  21
ENDBRANCH  13  19
ENDBRANCH  11  17
ENDBRANCH   1  11
BRANCH   4  22
ATOM     22  C   UNL     1       6.027   4.503  16.031  0.00  0.00    +0.000 C 
ATOM     23  O   UNL     1       5.784   3.312  15.878  0.00  0.00    +0.000 OA
BRANCH  22  24
ATOM     24  O   UNL     1       7.313   4.928  15.962  0.00  0.00    +0.000 OA
ATOM     25  H   UNL     1       7.996   4.344  15.560  0.00  0.00    +0.000 HD
ENDBRANCH  22  24
ENDBRANCH   4  22
BRANCH   7  26
ATOM     26  O   UNL     1       1.993   5.448  20.616  0.00  0.00    +0.000 OA
ATOM     27  C   UNL     1       1.650   6.852  20.610  0.00  0.00    +0.000 C 
ENDBRANCH   7  26
BRANCH   8  28
ATOM     28  O   UNL     1       2.277   2.841  19.678  0.00  0.00    +0.000 OA
ATOM     29  C   UNL     1       1.131   2.051  19.318  0.00  0.00    +0.000 C 
ENDBRANCH   8  28
TORSDOF 8
ENDMDL
MODEL 4
REMARK VINA RESULT:      -7.4      5.705      9.703
REMARK  Name = 
REMARK  11 active torsions:
REMARK  status: ('A' for Active; 'I' for Inactive)
REMARK    1  A    between atoms: C_1  and  C_2
REMARK    2  A    between atoms: C_2  and  O_3
REMARK    3  A    between atoms: O_3  and  C_4
REMARK    4  A    between atoms: C_8  and  C_9
REMARK    5  A    between atoms: C_9  and  C_11
REMARK    6  A    between atoms: C_14  and  C_15
REMARK    7  A    between atoms: C_15  and  O_17
REMARK    8  A    between atoms: C_20  and  O_21
REMARK    9  A    between atoms: O_21  and  C_22
REMARK   10  A    between atoms: C_23  and  O_24
REMARK   11  A    between atoms: O_24  and  C_25
REMARK                            x       y       z     vdW  Elec       q    Type
REMARK                         _______ _______ _______ _____ _____    ______ ____
ROOT
ATOM      1  C   UNL     1       0.985  10.870  19.045  0.00  0.00    +0.000 A 
ATOM      2  N   UNL     1      -0.185  10.180  18.890  0.00  0.00    +0.000 NA
ATOM      3  C   UNL     1      -1.242  10.677  19.433  0.00  0.00    +0.000 A 
ATOM      4  C   UNL     1      -1.061  11.255  20.625  0.00  0.00    +0.000 A 
ATOM      5  C   UNL     1      -0.380  12.466  20.242  0.00  0.00    +0.000 A 
ATOM      6  C   UNL     1      -0.772  13.738  19.519  0.00  0.00    +0.000 A 
ATOM      7  C   UNL     1      -0.401  15.025  20.016  0.00  0.00    +0.000 A 
ATOM      8  C   UNL     1      -0.010  14.929  21.257  0.00  0.00    +0.000 A 
ATOM      9  C   UNL     1       0.771  13.566  21.365  0.00  0.00    +0.000 A 
ATOM     10  C   UNL     1       0.864  12.258  20.228  0.00  0.00    +0.000 A 
ENDROOT
BRANCH   1  11
ATOM     11  C   UNL     1       1.709   9.463  18.164  0.00  0.00    +0.000 C 
ATOM     12  O   UNL     1       2.374   9.864  17.178  0.00  0.00    +0.000 OA
BRANCH  11  17
ATOM     13  C   UNL     1       2.545   5.606  20.007  0.00  0.00    +0.000 A 
ATOM     14  C   UNL     1       3.432   4.922  19.181  0.00  0.00    +0.000 A 
ATOM     15  C   UNL     1       3.929   5.679  18.145  0.00  0.00    +0.000 A 
ATOM     16  C   UNL     1       3.422   7.073  17.892  0.00  0.00    +0.000 A 
ATOM     17  C   UNL     1       2.389   7.831  18.655  0.00  0.00    +0.000 A 
ATOM     18  C   UNL     1       2.070   7.020  19.771  0.00  0.00    +0.000 A 
BRANCH  13  19
ATOM     19  O   UNL     1       2.217   4.847  21.122  0.00  0.00    +0.000 OA
BRANCH  19  21
ATOM     20  C   UNL     1       1.591   2.579  21.645  0.00  0.00    +0.000 C 
ATOM     21  C   UNL     1       1.295   3.814  20.820  0.00  0.00    +0.000 C 
ENDBRANCH  19  21
ENDBRANCH  13  19
ENDBRANCH  11  17
ENDBRANCH   1  11
BRANCH   4  22
ATOM     22  C   UNL     1      -0.299  10.506  21.800  0.00  0.00    +0.000 C 
ATOM     23  O   UNL     1      -0.174  11.022  22.905  0.00  0.00    +0.000 OA
BRANCH  22  24
ATOM     24  O   UNL     1       0.316   9.323  21.552  0.00  0.00    +0.000 OA
ATOM     25  H   UNL     1       1.200   9.143  21.946  0.00  0.00    +0.000 HD
ENDBRANCH  22  24
ENDBRANCH   4  22
BRANCH   7  26
ATOM     26  O   UNL     1      -0.511  16.114  19.213  0.00  0.00    +0.000 OA
ATOM     27  C   UNL     1       0.687  16.772  18.745  0.00  0.00    +0.000 C 
ENDBRANCH   7  26
BRANCH   8  28
ATOM     28  O   UNL     1      -0.496  15.988  21.996  0.00  0.00    +0.000 OA
ATOM     29  C   UNL     1      -1.368  16.647  22.930  0.00  0.00    +0.000 C 
ENDBRANCH   8  28
TORSDOF 8
ENDMDL
MODEL 5
REMARK VINA RESULT:      -7.3      4.606      7.155
REMARK  Name = 
REMARK  11 active torsions:
REMARK  status: ('A' for Active; 'I' for Inactive)
REMARK    1  A    between atoms: C_1  and  C_2
REMARK    2  A    between atoms: C_2  and  O_3
REMARK    3  A    between atoms: O_3  and  C_4
REMARK    4  A    between atoms: C_8  and  C_9
REMARK    5  A    between atoms: C_9  and  C_11
REMARK    6  A    between atoms: C_14  and  C_15
REMARK    7  A    between atoms: C_15  and  O_17
REMARK    8  A    between atoms: C_20  and  O_21
REMARK    9  A    between atoms: O_21  and  C_22
REMARK   10  A    between atoms: C_23  and  O_24
REMARK   11  A    between atoms: O_24  and  C_25
REMARK                            x       y       z     vdW  Elec       q    Type
REMARK                         _______ _______ _______ _____ _____    ______ ____
ROOT
ATOM      1  C   UNL     1       4.984   5.463  17.437  0.00  0.00    +0.000 A 
ATOM      2  N   UNL     1       4.317   4.502  16.730  0.00  0.00    +0.000 NA
ATOM      3  C   UNL     1       3.091   4.274  17.052  0.00  0.00    +0.000 A 
ATOM      4  C   UNL     1       2.817   4.329  18.359  0.00  0.00    +0.000 A 
ATOM      5  C   UNL     1       2.880   5.750  18.593  0.00  0.00    +0.000 A 
ATOM      6  C   UNL     1       2.026   6.942  18.212  0.00  0.00    +0.000 A 
ATOM      7  C   UNL     1       1.669   7.941  19.169  0.00  0.00    +0.000 A 
ATOM      8  C   UNL     1       1.894   7.503  20.378  0.00  0.00    +0.000 A 
ATOM      9  C   UNL     1       3.209   6.642  20.293  0.00  0.00    +0.000 A 
ATOM     10  C   UNL     1       4.062   6.070  18.894  0.00  0.00    +0.000 A 
ENDROOT
BRANCH   1  11
ATOM     11  C   UNL     1       6.399   4.951  16.429  0.00  0.00    +0.000 C 
ATOM     12  O   UNL     1       7.143   4.182  17.085  0.00  0.00    +0.000 OA
BRANCH  11  17
ATOM     13  C   UNL     1       6.128   3.590  12.300  0.00  0.00    +0.000 A 
ATOM     14  C   UNL     1       7.058   4.305  11.554  0.00  0.00    +0.000 A 
ATOM     15  C   UNL     1       7.904   5.083  12.310  0.00  0.00    +0.000 A 
ATOM     16  C   UNL     1       7.709   5.220  13.796  0.00  0.00    +0.000 A 
ATOM     17  C   UNL     1       6.665   4.585  14.651  0.00  0.00    +0.000 A 
ATOM     18  C   UNL     1       5.962   3.700  13.798  0.00  0.00    +0.000 A 
BRANCH  13  19
ATOM     19  O   UNL     1       5.425   2.699  11.500  0.00  0.00    +0.000 OA
BRANCH  19  21
ATOM     20  C   UNL     1       3.621   3.695  10.251  0.00  0.00    +0.000 C 
ATOM     21  C   UNL     1       4.031   2.953  11.505  0.00  0.00    +0.000 C 
ENDBRANCH  19  21
ENDBRANCH  13  19
ENDBRANCH  11  17
ENDBRANCH   1  11
BRANCH   4  22
ATOM     22  C   UNL     1       3.685   3.526  19.420  0.00  0.00    +0.000 C 
ATOM     23  O   UNL     1       3.287   3.357  20.567  0.00  0.00    +0.000 OA
BRANCH  22  24
ATOM     24  O   UNL     1       4.932   3.110  19.087  0.00  0.00    +0.000 OA
ATOM     25  H   UNL     1       5.047   2.267  18.593  0.00  0.00    +0.000 HD
ENDBRANCH  22  24
ENDBRANCH   4  22
BRANCH   7  26
ATOM     26  O   UNL     1       1.157   9.125  18.746  0.00  0.00    +0.000 OA
ATOM     27  C   UNL     1       2.003  10.040  18.014  0.00  0.00    +0.000 C 
ENDBRANCH   7  26
BRANCH   8  28
ATOM     28  O   UNL     1       0.869   7.880  21.221  0.00  0.00    +0.000 OA
ATOM     29  C   UNL     1      -0.403   8.451  21.568  0.00  0.00    +0.000 C 
ENDBRANCH   8  28
TORSDOF 8
ENDMDL
MODEL 6
REMARK VINA RESULT:      -7.2      7.139     11.004
REMARK  Name = 
REMARK  11 active torsions:
REMARK  status: ('A' for Active; 'I' for Inactive)
REMARK    1  A    between atoms: C_1  and  C_2
REMARK    2  A    between atoms: C_2  and  O_3
REMARK    3  A    between atoms: O_3  and  C_4
REMARK    4  A    between atoms: C_8  and  C_9
REMARK    5  A    between atoms: C_9  and  C_11
REMARK    6  A    between atoms: C_14  and  C_15
REMARK    7  A    between atoms: C_15  and  O_17
REMARK    8  A    between atoms: C_20  and  O_21
REMARK    9  A    between atoms: O_21  and  C_22
REMARK   10  A    between atoms: C_23  and  O_24
REMARK   11  A    between atoms: O_24  and  C_25
REMARK                            x       y       z     vdW  Elec       q    Type
REMARK                         _______ _______ _______ _____ _____    ______ ____
ROOT
ATOM      1  C   UNL     1      -0.790  11.345  22.567  0.00  0.00    +0.000 A 
ATOM      2  N   UNL     1       0.120  11.938  21.738  0.00  0.00    +0.000 NA
ATOM      3  C   UNL     1      -0.029  13.195  21.497  0.00  0.00    +0.000 A 
ATOM      4  C   UNL     1      -1.293  13.611  21.366  0.00  0.00    +0.000 A 
ATOM      5  C   UNL     1      -1.741  13.560  22.735  0.00  0.00    +0.000 A 
ATOM      6  C   UNL     1      -1.452  14.356  23.992  0.00  0.00    +0.000 A 
ATOM      7  C   UNL     1      -2.502  14.808  24.849  0.00  0.00    +0.000 A 
ATOM      8  C   UNL     1      -3.649  14.722  24.233  0.00  0.00    +0.000 A 
ATOM      9  C   UNL     1      -3.581  13.414  23.360  0.00  0.00    +0.000 A 
ATOM     10  C   UNL     1      -2.212  12.416  22.978  0.00  0.00    +0.000 A 
ENDROOT
BRANCH   1  11
ATOM     11  C   UNL     1       0.124   9.831  22.172  0.00  0.00    +0.000 C 
ATOM     12  O   UNL     1      -0.371   8.854  22.783  0.00  0.00    +0.000 OA
BRANCH  11  17
ATOM     13  C   UNL     1       2.276   7.444  19.233  0.00  0.00    +0.000 A 
ATOM     14  C   UNL     1       2.090   8.033  17.986  0.00  0.00    +0.000 A 
ATOM     15  C   UNL     1       1.460   9.255  18.033  0.00  0.00    +0.000 A 
ATOM     16  C   UNL     1       0.917   9.797  19.328  0.00  0.00    +0.000 A 
ATOM     17  C   UNL     1       0.969   9.174  20.682  0.00  0.00    +0.000 A 
ATOM     18  C   UNL     1       1.766   8.013  20.536  0.00  0.00    +0.000 A 
BRANCH  13  19
ATOM     19  O   UNL     1       3.066   6.306  19.133  0.00  0.00    +0.000 OA
BRANCH  19  21
ATOM     20  C   UNL     1       4.035   4.912  17.423  0.00  0.00    +0.000 C 
ATOM     21  C   UNL     1       2.775   5.547  17.971  0.00  0.00    +0.000 C 
ENDBRANCH  19  21
ENDBRANCH  13  19
ENDBRANCH  11  17
ENDBRANCH   1  11
BRANCH   4  22
ATOM     22  C   UNL     1      -2.311  12.874  20.395  0.00  0.00    +0.000 C 
ATOM     23  O   UNL     1      -3.481  13.229  20.314  0.00  0.00    +0.000 OA
BRANCH  22  24
ATOM     24  O   UNL     1      -1.910  11.767  19.720  0.00  0.00    +0.000 OA
ATOM     25  H   UNL     1      -2.560  11.053  19.530  0.00  0.00    +0.000 HD
ENDBRANCH  22  24
ENDBRANCH   4  22
BRANCH   7  26
ATOM     26  O   UNL     1      -2.207  15.258  26.095  0.00  0.00    +0.000 OA
ATOM     27  C   UNL     1      -0.898  15.813  26.356  0.00  0.00    +0.000 C 
ENDBRANCH   7  26
BRANCH   8  28
ATOM     28  O   UNL     1      -4.424  15.829  24.508  0.00  0.00    +0.000 OA
ATOM     29  C   UNL     1      -4.932  17.159  24.308  0.00  0.00    +0.000 C 
ENDBRANCH   8  28
TORSDOF 8
ENDMDL
MODEL 7
REMARK VINA RESULT:      -7.1      5.654      9.713
REMARK  Name = 
REMARK  11 active torsions:
REMARK  status: ('A' for Active; 'I' for Inactive)
REMARK    1  A    between atoms: C_1  and  C_2
REMARK    2  A    between atoms: C_2  and  O_3
REMARK    3  A    between atoms: O_3  and  C_4
REMARK    4  A    between atoms: C_8  and  C_9
REMARK    5  A    between atoms: C_9  and  C_11
REMARK    6  A    between atoms: C_14  and  C_15
REMARK    7  A    between atoms: C_15  and  O_17
REMARK    8  A    between atoms: C_20  and  O_21
REMARK    9  A    between atoms: O_21  and  C_22
REMARK   10  A    between atoms: C_23  and  O_24
REMARK   11  A    between atoms: O_24  and  C_25
REMARK                            x       y       z     vdW  Elec       q    Type
REMARK                         _______ _______ _______ _____ _____    ______ ____
ROOT
ATOM      1  C   UNL     1       1.198  10.565  18.930  0.00  0.00    +0.000 A 
ATOM      2  N   UNL     1      -0.061  10.067  18.735  0.00  0.00    +0.000 NA
ATOM      3  C   UNL     1      -1.048  10.767  19.178  0.00  0.00    +0.000 A 
ATOM      4  C   UNL     1      -0.841  11.384  20.345  0.00  0.00    +0.000 A 
ATOM      5  C   UNL     1       0.056  12.438  19.942  0.00  0.00    +0.000 A 
ATOM      6  C   UNL     1      -0.075  13.707  19.125  0.00  0.00    +0.000 A 
ATOM      7  C   UNL     1       0.479  14.946  19.573  0.00  0.00    +0.000 A 
ATOM      8  C   UNL     1       0.777  14.868  20.842  0.00  0.00    +0.000 A 
ATOM      9  C   UNL     1       1.310  13.406  21.077  0.00  0.00    +0.000 A 
ATOM     10  C   UNL     1       1.245  12.028  20.023  0.00  0.00    +0.000 A 
ENDROOT
BRANCH   1  11
ATOM     11  C   UNL     1       1.723   9.002  18.178  0.00  0.00    +0.000 C 
ATOM     12  O   UNL     1       2.442   9.224  17.174  0.00  0.00    +0.000 OA
BRANCH  11  17
ATOM     13  C   UNL     1       3.426   5.055  18.884  0.00  0.00    +0.000 A 
ATOM     14  C   UNL     1       3.076   4.664  20.172  0.00  0.00    +0.000 A 
ATOM     15  C   UNL     1       2.176   5.503  20.786  0.00  0.00    +0.000 A 
ATOM     16  C   UNL     1       1.746   6.790  20.134  0.00  0.00    +0.000 A 
ATOM     17  C   UNL     1       2.166   7.338  18.812  0.00  0.00    +0.000 A 
ATOM     18  C   UNL     1       2.959   6.328  18.216  0.00  0.00    +0.000 A 
BRANCH  13  19
ATOM     19  O   UNL     1       4.195   4.083  18.259  0.00  0.00    +0.000 OA
BRANCH  19  21
ATOM     20  C   UNL     1       3.419   1.808  18.082  0.00  0.00    +0.000 C 
ATOM     21  C   UNL     1       3.413   3.196  17.477  0.00  0.00    +0.000 C 
ENDBRANCH  19  21
ENDBRANCH  13  19
ENDBRANCH  11  17
ENDBRANCH   1  11
BRANCH   4  22
ATOM     22  C   UNL     1      -0.283  10.599  21.609  0.00  0.00    +0.000 C 
ATOM     23  O   UNL     1      -0.029  11.182  22.657  0.00  0.00    +0.000 OA
BRANCH  22  24
ATOM     24  O   UNL     1       0.018   9.281  21.499  0.00  0.00    +0.000 OA
ATOM     25  H   UNL     1       0.854   8.939  21.890  0.00  0.00    +0.000 HD
ENDBRANCH  22  24
ENDBRANCH   4  22
BRANCH   7  26
ATOM     26  O   UNL     1       0.599  15.982  18.705  0.00  0.00    +0.000 OA
ATOM     27  C   UNL     1      -0.577  16.733  18.331  0.00  0.00    +0.000 C 
ENDBRANCH   7  26
BRANCH   8  28
ATOM     28  O   UNL     1       0.435  16.039  21.486  0.00  0.00    +0.000 OA
ATOM     29  C   UNL     1       0.664  17.335  22.065  0.00  0.00    +0.000 C 
ENDBRANCH   8  28
TORSDOF 8
ENDMDL
MODEL 8
REMARK VINA RESULT:      -7.0      3.125      7.232
REMARK  Name = 
REMARK  11 active torsions:
REMARK  status: ('A' for Active; 'I' for Inactive)
REMARK    1  A    between atoms: C_1  and  C_2
REMARK    2  A    between atoms: C_2  and  O_3
REMARK    3  A    between atoms: O_3  and  C_4
REMARK    4  A    between atoms: C_8  and  C_9
REMARK    5  A    between atoms: C_9  and  C_11
REMARK    6  A    between atoms: C_14  and  C_15
REMARK    7  A    between atoms: C_15  and  O_17
REMARK    8  A    between atoms: C_20  and  O_21
REMARK    9  A    between atoms: O_21  and  C_22
REMARK   10  A    between atoms: C_23  and  O_24
REMARK   11  A    between atoms: O_24  and  C_25
REMARK                            x       y       z     vdW  Elec       q    Type
REMARK                         _______ _______ _______ _____ _____    ______ ____
ROOT
ATOM      1  C   UNL     1       2.896   6.481  19.121  0.00  0.00    +0.000 A 
ATOM      2  N   UNL     1       3.018   5.490  20.055  0.00  0.00    +0.000 NA
ATOM      3  C   UNL     1       3.837   4.530  19.794  0.00  0.00    +0.000 A 
ATOM      4  C   UNL     1       3.876   4.135  18.518  0.00  0.00    +0.000 A 
ATOM      5  C   UNL     1       4.578   5.238  17.911  0.00  0.00    +0.000 A 
ATOM      6  C   UNL     1       6.000   5.760  17.948  0.00  0.00    +0.000 A 
ATOM      7  C   UNL     1       6.691   6.133  16.755  0.00  0.00    +0.000 A 
ATOM      8  C   UNL     1       6.066   5.662  15.711  0.00  0.00    +0.000 A 
ATOM      9  C   UNL     1       4.529   5.767  16.036  0.00  0.00    +0.000 A 
ATOM     10  C   UNL     1       3.745   6.112  17.546  0.00  0.00    +0.000 A 
ENDROOT
BRANCH   1  11
ATOM     11  C   UNL     1       1.623   7.116  20.244  0.00  0.00    +0.000 C 
ATOM     12  O   UNL     1       1.608   6.447  21.305  0.00  0.00    +0.000 OA
BRANCH  11  17
ATOM     13  C   UNL     1      -0.127  10.645  22.103  0.00  0.00    +0.000 A 
ATOM     14  C   UNL     1       0.114  11.731  21.267  0.00  0.00    +0.000 A 
ATOM     15  C   UNL     1       0.653  11.390  20.048  0.00  0.00    +0.000 A 
ATOM     16  C   UNL     1       1.055   9.972  19.749  0.00  0.00    +0.000 A 
ATOM     17  C   UNL     1       0.942   8.775  20.632  0.00  0.00    +0.000 A 
ATOM     18  C   UNL     1       0.242   9.216  21.781  0.00  0.00    +0.000 A 
BRANCH  13  19
ATOM     19  O   UNL     1      -0.826  11.035  23.238  0.00  0.00    +0.000 OA
BRANCH  19  21
ATOM     20  C   UNL     1      -2.964  12.133  23.413  0.00  0.00    +0.000 C 
ATOM     21  C   UNL     1      -1.498  12.270  23.060  0.00  0.00    +0.000 C 
ENDBRANCH  19  21
ENDBRANCH  13  19
ENDBRANCH  11  17
ENDBRANCH   1  11
BRANCH   4  22
ATOM     22  C   UNL     1       2.549   3.782  17.720  0.00  0.00    +0.000 C 
ATOM     23  O   UNL     1       2.594   3.300  16.594  0.00  0.00    +0.000 OA
BRANCH  22  24
ATOM     24  O   UNL     1       1.343   4.114  18.246  0.00  0.00    +0.000 OA
ATOM     25  H   UNL     1       1.219   4.099  19.222  0.00  0.00    +0.000 HD
ENDBRANCH  22  24
ENDBRANCH   4  22
BRANCH   7  26
ATOM     26  O   UNL     1       7.836   6.857  16.839  0.00  0.00    +0.000 OA
ATOM     27  C   UNL     1       7.860   8.054  17.648  0.00  0.00    +0.000 C 
ENDBRANCH   7  26
BRANCH   8  28
ATOM     28  O   UNL     1       6.971   5.183  14.787  0.00  0.00    +0.000 OA
ATOM     29  C   UNL     1       7.650   5.127  13.521  0.00  0.00    +0.000 C 
ENDBRANCH   8  28
TORSDOF 8
ENDMDL
MODEL 9
REMARK VINA RESULT:      -6.9      6.561     10.344
REMARK  Name = 
REMARK  11 active torsions:
REMARK  status: ('A' for Active; 'I' for Inactive)
REMARK    1  A    between atoms: C_1  and  C_2
REMARK    2  A    between atoms: C_2  and  O_3
REMARK    3  A    between atoms: O_3  and  C_4
REMARK    4  A    between atoms: C_8  and  C_9
REMARK    5  A    between atoms: C_9  and  C_11
REMARK    6  A    between atoms: C_14  and  C_15
REMARK    7  A    between atoms: C_15  and  O_17
REMARK    8  A    between atoms: C_20  and  O_21
REMARK    9  A    between atoms: O_21  and  C_22
REMARK   10  A    between atoms: C_23  and  O_24
REMARK   11  A    between atoms: O_24  and  C_25
REMARK                            x       y       z     vdW  Elec       q    Type
REMARK                         _______ _______ _______ _____ _____    ______ ____
ROOT
ATOM      1  C   UNL     1      -0.629  11.175  20.946  0.00  0.00    +0.000 A 
ATOM      2  N   UNL     1       0.428  11.726  20.277  0.00  0.00    +0.000 NA
ATOM      3  C   UNL     1       0.221  12.837  19.658  0.00  0.00    +0.000 A 
ATOM      4  C   UNL     1      -0.969  12.952  19.061  0.00  0.00    +0.000 A 
ATOM      5  C   UNL     1      -1.831  13.134  20.201  0.00  0.00    +0.000 A 
ATOM      6  C   UNL     1      -2.063  14.242  21.209  0.00  0.00    +0.000 A 
ATOM      7  C   UNL     1      -3.380  14.663  21.567  0.00  0.00    +0.000 A 
ATOM      8  C   UNL     1      -4.245  14.211  20.700  0.00  0.00    +0.000 A 
ATOM      9  C   UNL     1      -3.744  12.775  20.291  0.00  0.00    +0.000 A 
ATOM     10  C   UNL     1      -2.221  12.008  20.613  0.00  0.00    +0.000 A 
ENDROOT
BRANCH   1  11
ATOM     11  C   UNL     1       0.532   9.823  21.274  0.00  0.00    +0.000 C 
ATOM     12  O   UNL     1       0.245   9.258  22.357  0.00  0.00    +0.000 OA
BRANCH  11  17
ATOM     13  C   UNL     1       2.478   6.295  19.618  0.00  0.00    +0.000 A 
ATOM     14  C   UNL     1       2.680   6.518  18.259  0.00  0.00    +0.000 A 
ATOM     15  C   UNL     1       2.394   7.801  17.854  0.00  0.00    +0.000 A 
ATOM     16  C   UNL     1       1.788   8.796  18.805  0.00  0.00    +0.000 A 
ATOM     17  C   UNL     1       1.430   8.601  20.240  0.00  0.00    +0.000 A 
ATOM     18  C   UNL     1       1.908   7.312  20.579  0.00  0.00    +0.000 A 
BRANCH  13  19
ATOM     19  O   UNL     1       2.947   5.043  19.993  0.00  0.00    +0.000 OA
BRANCH  19  21
ATOM     20  C   UNL     1       1.011   3.671  20.414  0.00  0.00    +0.000 C 
ATOM     21  C   UNL     1       2.158   4.455  21.014  0.00  0.00    +0.000 C 
ENDBRANCH  19  21
ENDBRANCH  13  19
ENDBRANCH  11  17
ENDBRANCH   1  11
BRANCH   4  22
ATOM     22  C   UNL     1      -1.521  11.822  18.091  0.00  0.00    +0.000 C 
ATOM     23  O   UNL     1      -2.673  11.851  17.672  0.00  0.00    +0.000 OA
BRANCH  22  24
ATOM     24  O   UNL     1      -0.742  10.750  17.800  0.00  0.00    +0.000 OA
ATOM     25  H   UNL     1      -0.441  10.157  18.525  0.00  0.00    +0.000 HD
ENDBRANCH  22  24
ENDBRANCH   4  22
BRANCH   7  26
ATOM     26  O   UNL     1      -3.563  15.441  22.664  0.00  0.00    +0.000 OA
ATOM     27  C   UNL     1      -2.887  15.099  23.895  0.00  0.00    +0.000 C 
ENDBRANCH   7  26
BRANCH   8  28
ATOM     28  O   UNL     1      -5.189  15.176  20.418  0.00  0.00    +0.000 OA
ATOM     29  C   UNL     1      -5.662  16.488  20.072  0.00  0.00    +0.000 C 
ENDBRANCH   8  28
TORSDOF 8
ENDMDL
