MODEL 1
REMARK VINA RESULT:      -8.1      0.000      0.000
REMARK  Name = 
REMARK  8 active torsions:
REMARK  status: ('A' for Active; 'I' for Inactive)
REMARK    1  A    between atoms: C_1  and  C_2
REMARK    2  A    between atoms: C_5  and  C_6
REMARK    3  A    between atoms: C_7  and  C_8
REMARK    4  A    between atoms: C_8  and  C_9
REMARK    5  A    between atoms: C_9  and  C_10
REMARK    6  A    between atoms: C_17  and  C_18
REMARK    7  A    between atoms: C_18  and  C_19
REMARK    8  A    between atoms: C_19  and  C_20
REMARK                            x       y       z     vdW  Elec       q    Type
REMARK                         _______ _______ _______ _____ _____    ______ ____
ROOT
ATOM      1  C   UNL     1       3.815   6.455  18.226  0.00  0.00    +0.000 C 
ATOM      2  O   UNL     1       4.222   5.512  18.890  0.00  0.00    +0.000 OA
ATOM      3  N   UNL     1       2.727   7.261  18.574  0.00  0.00    +0.000 N 
ATOM      4  C   UNL     1       2.263   8.367  17.719  0.00  0.00    +0.000 C 
ATOM      5  C   UNL     1       1.896   9.593  18.547  0.00  0.00    +0.000 C 
ATOM      6  O   UNL     1       0.903   9.261  19.513  0.00  0.00    +0.000 OA
ATOM      7  C   UNL     1       1.389   8.249  20.407  0.00  0.00    +0.000 C 
ATOM      8  C   UNL     1       1.758   6.938  19.667  0.00  0.00    +0.000 C 
ENDROOT
BRANCH   1   9
ATOM      9  C   UNL     1       4.498   6.827  16.913  0.00  0.00    +0.000 C 
BRANCH   9  10
ATOM     10  C   UNL     1       5.976   7.133  17.087  0.00  0.00    +0.000 C 
BRANCH  10  17
ATOM     11  C   UNL     1       7.771   5.824  19.473  0.00  0.00    +0.000 C 
ATOM     12  C   UNL     1       7.592   5.332  18.086  0.00  0.00    +0.000 A 
ATOM     13  N   UNL     1       8.212   4.218  17.687  0.00  0.00    +0.000 NA
ATOM     14  O   UNL     1       7.847   4.034  16.369  0.00  0.00    +0.000 OA
ATOM     15  C   UNL     1       7.006   5.030  15.985  0.00  0.00    +0.000 A 
ATOM     16  C   UNL     1       6.524   4.962  14.591  0.00  0.00    +0.000 C 
ATOM     17  C   UNL     1       6.809   5.896  17.041  0.00  0.00    +0.000 A 
ENDBRANCH  10  17
ENDBRANCH   9  10
ENDBRANCH   1   9
BRANCH   8  18
ATOM     18  C   UNL     1       2.167   5.851  20.679  0.00  0.00    +0.000 C 
BRANCH  18  19
ATOM     19  C   UNL     1       1.310   4.581  20.586  0.00  0.00    +0.000 C 
BRANCH  19  20
ATOM     20  C   UNL     1       1.952   3.562  19.693  0.00  0.00    +0.000 A 
ATOM     21  C   UNL     1       1.499   3.332  18.400  0.00  0.00    +0.000 A 
ATOM     22  N   UNL     1       2.078   2.435  17.570  0.00  0.00    +0.000 NA
ATOM     23  C   UNL     1       3.140   1.778  18.086  0.00  0.00    +0.000 A 
ATOM     24  C   UNL     1       3.599   2.000  19.371  0.00  0.00    +0.000 A 
ATOM     25  N   UNL     1       3.018   2.893  20.201  0.00  0.00    +0.000 NA
ENDBRANCH  19  20
ENDBRANCH  18  19
ENDBRANCH   8  18
TORSDOF 6
ENDMDL
MODEL 2
REMARK VINA RESULT:      -7.9      2.144      5.136
REMARK  Name = 
REMARK  8 active torsions:
REMARK  status: ('A' for Active; 'I' for Inactive)
REMARK    1  A    between atoms: C_1  and  C_2
REMARK    2  A    between atoms: C_5  and  C_6
REMARK    3  A    between atoms: C_7  and  C_8
REMARK    4  A    between atoms: C_8  and  C_9
REMARK    5  A    between atoms: C_9  and  C_10
REMARK    6  A    between atoms: C_17  and  C_18
REMARK    7  A    between atoms: C_18  and  C_19
REMARK    8  A    between atoms: C_19  and  C_20
REMARK                            x       y       z     vdW  Elec       q    Type
REMARK                         _______ _______ _______ _____ _____    ______ ____
ROOT
ATOM      1  C   UNL     1       3.340   4.963  17.693  0.00  0.00    +0.000 C 
ATOM      2  O   UNL     1       3.486   6.169  17.550  0.00  0.00    +0.000 OA
ATOM      3  N   UNL     1       2.710   4.364  18.789  0.00  0.00    +0.000 N 
ATOM      4  C   UNL     1       2.589   2.902  18.922  0.00  0.00    +0.000 C 
ATOM      5  C   UNL     1       1.212   2.505  19.443  0.00  0.00    +0.000 C 
ATOM      6  O   UNL     1       0.950   3.142  20.690  0.00  0.00    +0.000 OA
ATOM      7  C   UNL     1       0.974   4.569  20.541  0.00  0.00    +0.000 C 
ATOM      8  C   UNL     1       2.350   5.086  20.048  0.00  0.00    +0.000 C 
ENDROOT
BRANCH   1   9
ATOM      9  C   UNL     1       3.864   3.991  16.641  0.00  0.00    +0.000 C 
BRANCH   9  10
ATOM     10  C   UNL     1       5.312   3.595  16.877  0.00  0.00    +0.000 C 
BRANCH  10  17
ATOM     11  C   UNL     1       6.143   3.669  13.726  0.00  0.00    +0.000 C 
ATOM     12  C   UNL     1       6.620   4.549  14.819  0.00  0.00    +0.000 A 
ATOM     13  N   UNL     1       7.502   5.518  14.561  0.00  0.00    +0.000 NA
ATOM     14  O   UNL     1       7.738   6.145  15.767  0.00  0.00    +0.000 OA
ATOM     15  C   UNL     1       6.995   5.557  16.740  0.00  0.00    +0.000 A 
ATOM     16  C   UNL     1       7.140   6.130  18.094  0.00  0.00    +0.000 C 
ATOM     17  C   UNL     1       6.260   4.524  16.195  0.00  0.00    +0.000 A 
ENDBRANCH  10  17
ENDBRANCH   9  10
ENDBRANCH   1   9
BRANCH   8  18
ATOM     18  C   UNL     1       2.359   6.626  20.011  0.00  0.00    +0.000 C 
BRANCH  18  19
ATOM     19  C   UNL     1       1.368   7.263  20.996  0.00  0.00    +0.000 C 
BRANCH  19  20
ATOM     20  C   UNL     1       1.182   8.721  20.705  0.00  0.00    +0.000 A 
ATOM     21  C   UNL     1       0.961   9.647  21.716  0.00  0.00    +0.000 A 
ATOM     22  N   UNL     1       0.814  10.971  21.478  0.00  0.00    +0.000 NA
ATOM     23  C   UNL     1       0.904  11.334  20.180  0.00  0.00    +0.000 A 
ATOM     24  C   UNL     1       1.124  10.420  19.165  0.00  0.00    +0.000 A 
ATOM     25  N   UNL     1       1.267   9.098  19.403  0.00  0.00    +0.000 NA
ENDBRANCH  19  20
ENDBRANCH  18  19
ENDBRANCH   8  18
TORSDOF 6
ENDMDL
MODEL 3
REMARK VINA RESULT:      -7.8      2.135      6.845
REMARK  Name = 
REMARK  8 active torsions:
REMARK  status: ('A' for Active; 'I' for Inactive)
REMARK    1  A    between atoms: C_1  and  C_2
REMARK    2  A    between atoms: C_5  and  C_6
REMARK    3  A    between atoms: C_7  and  C_8
REMARK    4  A    between atoms: C_8  and  C_9
REMARK    5  A    between atoms: C_9  and  C_10
REMARK    6  A    between atoms: C_17  and  C_18
REMARK    7  A    between atoms: C_18  and  C_19
REMARK    8  A    between atoms: C_19  and  C_20
REMARK                            x       y       z     vdW  Elec       q    Type
REMARK                         _______ _______ _______ _____ _____    ______ ____
ROOT
ATOM      1  C   UNL     1       2.239   6.007  19.509  0.00  0.00    +0.000 C 
ATOM      2  O   UNL     1       3.031   6.659  18.842  0.00  0.00    +0.000 OA
ATOM      3  N   UNL     1       1.969   4.648  19.318  0.00  0.00    +0.000 N 
ATOM      4  C   UNL     1       0.982   3.921  20.134  0.00  0.00    +0.000 C 
ATOM      5  C   UNL     1       1.489   2.534  20.512  0.00  0.00    +0.000 C 
ATOM      6  O   UNL     1       1.814   1.788  19.343  0.00  0.00    +0.000 OA
ATOM      7  C   UNL     1       2.845   2.448  18.595  0.00  0.00    +0.000 C 
ATOM      8  C   UNL     1       2.416   3.863  18.126  0.00  0.00    +0.000 C 
ENDROOT
BRANCH   1   9
ATOM      9  C   UNL     1       1.456   6.666  20.640  0.00  0.00    +0.000 C 
BRANCH   9  10
ATOM     10  C   UNL     1       1.925   8.082  20.930  0.00  0.00    +0.000 C 
BRANCH  10  17
ATOM     11  C   UNL     1       1.219   9.471  18.067  0.00  0.00    +0.000 C 
ATOM     12  C   UNL     1       0.566   9.694  19.378  0.00  0.00    +0.000 A 
ATOM     13  N   UNL     1      -0.447  10.558  19.482  0.00  0.00    +0.000 NA
ATOM     14  O   UNL     1      -0.826  10.538  20.809  0.00  0.00    +0.000 OA
ATOM     15  C   UNL     1      -0.048   9.659  21.493  0.00  0.00    +0.000 A 
ATOM     16  C   UNL     1      -0.344   9.525  22.933  0.00  0.00    +0.000 C 
ATOM     17  C   UNL     1       0.867   9.090  20.631  0.00  0.00    +0.000 A 
ENDBRANCH  10  17
ENDBRANCH   9  10
ENDBRANCH   1   9
BRANCH   8  18
ATOM     18  C   UNL     1       3.511   4.484  17.236  0.00  0.00    +0.000 C 
BRANCH  18  19
ATOM     19  C   UNL     1       4.888   3.832  17.423  0.00  0.00    +0.000 C 
BRANCH  19  20
ATOM     20  C   UNL     1       5.938   4.863  17.705  0.00  0.00    +0.000 A 
ATOM     21  C   UNL     1       6.265   5.847  16.781  0.00  0.00    +0.000 A 
ATOM     22  N   UNL     1       7.192   6.802  17.024  0.00  0.00    +0.000 NA
ATOM     23  C   UNL     1       7.779   6.735  18.240  0.00  0.00    +0.000 A 
ATOM     24  C   UNL     1       7.460   5.760  19.167  0.00  0.00    +0.000 A 
ATOM     25  N   UNL     1       6.537   4.805  18.922  0.00  0.00    +0.000 NA
ENDBRANCH  19  20
ENDBRANCH  18  19
ENDBRANCH   8  18
TORSDOF 6
ENDMDL
MODEL 4
REMARK VINA RESULT:      -7.8      2.180      6.701
REMARK  Name = 
REMARK  8 active torsions:
REMARK  status: ('A' for Active; 'I' for Inactive)
REMARK    1  A    between atoms: C_1  and  C_2
REMARK    2  A    between atoms: C_5  and  C_6
REMARK    3  A    between atoms: C_7  and  C_8
REMARK    4  A    between atoms: C_8  and  C_9
REMARK    5  A    between atoms: C_9  and  C_10
REMARK    6  A    between atoms: C_17  and  C_18
REMARK    7  A    between atoms: C_18  and  C_19
REMARK    8  A    between atoms: C_19  and  C_20
REMARK                            x       y       z     vdW  Elec       q    Type
REMARK                         _______ _______ _______ _____ _____    ______ ____
ROOT
ATOM      1  C   UNL     1       2.240   6.043  19.552  0.00  0.00    +0.000 C 
ATOM      2  O   UNL     1       3.050   6.705  18.916  0.00  0.00    +0.000 OA
ATOM      3  N   UNL     1       1.983   4.685  19.340  0.00  0.00    +0.000 N 
ATOM      4  C   UNL     1       0.974   3.946  20.118  0.00  0.00    +0.000 C 
ATOM      5  C   UNL     1       1.475   2.558  20.500  0.00  0.00    +0.000 C 
ATOM      6  O   UNL     1       1.840   1.824  19.335  0.00  0.00    +0.000 OA
ATOM      7  C   UNL     1       2.891   2.496  18.626  0.00  0.00    +0.000 C 
ATOM      8  C   UNL     1       2.471   3.913  18.156  0.00  0.00    +0.000 C 
ENDROOT
BRANCH   1   9
ATOM      9  C   UNL     1       1.419   6.689  20.663  0.00  0.00    +0.000 C 
BRANCH   9  10
ATOM     10  C   UNL     1       1.896   8.090  21.007  0.00  0.00    +0.000 C 
BRANCH  10  17
ATOM     11  C   UNL     1      -0.274   9.576  22.933  0.00  0.00    +0.000 C 
ATOM     12  C   UNL     1      -0.056   9.769  21.480  0.00  0.00    +0.000 A 
ATOM     13  N   UNL     1      -0.804  10.645  20.803  0.00  0.00    +0.000 NA
ATOM     14  O   UNL     1      -0.362  10.589  19.497  0.00  0.00    +0.000 OA
ATOM     15  C   UNL     1       0.651   9.689  19.397  0.00  0.00    +0.000 A 
ATOM     16  C   UNL     1       1.232   9.525  18.049  0.00  0.00    +0.000 C 
ATOM     17  C   UNL     1       0.889   9.126  20.634  0.00  0.00    +0.000 A 
ENDBRANCH  10  17
ENDBRANCH   9  10
ENDBRANCH   1   9
BRANCH   8  18
ATOM     18  C   UNL     1       3.590   4.547  17.306  0.00  0.00    +0.000 C 
BRANCH  18  19
ATOM     19  C   UNL     1       4.973   3.937  17.572  0.00  0.00    +0.000 C 
BRANCH  19  20
ATOM     20  C   UNL     1       6.005   5.006  17.769  0.00  0.00    +0.000 A 
ATOM     21  C   UNL     1       6.143   6.063  16.878  0.00  0.00    +0.000 A 
ATOM     22  N   UNL     1       7.051   7.051  17.049  0.00  0.00    +0.000 NA
ATOM     23  C   UNL     1       7.815   6.942  18.158  0.00  0.00    +0.000 A 
ATOM     24  C   UNL     1       7.685   5.895  19.051  0.00  0.00    +0.000 A 
ATOM     25  N   UNL     1       6.781   4.906  18.878  0.00  0.00    +0.000 NA
ENDBRANCH  19  20
ENDBRANCH  18  19
ENDBRANCH   8  18
TORSDOF 6
ENDMDL
MODEL 5
REMARK VINA RESULT:      -7.8      2.098      4.906
REMARK  Name = 
REMARK  8 active torsions:
REMARK  status: ('A' for Active; 'I' for Inactive)
REMARK    1  A    between atoms: C_1  and  C_2
REMARK    2  A    between atoms: C_5  and  C_6
REMARK    3  A    between atoms: C_7  and  C_8
REMARK    4  A    between atoms: C_8  and  C_9
REMARK    5  A    between atoms: C_9  and  C_10
REMARK    6  A    between atoms: C_17  and  C_18
REMARK    7  A    between atoms: C_18  and  C_19
REMARK    8  A    between atoms: C_19  and  C_20
REMARK                            x       y       z     vdW  Elec       q    Type
REMARK                         _______ _______ _______ _____ _____    ______ ____
ROOT
ATOM      1  C   UNL     1       3.306   4.853  17.712  0.00  0.00    +0.000 C 
ATOM      2  O   UNL     1       3.376   6.054  17.488  0.00  0.00    +0.000 OA
ATOM      3  N   UNL     1       2.729   4.291  18.855  0.00  0.00    +0.000 N 
ATOM      4  C   UNL     1       2.699   2.836  19.085  0.00  0.00    +0.000 C 
ATOM      5  C   UNL     1       1.357   2.392  19.654  0.00  0.00    +0.000 C 
ATOM      6  O   UNL     1       1.073   3.093  20.862  0.00  0.00    +0.000 OA
ATOM      7  C   UNL     1       1.008   4.506  20.621  0.00  0.00    +0.000 C 
ATOM      8  C   UNL     1       2.343   5.071  20.070  0.00  0.00    +0.000 C 
ENDROOT
BRANCH   1   9
ATOM      9  C   UNL     1       3.874   3.847  16.716  0.00  0.00    +0.000 C 
BRANCH   9  10
ATOM     10  C   UNL     1       5.336   3.523  16.978  0.00  0.00    +0.000 C 
BRANCH  10  17
ATOM     11  C   UNL     1       7.014   5.934  18.393  0.00  0.00    +0.000 C 
ATOM     12  C   UNL     1       6.975   5.565  16.958  0.00  0.00    +0.000 A 
ATOM     13  N   UNL     1       7.692   6.259  16.069  0.00  0.00    +0.000 NA
ATOM     14  O   UNL     1       7.442   5.675  14.844  0.00  0.00    +0.000 OA
ATOM     15  C   UNL     1       6.587   4.631  15.002  0.00  0.00    +0.000 A 
ATOM     16  C   UNL     1       6.231   3.901  13.768  0.00  0.00    +0.000 C 
ATOM     17  C   UNL     1       6.248   4.513  16.334  0.00  0.00    +0.000 A 
ENDBRANCH  10  17
ENDBRANCH   9  10
ENDBRANCH   1   9
BRANCH   8  18
ATOM     18  C   UNL     1       2.257   6.603  19.934  0.00  0.00    +0.000 C 
BRANCH  18  19
ATOM     19  C   UNL     1       1.420   7.265  21.037  0.00  0.00    +0.000 C 
BRANCH  19  20
ATOM     20  C   UNL     1       1.193   8.717  20.743  0.00  0.00    +0.000 A 
ATOM     21  C   UNL     1       0.982   9.645  21.755  0.00  0.00    +0.000 A 
ATOM     22  N   UNL     1       0.798  10.963  21.513  0.00  0.00    +0.000 NA
ATOM     23  C   UNL     1       0.843  11.319  20.211  0.00  0.00    +0.000 A 
ATOM     24  C   UNL     1       1.053  10.404  19.196  0.00  0.00    +0.000 A 
ATOM     25  N   UNL     1       1.232   9.087  19.437  0.00  0.00    +0.000 NA
ENDBRANCH  19  20
ENDBRANCH  18  19
ENDBRANCH   8  18
TORSDOF 6
ENDMDL
MODEL 6
REMARK VINA RESULT:      -7.7      2.238      6.656
REMARK  Name = 
REMARK  8 active torsions:
REMARK  status: ('A' for Active; 'I' for Inactive)
REMARK    1  A    between atoms: C_1  and  C_2
REMARK    2  A    between atoms: C_5  and  C_6
REMARK    3  A    between atoms: C_7  and  C_8
REMARK    4  A    between atoms: C_8  and  C_9
REMARK    5  A    between atoms: C_9  and  C_10
REMARK    6  A    between atoms: C_17  and  C_18
REMARK    7  A    between atoms: C_18  and  C_19
REMARK    8  A    between atoms: C_19  and  C_20
REMARK                            x       y       z     vdW  Elec       q    Type
REMARK                         _______ _______ _______ _____ _____    ______ ____
ROOT
ATOM      1  C   UNL     1       2.061   6.014  19.574  0.00  0.00    +0.000 C 
ATOM      2  O   UNL     1       2.764   6.660  18.808  0.00  0.00    +0.000 OA
ATOM      3  N   UNL     1       1.819   4.642  19.463  0.00  0.00    +0.000 N 
ATOM      4  C   UNL     1       0.939   3.921  20.400  0.00  0.00    +0.000 C 
ATOM      5  C   UNL     1       1.525   2.567  20.781  0.00  0.00    +0.000 C 
ATOM      6  O   UNL     1       1.760   1.782  19.615  0.00  0.00    +0.000 OA
ATOM      7  C   UNL     1       2.692   2.440  18.744  0.00  0.00    +0.000 C 
ATOM      8  C   UNL     1       2.174   3.821  18.265  0.00  0.00    +0.000 C 
ENDROOT
BRANCH   1   9
ATOM      9  C   UNL     1       1.370   6.698  20.750  0.00  0.00    +0.000 C 
BRANCH   9  10
ATOM     10  C   UNL     1       1.908   8.094  21.015  0.00  0.00    +0.000 C 
BRANCH  10  17
ATOM     11  C   UNL     1      -0.161   9.556  23.068  0.00  0.00    +0.000 C 
ATOM     12  C   UNL     1      -0.006   9.778  21.611  0.00  0.00    +0.000 A 
ATOM     13  N   UNL     1      -0.775  10.676  20.986  0.00  0.00    +0.000 NA
ATOM     14  O   UNL     1      -0.391  10.644  19.661  0.00  0.00    +0.000 OA
ATOM     15  C   UNL     1       0.608   9.738  19.497  0.00  0.00    +0.000 A 
ATOM     16  C   UNL     1       1.128   9.598  18.121  0.00  0.00    +0.000 C 
ATOM     17  C   UNL     1       0.896   9.147  20.710  0.00  0.00    +0.000 A 
ENDBRANCH  10  17
ENDBRANCH   9  10
ENDBRANCH   1   9
BRANCH   8  18
ATOM     18  C   UNL     1       3.156   4.435  17.248  0.00  0.00    +0.000 C 
BRANCH  18  19
ATOM     19  C   UNL     1       4.506   3.707  17.193  0.00  0.00    +0.000 C 
BRANCH  19  20
ATOM     20  C   UNL     1       5.597   4.548  17.784  0.00  0.00    +0.000 A 
ATOM     21  C   UNL     1       5.777   4.653  19.157  0.00  0.00    +0.000 A 
ATOM     22  N   UNL     1       6.769   5.388  19.711  0.00  0.00    +0.000 NA
ATOM     23  C   UNL     1       7.582   6.010  18.830  0.00  0.00    +0.000 A 
ATOM     24  C   UNL     1       7.412   5.912  17.462  0.00  0.00    +0.000 A 
ATOM     25  N   UNL     1       6.419   5.182  16.909  0.00  0.00    +0.000 NA
ENDBRANCH  19  20
ENDBRANCH  18  19
ENDBRANCH   8  18
TORSDOF 6
ENDMDL
MODEL 7
REMARK VINA RESULT:      -7.7      0.713      1.897
REMARK  Name = 
REMARK  8 active torsions:
REMARK  status: ('A' for Active; 'I' for Inactive)
REMARK    1  A    between atoms: C_1  and  C_2
REMARK    2  A    between atoms: C_5  and  C_6
REMARK    3  A    between atoms: C_7  and  C_8
REMARK    4  A    between atoms: C_8  and  C_9
REMARK    5  A    between atoms: C_9  and  C_10
REMARK    6  A    between atoms: C_17  and  C_18
REMARK    7  A    between atoms: C_18  and  C_19
REMARK    8  A    between atoms: C_19  and  C_20
REMARK                            x       y       z     vdW  Elec       q    Type
REMARK                         _______ _______ _______ _____ _____    ______ ____
ROOT
ATOM      1  C   UNL     1       3.804   6.425  18.320  0.00  0.00    +0.000 C 
ATOM      2  O   UNL     1       4.280   5.491  18.951  0.00  0.00    +0.000 OA
ATOM      3  N   UNL     1       2.702   7.182  18.731  0.00  0.00    +0.000 N 
ATOM      4  C   UNL     1       2.155   8.279  17.915  0.00  0.00    +0.000 C 
ATOM      5  C   UNL     1       1.780   9.478  18.777  0.00  0.00    +0.000 C 
ATOM      6  O   UNL     1       0.847   9.094  19.784  0.00  0.00    +0.000 OA
ATOM      7  C   UNL     1       1.415   8.092  20.640  0.00  0.00    +0.000 C 
ATOM      8  C   UNL     1       1.801   6.806  19.863  0.00  0.00    +0.000 C 
ENDROOT
BRANCH   1   9
ATOM      9  C   UNL     1       4.408   6.840  16.982  0.00  0.00    +0.000 C 
BRANCH   9  10
ATOM     10  C   UNL     1       5.888   7.169  17.083  0.00  0.00    +0.000 C 
BRANCH  10  17
ATOM     11  C   UNL     1       6.234   5.109  14.580  0.00  0.00    +0.000 C 
ATOM     12  C   UNL     1       6.880   5.047  15.913  0.00  0.00    +0.000 A 
ATOM     13  N   UNL     1       7.724   4.052  16.201  0.00  0.00    +0.000 NA
ATOM     14  O   UNL     1       8.145   4.278  17.496  0.00  0.00    +0.000 OA
ATOM     15  C   UNL     1       7.562   5.408  17.975  0.00  0.00    +0.000 A 
ATOM     16  C   UNL     1       7.925   5.782  19.357  0.00  0.00    +0.000 C 
ATOM     17  C   UNL     1       6.736   5.943  17.008  0.00  0.00    +0.000 A 
ENDBRANCH  10  17
ENDBRANCH   9  10
ENDBRANCH   1   9
BRANCH   8  18
ATOM     18  C   UNL     1       2.301   5.723  20.840  0.00  0.00    +0.000 C 
BRANCH  18  19
ATOM     19  C   UNL     1       1.512   4.410  20.745  0.00  0.00    +0.000 C 
BRANCH  19  20
ATOM     20  C   UNL     1       2.205   3.429  19.849  0.00  0.00    +0.000 A 
ATOM     21  C   UNL     1       3.301   2.693  20.278  0.00  0.00    +0.000 A 
ATOM     22  N   UNL     1       3.927   1.785  19.494  0.00  0.00    +0.000 NA
ATOM     23  C   UNL     1       3.403   1.638  18.257  0.00  0.00    +0.000 A 
ATOM     24  C   UNL     1       2.312   2.365  17.820  0.00  0.00    +0.000 A 
ATOM     25  N   UNL     1       1.690   3.275  18.602  0.00  0.00    +0.000 NA
ENDBRANCH  19  20
ENDBRANCH  18  19
ENDBRANCH   8  18
TORSDOF 6
ENDMDL
MODEL 8
REMARK VINA RESULT:      -7.5      1.980      5.000
REMARK  Name = 
REMARK  8 active torsions:
REMARK  status: ('A' for Active; 'I' for Inactive)
REMARK    1  A    between atoms: C_1  and  C_2
REMARK    2  A    between atoms: C_5  and  C_6
REMARK    3  A    between atoms: C_7  and  C_8
REMARK    4  A    between atoms: C_8  and  C_9
REMARK    5  A    between atoms: C_9  and  C_10
REMARK    6  A    between atoms: C_17  and  C_18
REMARK    7  A    between atoms: C_18  and  C_19
REMARK    8  A    between atoms: C_19  and  C_20
REMARK                            x       y       z     vdW  Elec       q    Type
REMARK                         _______ _______ _______ _____ _____    ______ ____
ROOT
ATOM      1  C   UNL     1       3.358   4.401  18.140  0.00  0.00    +0.000 C 
ATOM      2  O   UNL     1       2.637   5.282  17.691  0.00  0.00    +0.000 OA
ATOM      3  N   UNL     1       3.336   3.955  19.466  0.00  0.00    +0.000 N 
ATOM      4  C   UNL     1       4.249   2.910  19.958  0.00  0.00    +0.000 C 
ATOM      5  C   UNL     1       3.529   1.934  20.882  0.00  0.00    +0.000 C 
ATOM      6  O   UNL     1       2.935   2.631  21.974  0.00  0.00    +0.000 OA
ATOM      7  C   UNL     1       1.974   3.585  21.499  0.00  0.00    +0.000 C 
ATOM      8  C   UNL     1       2.613   4.653  20.573  0.00  0.00    +0.000 C 
ENDROOT
BRANCH   1   9
ATOM      9  C   UNL     1       4.377   3.705  17.244  0.00  0.00    +0.000 C 
BRANCH   9  10
ATOM     10  C   UNL     1       4.423   4.292  15.843  0.00  0.00    +0.000 C 
BRANCH  10  17
ATOM     11  C   UNL     1       6.292   3.745  13.228  0.00  0.00    +0.000 C 
ATOM     12  C   UNL     1       6.572   4.627  14.385  0.00  0.00    +0.000 A 
ATOM     13  N   UNL     1       7.714   5.320  14.437  0.00  0.00    +0.000 NA
ATOM     14  O   UNL     1       7.670   6.031  15.619  0.00  0.00    +0.000 OA
ATOM     15  C   UNL     1       6.505   5.769  16.267  0.00  0.00    +0.000 A 
ATOM     16  C   UNL     1       6.315   6.469  17.554  0.00  0.00    +0.000 C 
ATOM     17  C   UNL     1       5.761   4.873  15.528  0.00  0.00    +0.000 A 
ENDBRANCH  10  17
ENDBRANCH   9  10
ENDBRANCH   1   9
BRANCH   8  18
ATOM     18  C   UNL     1       1.567   5.714  20.182  0.00  0.00    +0.000 C 
BRANCH  18  19
ATOM     19  C   UNL     1       1.736   7.040  20.936  0.00  0.00    +0.000 C 
BRANCH  19  20
ATOM     20  C   UNL     1       1.557   8.210  20.016  0.00  0.00    +0.000 A 
ATOM     21  C   UNL     1       2.143   8.248  18.758  0.00  0.00    +0.000 A 
ATOM     22  N   UNL     1       1.975   9.282  17.902  0.00  0.00    +0.000 NA
ATOM     23  C   UNL     1       1.185  10.280  18.357  0.00  0.00    +0.000 A 
ATOM     24  C   UNL     1       0.596  10.252  19.607  0.00  0.00    +0.000 A 
ATOM     25  N   UNL     1       0.768   9.221  20.463  0.00  0.00    +0.000 NA
ENDBRANCH  19  20
ENDBRANCH  18  19
ENDBRANCH   8  18
TORSDOF 6
ENDMDL
MODEL 9
REMARK VINA RESULT:      -7.5      2.230      6.933
REMARK  Name = 
REMARK  8 active torsions:
REMARK  status: ('A' for Active; 'I' for Inactive)
REMARK    1  A    between atoms: C_1  and  C_2
REMARK    2  A    between atoms: C_5  and  C_6
REMARK    3  A    between atoms: C_7  and  C_8
REMARK    4  A    between atoms: C_8  and  C_9
REMARK    5  A    between atoms: C_9  and  C_10
REMARK    6  A    between atoms: C_17  and  C_18
REMARK    7  A    between atoms: C_18  and  C_19
REMARK    8  A    between atoms: C_19  and  C_20
REMARK                            x       y       z     vdW  Elec       q    Type
REMARK                         _______ _______ _______ _____ _____    ______ ____
ROOT
ATOM      1  C   UNL     1       2.139   6.072  19.605  0.00  0.00    +0.000 C 
ATOM      2  O   UNL     1       2.866   6.722  18.866  0.00  0.00    +0.000 OA
ATOM      3  N   UNL     1       1.908   4.698  19.484  0.00  0.00    +0.000 N 
ATOM      4  C   UNL     1       0.998   3.973  20.387  0.00  0.00    +0.000 C 
ATOM      5  C   UNL     1       1.576   2.621  20.788  0.00  0.00    +0.000 C 
ATOM      6  O   UNL     1       1.858   1.838  19.632  0.00  0.00    +0.000 OA
ATOM      7  C   UNL     1       2.818   2.501  18.796  0.00  0.00    +0.000 C 
ATOM      8  C   UNL     1       2.311   3.881  18.299  0.00  0.00    +0.000 C 
ENDROOT
BRANCH   1   9
ATOM      9  C   UNL     1       1.402   6.751  20.755  0.00  0.00    +0.000 C 
BRANCH   9  10
ATOM     10  C   UNL     1       1.866   8.179  20.987  0.00  0.00    +0.000 C 
BRANCH  10  17
ATOM     11  C   UNL     1       1.192   9.502  18.085  0.00  0.00    +0.000 C 
ATOM     12  C   UNL     1       0.516   9.746  19.381  0.00  0.00    +0.000 A 
ATOM     13  N   UNL     1      -0.507  10.602  19.452  0.00  0.00    +0.000 NA
ATOM     14  O   UNL     1      -0.907  10.604  20.772  0.00  0.00    +0.000 OA
ATOM     15  C   UNL     1      -0.131   9.748  21.486  0.00  0.00    +0.000 A 
ATOM     16  C   UNL     1      -0.448   9.641  22.924  0.00  0.00    +0.000 C 
ATOM     17  C   UNL     1       0.803   9.170  20.651  0.00  0.00    +0.000 A 
ENDBRANCH  10  17
ENDBRANCH   9  10
ENDBRANCH   1   9
BRANCH   8  18
ATOM     18  C   UNL     1       3.327   4.500  17.320  0.00  0.00    +0.000 C 
BRANCH  18  19
ATOM     19  C   UNL     1       4.773   4.058  17.585  0.00  0.00    +0.000 C 
BRANCH  19  20
ATOM     20  C   UNL     1       5.657   4.382  16.419  0.00  0.00    +0.000 A 
ATOM     21  C   UNL     1       6.735   5.250  16.536  0.00  0.00    +0.000 A 
ATOM     22  N   UNL     1       7.560   5.539  15.503  0.00  0.00    +0.000 NA
ATOM     23  C   UNL     1       7.265   4.914  14.342  0.00  0.00    +0.000 A 
ATOM     24  C   UNL     1       6.195   4.048  14.214  0.00  0.00    +0.000 A 
ATOM     25  N   UNL     1       5.369   3.763  15.245  0.00  0.00    +0.000 NA
ENDBRANCH  19  20
ENDBRANCH  18  19
ENDBRANCH   8  18
TORSDOF 6
ENDMDL
