MODEL 1
REMARK VINA RESULT:      -8.0      0.000      0.000
REMARK  Name = 
REMARK  4 active torsions:
REMARK  status: ('A' for Active; 'I' for Inactive)
REMARK    1  A    between atoms: C_1  and  C_2
REMARK    2  A    between atoms: C_2  and  O_4
REMARK    3  A    between atoms: O_4  and  C_5
REMARK    4  A    between atoms: N_13  and  C_14
REMARK                            x       y       z     vdW  Elec       q    Type
REMARK                         _______ _______ _______ _____ _____    ______ ____
ROOT
ATOM      1  C   UNL     1       4.760   4.181  16.949  0.00  0.00    +0.000 A 
ATOM      2  C   UNL     1       4.380   3.268  17.925  0.00  0.00    +0.000 A 
ATOM      3  C   UNL     1       3.597   3.680  19.005  0.00  0.00    +0.000 A 
ATOM      4  C   UNL     1       3.178   5.021  19.060  0.00  0.00    +0.000 A 
ATOM      5  C   UNL     1       3.530   5.941  18.073  0.00  0.00    +0.000 A 
ATOM      6  C   UNL     1       4.332   5.511  16.991  0.00  0.00    +0.000 A 
ATOM      7  C   UNL     1       2.939   7.182  18.439  0.00  0.00    +0.000 A 
ATOM      8  C   UNL     1       2.255   7.019  19.645  0.00  0.00    +0.000 A 
ATOM      9  N   UNL     1       2.379   5.684  19.984  0.00  0.00    +0.000 N 
ATOM     10  C   UNL     1       1.765   4.973  21.085  0.00  0.00    +0.000 C 
ATOM     11  C   UNL     1       1.498   8.107  20.304  0.00  0.00    +0.000 A 
ATOM     12  C   UNL     1       1.200   8.122  21.674  0.00  0.00    +0.000 A 
ATOM     13  C   UNL     1       0.462   9.167  22.244  0.00  0.00    +0.000 A 
ATOM     14  C   UNL     1       0.043  10.240  21.466  0.00  0.00    +0.000 A 
ATOM     15  C   UNL     1       0.364  10.273  20.112  0.00  0.00    +0.000 A 
ATOM     16  C   UNL     1       1.091   9.224  19.528  0.00  0.00    +0.000 A 
ATOM     17  S   UNL     1       1.454   9.387  17.771  0.00  0.00    +0.000 S 
ATOM     18  C   UNL     1       3.028   8.473  17.703  0.00  0.00    +0.000 C 
ENDROOT
BRANCH   1  19
ATOM     19  O   UNL     1       5.526   3.809  15.824  0.00  0.00    +0.000 OA
BRANCH  19  21
ATOM     20  C   UNL     1       6.844   4.828  14.156  0.00  0.00    +0.000 C 
ATOM     21  C   UNL     1       6.768   4.400  15.591  0.00  0.00    +0.000 C 
ATOM     22  O   UNL     1       7.672   4.566  16.399  0.00  0.00    +0.000 OA
ENDBRANCH  19  21
ENDBRANCH   1  19
TORSDOF 2
ENDMDL
MODEL 2
REMARK VINA RESULT:      -7.8      0.964      1.138
REMARK  Name = 
REMARK  4 active torsions:
REMARK  status: ('A' for Active; 'I' for Inactive)
REMARK    1  A    between atoms: C_1  and  C_2
REMARK    2  A    between atoms: C_2  and  O_4
REMARK    3  A    between atoms: O_4  and  C_5
REMARK    4  A    between atoms: N_13  and  C_14
REMARK                            x       y       z     vdW  Elec       q    Type
REMARK                         _______ _______ _______ _____ _____    ______ ____
ROOT
ATOM      1  C   UNL     1       4.796   5.843  16.435  0.00  0.00    +0.000 A 
ATOM      2  C   UNL     1       4.673   4.757  17.292  0.00  0.00    +0.000 A 
ATOM      3  C   UNL     1       3.912   4.864  18.458  0.00  0.00    +0.000 A 
ATOM      4  C   UNL     1       3.253   6.078  18.721  0.00  0.00    +0.000 A 
ATOM      5  C   UNL     1       3.346   7.167  17.856  0.00  0.00    +0.000 A 
ATOM      6  C   UNL     1       4.128   7.045  16.685  0.00  0.00    +0.000 A 
ATOM      7  C   UNL     1       2.561   8.210  18.423  0.00  0.00    +0.000 A 
ATOM      8  C   UNL     1       2.017   7.762  19.627  0.00  0.00    +0.000 A 
ATOM      9  N   UNL     1       2.417   6.446  19.769  0.00  0.00    +0.000 N 
ATOM     10  C   UNL     1       2.036   5.494  20.790  0.00  0.00    +0.000 C 
ATOM     11  C   UNL     1       1.120   8.586  20.470  0.00  0.00    +0.000 A 
ATOM     12  C   UNL     1       0.933   8.367  21.842  0.00  0.00    +0.000 A 
ATOM     13  C   UNL     1       0.057   9.164  22.590  0.00  0.00    +0.000 A 
ATOM     14  C   UNL     1      -0.617  10.223  21.992  0.00  0.00    +0.000 A 
ATOM     15  C   UNL     1      -0.414  10.491  20.642  0.00  0.00    +0.000 A 
ATOM     16  C   UNL     1       0.450   9.690  19.880  0.00  0.00    +0.000 A 
ATOM     17  S   UNL     1       0.638  10.143  18.146  0.00  0.00    +0.000 S 
ATOM     18  C   UNL     1       2.347   9.576  17.871  0.00  0.00    +0.000 C 
ENDROOT
BRANCH   1  19
ATOM     19  O   UNL     1       5.529   5.776  15.231  0.00  0.00    +0.000 OA
BRANCH  19  21
ATOM     20  C   UNL     1       6.247   3.910  13.983  0.00  0.00    +0.000 C 
ATOM     21  C   UNL     1       6.575   4.863  15.093  0.00  0.00    +0.000 C 
ATOM     22  O   UNL     1       7.608   4.816  15.747  0.00  0.00    +0.000 OA
ENDBRANCH  19  21
ENDBRANCH   1  19
TORSDOF 2
ENDMDL
MODEL 3
REMARK VINA RESULT:      -7.1      3.167      4.952
REMARK  Name = 
REMARK  4 active torsions:
REMARK  status: ('A' for Active; 'I' for Inactive)
REMARK    1  A    between atoms: C_1  and  C_2
REMARK    2  A    between atoms: C_2  and  O_4
REMARK    3  A    between atoms: O_4  and  C_5
REMARK    4  A    between atoms: N_13  and  C_14
REMARK                            x       y       z     vdW  Elec       q    Type
REMARK                         _______ _______ _______ _____ _____    ______ ____
ROOT
ATOM      1  C   UNL     1       2.594   5.505  20.011  0.00  0.00    +0.000 A 
ATOM      2  C   UNL     1       3.173   6.037  18.867  0.00  0.00    +0.000 A 
ATOM      3  C   UNL     1       2.826   7.319  18.434  0.00  0.00    +0.000 A 
ATOM      4  C   UNL     1       1.910   8.062  19.199  0.00  0.00    +0.000 A 
ATOM      5  C   UNL     1       1.340   7.550  20.364  0.00  0.00    +0.000 A 
ATOM      6  C   UNL     1       1.695   6.247  20.783  0.00  0.00    +0.000 A 
ATOM      7  C   UNL     1       0.477   8.558  20.877  0.00  0.00    +0.000 A 
ATOM      8  C   UNL     1       0.508   9.658  20.019  0.00  0.00    +0.000 A 
ATOM      9  N   UNL     1       1.420   9.351  19.026  0.00  0.00    +0.000 N 
ATOM     10  C   UNL     1       1.901  10.194  17.952  0.00  0.00    +0.000 C 
ATOM     11  C   UNL     1      -0.255  10.903  20.265  0.00  0.00    +0.000 A 
ATOM     12  C   UNL     1      -0.605  11.808  19.254  0.00  0.00    +0.000 A 
ATOM     13  C   UNL     1      -1.312  12.982  19.543  0.00  0.00    +0.000 A 
ATOM     14  C   UNL     1      -1.720  13.255  20.844  0.00  0.00    +0.000 A 
ATOM     15  C   UNL     1      -1.426  12.351  21.861  0.00  0.00    +0.000 A 
ATOM     16  C   UNL     1      -0.706  11.179  21.583  0.00  0.00    +0.000 A 
ATOM     17  S   UNL     1      -0.396  10.084  22.979  0.00  0.00    +0.000 S 
ATOM     18  C   UNL     1      -0.360   8.486  22.106  0.00  0.00    +0.000 C 
ENDROOT
BRANCH   1  19
ATOM     19  O   UNL     1       2.932   4.227  20.505  0.00  0.00    +0.000 OA
BRANCH  19  21
ATOM     20  C   UNL     1       1.028   2.977  19.895  0.00  0.00    +0.000 C 
ATOM     21  C   UNL     1       1.942   3.384  21.012  0.00  0.00    +0.000 C 
ATOM     22  O   UNL     1       1.810   3.010  22.169  0.00  0.00    +0.000 OA
ENDBRANCH  19  21
ENDBRANCH   1  19
TORSDOF 2
ENDMDL
MODEL 4
REMARK VINA RESULT:      -6.9      3.672      4.875
REMARK  Name = 
REMARK  4 active torsions:
REMARK  status: ('A' for Active; 'I' for Inactive)
REMARK    1  A    between atoms: C_1  and  C_2
REMARK    2  A    between atoms: C_2  and  O_4
REMARK    3  A    between atoms: O_4  and  C_5
REMARK    4  A    between atoms: N_13  and  C_14
REMARK                            x       y       z     vdW  Elec       q    Type
REMARK                         _______ _______ _______ _____ _____    ______ ____
ROOT
ATOM      1  C   UNL     1       6.481   4.375  14.184  0.00  0.00    +0.000 A 
ATOM      2  C   UNL     1       7.369   5.100  14.968  0.00  0.00    +0.000 A 
ATOM      3  C   UNL     1       7.082   5.342  16.314  0.00  0.00    +0.000 A 
ATOM      4  C   UNL     1       5.899   4.808  16.855  0.00  0.00    +0.000 A 
ATOM      5  C   UNL     1       5.012   4.056  16.085  0.00  0.00    +0.000 A 
ATOM      6  C   UNL     1       5.313   3.829  14.723  0.00  0.00    +0.000 A 
ATOM      7  C   UNL     1       3.943   3.677  16.944  0.00  0.00    +0.000 A 
ATOM      8  C   UNL     1       4.170   4.212  18.212  0.00  0.00    +0.000 A 
ATOM      9  N   UNL     1       5.389   4.863  18.147  0.00  0.00    +0.000 N 
ATOM     10  C   UNL     1       6.133   5.491  19.218  0.00  0.00    +0.000 C 
ATOM     11  C   UNL     1       3.265   3.990  19.363  0.00  0.00    +0.000 A 
ATOM     12  C   UNL     1       3.205   4.841  20.475  0.00  0.00    +0.000 A 
ATOM     13  C   UNL     1       2.344   4.574  21.547  0.00  0.00    +0.000 A 
ATOM     14  C   UNL     1       1.494   3.474  21.510  0.00  0.00    +0.000 A 
ATOM     15  C   UNL     1       1.501   2.638  20.398  0.00  0.00    +0.000 A 
ATOM     16  C   UNL     1       2.370   2.889  19.326  0.00  0.00    +0.000 A 
ATOM     17  S   UNL     1       2.278   1.741  17.939  0.00  0.00    +0.000 S 
ATOM     18  C   UNL     1       2.746   2.867  16.586  0.00  0.00    +0.000 C 
ENDROOT
BRANCH   1  19
ATOM     19  O   UNL     1       6.739   4.079  12.828  0.00  0.00    +0.000 OA
BRANCH  19  21
ATOM     20  C   UNL     1       6.593   2.067  11.608  0.00  0.00    +0.000 C 
ATOM     21  C   UNL     1       5.858   3.277  12.102  0.00  0.00    +0.000 C 
ATOM     22  O   UNL     1       4.672   3.488  11.886  0.00  0.00    +0.000 OA
ENDBRANCH  19  21
ENDBRANCH   1  19
TORSDOF 2
ENDMDL
MODEL 5
REMARK VINA RESULT:      -6.7      2.448      4.142
REMARK  Name = 
REMARK  4 active torsions:
REMARK  status: ('A' for Active; 'I' for Inactive)
REMARK    1  A    between atoms: C_1  and  C_2
REMARK    2  A    between atoms: C_2  and  O_4
REMARK    3  A    between atoms: O_4  and  C_5
REMARK    4  A    between atoms: N_13  and  C_14
REMARK                            x       y       z     vdW  Elec       q    Type
REMARK                         _______ _______ _______ _____ _____    ______ ____
ROOT
ATOM      1  C   UNL     1       2.893   5.642  19.376  0.00  0.00    +0.000 A 
ATOM      2  C   UNL     1       3.376   6.339  18.276  0.00  0.00    +0.000 A 
ATOM      3  C   UNL     1       2.953   7.648  18.032  0.00  0.00    +0.000 A 
ATOM      4  C   UNL     1       2.061   8.246  18.939  0.00  0.00    +0.000 A 
ATOM      5  C   UNL     1       1.588   7.567  20.061  0.00  0.00    +0.000 A 
ATOM      6  C   UNL     1       2.019   6.240  20.288  0.00  0.00    +0.000 A 
ATOM      7  C   UNL     1       0.723   8.462  20.749  0.00  0.00    +0.000 A 
ATOM      8  C   UNL     1       0.656   9.661  20.038  0.00  0.00    +0.000 A 
ATOM      9  N   UNL     1       1.511   9.523  18.961  0.00  0.00    +0.000 N 
ATOM     10  C   UNL     1       1.889  10.515  17.977  0.00  0.00    +0.000 C 
ATOM     11  C   UNL     1      -0.137  10.829  20.487  0.00  0.00    +0.000 A 
ATOM     12  C   UNL     1      -0.587  11.836  19.622  0.00  0.00    +0.000 A 
ATOM     13  C   UNL     1      -1.317  12.931  20.101  0.00  0.00    +0.000 A 
ATOM     14  C   UNL     1      -1.650  13.020  21.448  0.00  0.00    +0.000 A 
ATOM     15  C   UNL     1      -1.255  12.011  22.321  0.00  0.00    +0.000 A 
ATOM     16  C   UNL     1      -0.511  10.917  21.853  0.00  0.00    +0.000 A 
ATOM     17  S   UNL     1      -0.068   9.671  23.078  0.00  0.00    +0.000 S 
ATOM     18  C   UNL     1      -0.029   8.198  22.006  0.00  0.00    +0.000 C 
ENDROOT
BRANCH   1  19
ATOM     19  O   UNL     1       3.311   4.329  19.681  0.00  0.00    +0.000 OA
BRANCH  19  21
ATOM     20  C   UNL     1       3.903   2.898  17.904  0.00  0.00    +0.000 C 
ATOM     21  C   UNL     1       4.403   3.766  19.020  0.00  0.00    +0.000 C 
ATOM     22  O   UNL     1       5.588   3.932  19.275  0.00  0.00    +0.000 OA
ENDBRANCH  19  21
ENDBRANCH   1  19
TORSDOF 2
ENDMDL
MODEL 6
REMARK VINA RESULT:      -6.7      4.174      7.968
REMARK  Name = 
REMARK  4 active torsions:
REMARK  status: ('A' for Active; 'I' for Inactive)
REMARK    1  A    between atoms: C_1  and  C_2
REMARK    2  A    between atoms: C_2  and  O_4
REMARK    3  A    between atoms: O_4  and  C_5
REMARK    4  A    between atoms: N_13  and  C_14
REMARK                            x       y       z     vdW  Elec       q    Type
REMARK                         _______ _______ _______ _____ _____    ______ ____
ROOT
ATOM      1  C   UNL     1      -0.223  10.146  21.852  0.00  0.00    +0.000 A 
ATOM      2  C   UNL     1       0.001  11.014  20.791  0.00  0.00    +0.000 A 
ATOM      3  C   UNL     1       0.754  10.600  19.691  0.00  0.00    +0.000 A 
ATOM      4  C   UNL     1       1.246   9.283  19.670  0.00  0.00    +0.000 A 
ATOM      5  C   UNL     1       1.007   8.393  20.716  0.00  0.00    +0.000 A 
ATOM      6  C   UNL     1       0.250   8.831  21.827  0.00  0.00    +0.000 A 
ATOM      7  C   UNL     1       1.637   7.167  20.364  0.00  0.00    +0.000 A 
ATOM      8  C   UNL     1       2.269   7.321  19.130  0.00  0.00    +0.000 A 
ATOM      9  N   UNL     1       1.983   8.606  18.705  0.00  0.00    +0.000 N 
ATOM     10  C   UNL     1       2.308   9.230  17.440  0.00  0.00    +0.000 C 
ATOM     11  C   UNL     1       3.001   6.229  18.448  0.00  0.00    +0.000 A 
ATOM     12  C   UNL     1       3.993   6.449  17.484  0.00  0.00    +0.000 A 
ATOM     13  C   UNL     1       4.643   5.379  16.855  0.00  0.00    +0.000 A 
ATOM     14  C   UNL     1       4.343   4.068  17.208  0.00  0.00    +0.000 A 
ATOM     15  C   UNL     1       3.394   3.822  18.195  0.00  0.00    +0.000 A 
ATOM     16  C   UNL     1       2.729   4.887  18.821  0.00  0.00    +0.000 A 
ATOM     17  S   UNL     1       1.529   4.442  20.091  0.00  0.00    +0.000 S 
ATOM     18  C   UNL     1       1.666   5.910  21.161  0.00  0.00    +0.000 C 
ENDROOT
BRANCH   1  19
ATOM     19  O   UNL     1      -1.001  10.507  22.973  0.00  0.00    +0.000 OA
BRANCH  19  21
ATOM     20  C   UNL     1      -2.822  11.973  23.276  0.00  0.00    +0.000 C 
ATOM     21  C   UNL     1      -1.330  11.843  23.201  0.00  0.00    +0.000 C 
ATOM     22  O   UNL     1      -0.558  12.783  23.329  0.00  0.00    +0.000 OA
ENDBRANCH  19  21
ENDBRANCH   1  19
TORSDOF 2
ENDMDL
MODEL 7
REMARK VINA RESULT:      -6.6      2.547      4.568
REMARK  Name = 
REMARK  4 active torsions:
REMARK  status: ('A' for Active; 'I' for Inactive)
REMARK    1  A    between atoms: C_1  and  C_2
REMARK    2  A    between atoms: C_2  and  O_4
REMARK    3  A    between atoms: O_4  and  C_5
REMARK    4  A    between atoms: N_13  and  C_14
REMARK                            x       y       z     vdW  Elec       q    Type
REMARK                         _______ _______ _______ _____ _____    ______ ____
ROOT
ATOM      1  C   UNL     1       2.864   6.540  18.853  0.00  0.00    +0.000 A 
ATOM      2  C   UNL     1       3.192   7.441  17.849  0.00  0.00    +0.000 A 
ATOM      3  C   UNL     1       2.630   8.719  17.840  0.00  0.00    +0.000 A 
ATOM      4  C   UNL     1       1.759   9.077  18.884  0.00  0.00    +0.000 A 
ATOM      5  C   UNL     1       1.442   8.191  19.913  0.00  0.00    +0.000 A 
ATOM      6  C   UNL     1       2.012   6.898  19.901  0.00  0.00    +0.000 A 
ATOM      7  C   UNL     1       0.552   8.878  20.785  0.00  0.00    +0.000 A 
ATOM      8  C   UNL     1       0.317  10.156  20.278  0.00  0.00    +0.000 A 
ATOM      9  N   UNL     1       1.095  10.272  19.141  0.00  0.00    +0.000 N 
ATOM     10  C   UNL     1       1.300  11.434  18.303  0.00  0.00    +0.000 C 
ATOM     11  C   UNL     1      -0.545  11.153  20.953  0.00  0.00    +0.000 A 
ATOM     12  C   UNL     1      -1.153  12.226  20.287  0.00  0.00    +0.000 A 
ATOM     13  C   UNL     1      -1.944  13.153  20.976  0.00  0.00    +0.000 A 
ATOM     14  C   UNL     1      -2.178  13.004  22.339  0.00  0.00    +0.000 A 
ATOM     15  C   UNL     1      -1.623  11.922  23.017  0.00  0.00    +0.000 A 
ATOM     16  C   UNL     1      -0.818  10.995  22.337  0.00  0.00    +0.000 A 
ATOM     17  S   UNL     1      -0.166   9.633  23.320  0.00  0.00    +0.000 S 
ATOM     18  C   UNL     1      -0.071   8.350  22.030  0.00  0.00    +0.000 C 
ENDROOT
BRANCH   1  19
ATOM     19  O   UNL     1       3.427   5.247  18.922  0.00  0.00    +0.000 OA
BRANCH  19  21
ATOM     20  C   UNL     1       1.832   4.004  17.709  0.00  0.00    +0.000 C 
ATOM     21  C   UNL     1       3.282   4.359  17.856  0.00  0.00    +0.000 C 
ATOM     22  O   UNL     1       4.166   3.920  17.133  0.00  0.00    +0.000 OA
ENDBRANCH  19  21
ENDBRANCH   1  19
TORSDOF 2
ENDMDL
MODEL 8
REMARK VINA RESULT:      -6.6      3.291      4.934
REMARK  Name = 
REMARK  4 active torsions:
REMARK  status: ('A' for Active; 'I' for Inactive)
REMARK    1  A    between atoms: C_1  and  C_2
REMARK    2  A    between atoms: C_2  and  O_4
REMARK    3  A    between atoms: O_4  and  C_5
REMARK    4  A    between atoms: N_13  and  C_14
REMARK                            x       y       z     vdW  Elec       q    Type
REMARK                         _______ _______ _______ _____ _____    ______ ____
ROOT
ATOM      1  C   UNL     1       6.143   4.295  14.147  0.00  0.00    +0.000 A 
ATOM      2  C   UNL     1       6.060   5.669  14.326  0.00  0.00    +0.000 A 
ATOM      3  C   UNL     1       5.365   6.196  15.417  0.00  0.00    +0.000 A 
ATOM      4  C   UNL     1       4.788   5.306  16.339  0.00  0.00    +0.000 A 
ATOM      5  C   UNL     1       4.886   3.923  16.186  0.00  0.00    +0.000 A 
ATOM      6  C   UNL     1       5.584   3.406  15.071  0.00  0.00    +0.000 A 
ATOM      7  C   UNL     1       4.202   3.339  17.289  0.00  0.00    +0.000 A 
ATOM      8  C   UNL     1       3.678   4.356  18.087  0.00  0.00    +0.000 A 
ATOM      9  N   UNL     1       4.082   5.548  17.512  0.00  0.00    +0.000 N 
ATOM     10  C   UNL     1       3.897   6.895  18.008  0.00  0.00    +0.000 C 
ATOM     11  C   UNL     1       2.926   4.104  19.337  0.00  0.00    +0.000 A 
ATOM     12  C   UNL     1       2.027   5.021  19.897  0.00  0.00    +0.000 A 
ATOM     13  C   UNL     1       1.356   4.741  21.094  0.00  0.00    +0.000 A 
ATOM     14  C   UNL     1       1.538   3.520  21.734  0.00  0.00    +0.000 A 
ATOM     15  C   UNL     1       2.390   2.572  21.176  0.00  0.00    +0.000 A 
ATOM     16  C   UNL     1       3.077   2.849  19.984  0.00  0.00    +0.000 A 
ATOM     17  S   UNL     1       4.144   1.540  19.355  0.00  0.00    +0.000 S 
ATOM     18  C   UNL     1       4.026   1.888  17.571  0.00  0.00    +0.000 C 
ENDROOT
BRANCH   1  19
ATOM     19  O   UNL     1       6.856   3.713  13.077  0.00  0.00    +0.000 OA
BRANCH  19  21
ATOM     20  C   UNL     1       7.104   2.169  11.313  0.00  0.00    +0.000 C 
ATOM     21  C   UNL     1       6.173   3.107  12.023  0.00  0.00    +0.000 C 
ATOM     22  O   UNL     1       5.006   3.281  11.700  0.00  0.00    +0.000 OA
ENDBRANCH  19  21
ENDBRANCH   1  19
TORSDOF 2
ENDMDL
MODEL 9
REMARK VINA RESULT:      -6.6      2.775      4.599
REMARK  Name = 
REMARK  4 active torsions:
REMARK  status: ('A' for Active; 'I' for Inactive)
REMARK    1  A    between atoms: C_1  and  C_2
REMARK    2  A    between atoms: C_2  and  O_4
REMARK    3  A    between atoms: O_4  and  C_5
REMARK    4  A    between atoms: N_13  and  C_14
REMARK                            x       y       z     vdW  Elec       q    Type
REMARK                         _______ _______ _______ _____ _____    ______ ____
ROOT
ATOM      1  C   UNL     1       6.331   3.885  13.720  0.00  0.00    +0.000 A 
ATOM      2  C   UNL     1       7.055   5.030  14.026  0.00  0.00    +0.000 A 
ATOM      3  C   UNL     1       6.701   5.812  15.127  0.00  0.00    +0.000 A 
ATOM      4  C   UNL     1       5.624   5.395  15.930  0.00  0.00    +0.000 A 
ATOM      5  C   UNL     1       4.905   4.233  15.649  0.00  0.00    +0.000 A 
ATOM      6  C   UNL     1       5.271   3.458  14.525  0.00  0.00    +0.000 A 
ATOM      7  C   UNL     1       3.906   4.116  16.654  0.00  0.00    +0.000 A 
ATOM      8  C   UNL     1       4.005   5.206  17.520  0.00  0.00    +0.000 A 
ATOM      9  N   UNL     1       5.086   5.951  17.084  0.00  0.00    +0.000 N 
ATOM     10  C   UNL     1       5.681   7.119  17.697  0.00  0.00    +0.000 C 
ATOM     11  C   UNL     1       3.132   5.388  18.702  0.00  0.00    +0.000 A 
ATOM     12  C   UNL     1       2.894   6.632  19.303  0.00  0.00    +0.000 A 
ATOM     13  C   UNL     1       2.074   6.747  20.432  0.00  0.00    +0.000 A 
ATOM     14  C   UNL     1       1.441   5.627  20.959  0.00  0.00    +0.000 A 
ATOM     15  C   UNL     1       1.623   4.387  20.355  0.00  0.00    +0.000 A 
ATOM     16  C   UNL     1       2.453   4.259  19.231  0.00  0.00    +0.000 A 
ATOM     17  S   UNL     1       2.601   2.605  18.532  0.00  0.00    +0.000 S 
ATOM     18  C   UNL     1       2.884   3.041  16.786  0.00  0.00    +0.000 C 
ENDROOT
BRANCH   1  19
ATOM     19  O   UNL     1       6.666   3.046  12.635  0.00  0.00    +0.000 OA
BRANCH  19  21
ATOM     20  C   UNL     1       6.093   1.261  11.205  0.00  0.00    +0.000 C 
ATOM     21  C   UNL     1       5.675   2.587  11.767  0.00  0.00    +0.000 C 
ATOM     22  O   UNL     1       4.622   3.143  11.487  0.00  0.00    +0.000 OA
ENDBRANCH  19  21
ENDBRANCH   1  19
TORSDOF 2
ENDMDL
