MODEL 1
REMARK VINA RESULT:      -7.0      0.000      0.000
REMARK  Name = 
REMARK  4 active torsions:
REMARK  status: ('A' for Active; 'I' for Inactive)
REMARK    1  A    between atoms: C_1  and  N_2
REMARK    2  A    between atoms: N_2  and  C_3
REMARK    3  A    between atoms: C_6  and  N_7
REMARK    4  A    between atoms: N_19  and  C_20
REMARK                            x       y       z     vdW  Elec       q    Type
REMARK                         _______ _______ _______ _____ _____    ______ ____
ROOT
ATOM      1  C   UNL     1      -1.047  15.512  21.701  0.00  0.00    +0.000 C 
ATOM      2  N   UNL     1      -0.771  14.167  22.171  0.00  0.00    +0.000 N 
ATOM      3  C   UNL     1      -1.220  13.772  23.494  0.00  0.00    +0.000 C 
ATOM      4  C   UNL     1      -0.231  13.186  21.339  0.00  0.00    +0.000 A 
ATOM      5  C   UNL     1       0.129  13.504  20.027  0.00  0.00    +0.000 A 
ATOM      6  C   UNL     1       0.707  12.568  19.161  0.00  0.00    +0.000 A 
ATOM      7  C   UNL     1       0.880  11.265  19.668  0.00  0.00    +0.000 A 
ATOM      8  C   UNL     1       1.394  10.023  19.174  0.00  0.00    +0.000 A 
ATOM      9  C   UNL     1       1.951   9.673  17.929  0.00  0.00    +0.000 A 
ATOM     10  C   UNL     1       2.381   8.378  17.675  0.00  0.00    +0.000 A 
ATOM     11  C   UNL     1       2.270   7.391  18.641  0.00  0.00    +0.000 A 
ATOM     12  C   UNL     1       2.717   6.102  18.311  0.00  0.00    +0.000 A 
ATOM     13  C   UNL     1       2.632   5.058  19.224  0.00  0.00    +0.000 A 
ATOM     14  C   UNL     1       2.102   5.298  20.481  0.00  0.00    +0.000 A 
ATOM     15  C   UNL     1       1.654   6.581  20.829  0.00  0.00    +0.000 A 
ATOM     16  C   UNL     1       1.719   7.671  19.926  0.00  0.00    +0.000 A 
ATOM     17  C   UNL     1       1.278   9.038  20.184  0.00  0.00    +0.000 A 
ATOM     18  N   UNL     1       0.708   9.704  21.268  0.00  0.00    +0.000 N 
ATOM     19  C   UNL     1       0.330   9.204  22.570  0.00  0.00    +0.000 C 
ATOM     20  C   UNL     1       0.480  11.038  20.972  0.00  0.00    +0.000 A 
ATOM     21  N   UNL     1      -0.056  11.939  21.827  0.00  0.00    +0.000 NA
ENDROOT
BRANCH   6  22
ATOM     22  N   UNL     1       0.984  12.978  17.843  0.00  0.00    +0.000 N 
ATOM     23  H   UNL     1       1.798  13.580  17.778  0.00  0.00    +0.000 HD
ATOM     24  H   UNL     1       1.016  12.221  17.175  0.00  0.00    +0.000 HD
ENDBRANCH   6  22
TORSDOF 1
ENDMDL
MODEL 2
REMARK VINA RESULT:      -6.9      2.577      7.324
REMARK  Name = 
REMARK  4 active torsions:
REMARK  status: ('A' for Active; 'I' for Inactive)
REMARK    1  A    between atoms: C_1  and  N_2
REMARK    2  A    between atoms: N_2  and  C_3
REMARK    3  A    between atoms: C_6  and  N_7
REMARK    4  A    between atoms: N_19  and  C_20
REMARK                            x       y       z     vdW  Elec       q    Type
REMARK                         _______ _______ _______ _____ _____    ______ ____
ROOT
ATOM      1  C   UNL     1       5.120   4.203  17.175  0.00  0.00    +0.000 C 
ATOM      2  N   UNL     1       4.649   5.572  17.070  0.00  0.00    +0.000 N 
ATOM      3  C   UNL     1       4.950   6.334  15.872  0.00  0.00    +0.000 C 
ATOM      4  C   UNL     1       3.780   6.132  18.006  0.00  0.00    +0.000 A 
ATOM      5  C   UNL     1       3.392   5.394  19.128  0.00  0.00    +0.000 A 
ATOM      6  C   UNL     1       2.551   5.919  20.115  0.00  0.00    +0.000 A 
ATOM      7  C   UNL     1       2.079   7.230  19.908  0.00  0.00    +0.000 A 
ATOM      8  C   UNL     1       1.224   8.145  20.604  0.00  0.00    +0.000 A 
ATOM      9  C   UNL     1       0.534   8.030  21.826  0.00  0.00    +0.000 A 
ATOM     10  C   UNL     1      -0.254   9.068  22.304  0.00  0.00    +0.000 A 
ATOM     11  C   UNL     1      -0.387  10.246  21.588  0.00  0.00    +0.000 A 
ATOM     12  C   UNL     1      -1.208  11.248  22.127  0.00  0.00    +0.000 A 
ATOM     13  C   UNL     1      -1.396  12.455  21.465  0.00  0.00    +0.000 A 
ATOM     14  C   UNL     1      -0.758  12.671  20.254  0.00  0.00    +0.000 A 
ATOM     15  C   UNL     1       0.070  11.682  19.702  0.00  0.00    +0.000 A 
ATOM     16  C   UNL     1       0.285  10.436  20.344  0.00  0.00    +0.000 A 
ATOM     17  C   UNL     1       1.117   9.342  19.856  0.00  0.00    +0.000 A 
ATOM     18  N   UNL     1       1.913   9.132  18.731  0.00  0.00    +0.000 N 
ATOM     19  C   UNL     1       2.169   9.995  17.600  0.00  0.00    +0.000 C 
ATOM     20  C   UNL     1       2.502   7.879  18.762  0.00  0.00    +0.000 A 
ATOM     21  N   UNL     1       3.335   7.393  17.813  0.00  0.00    +0.000 NA
ENDROOT
BRANCH   6  22
ATOM     22  N   UNL     1       2.179   5.074  21.179  0.00  0.00    +0.000 N 
ATOM     23  H   UNL     1       2.973   4.626  21.625  0.00  0.00    +0.000 HD
ATOM     24  H   UNL     1       1.558   5.504  21.848  0.00  0.00    +0.000 HD
ENDBRANCH   6  22
TORSDOF 1
ENDMDL
MODEL 3
REMARK VINA RESULT:      -6.9      1.415      3.158
REMARK  Name = 
REMARK  4 active torsions:
REMARK  status: ('A' for Active; 'I' for Inactive)
REMARK    1  A    between atoms: C_1  and  N_2
REMARK    2  A    between atoms: N_2  and  C_3
REMARK    3  A    between atoms: C_6  and  N_7
REMARK    4  A    between atoms: N_19  and  C_20
REMARK                            x       y       z     vdW  Elec       q    Type
REMARK                         _______ _______ _______ _____ _____    ______ ____
ROOT
ATOM      1  C   UNL     1      -1.778  13.878  21.945  0.00  0.00    +0.000 C 
ATOM      2  N   UNL     1      -0.984  13.340  20.855  0.00  0.00    +0.000 N 
ATOM      3  C   UNL     1      -0.553  14.225  19.789  0.00  0.00    +0.000 C 
ATOM      4  C   UNL     1      -0.483  12.039  20.874  0.00  0.00    +0.000 A 
ATOM      5  C   UNL     1      -0.800  11.183  21.933  0.00  0.00    +0.000 A 
ATOM      6  C   UNL     1      -0.353   9.858  21.985  0.00  0.00    +0.000 A 
ATOM      7  C   UNL     1       0.470   9.429  20.924  0.00  0.00    +0.000 A 
ATOM      8  C   UNL     1       1.147   8.220  20.564  0.00  0.00    +0.000 A 
ATOM      9  C   UNL     1       1.205   6.961  21.192  0.00  0.00    +0.000 A 
ATOM     10  C   UNL     1       1.948   5.922  20.647  0.00  0.00    +0.000 A 
ATOM     11  C   UNL     1       2.657   6.098  19.470  0.00  0.00    +0.000 A 
ATOM     12  C   UNL     1       3.393   5.007  18.983  0.00  0.00    +0.000 A 
ATOM     13  C   UNL     1       4.135   5.107  17.812  0.00  0.00    +0.000 A 
ATOM     14  C   UNL     1       4.142   6.304  17.115  0.00  0.00    +0.000 A 
ATOM     15  C   UNL     1       3.409   7.404  17.585  0.00  0.00    +0.000 A 
ATOM     16  C   UNL     1       2.643   7.344  18.776  0.00  0.00    +0.000 A 
ATOM     17  C   UNL     1       1.853   8.425  19.354  0.00  0.00    +0.000 A 
ATOM     18  N   UNL     1       1.581   9.747  19.002  0.00  0.00    +0.000 N 
ATOM     19  C   UNL     1       2.049  10.524  17.877  0.00  0.00    +0.000 C 
ATOM     20  C   UNL     1       0.744  10.348  19.928  0.00  0.00    +0.000 A 
ATOM     21  N   UNL     1       0.298  11.624  19.853  0.00  0.00    +0.000 NA
ENDROOT
BRANCH   6  22
ATOM     22  N   UNL     1      -0.687   9.096  23.121  0.00  0.00    +0.000 N 
ATOM     23  H   UNL     1      -1.333   9.572  23.742  0.00  0.00    +0.000 HD
ATOM     24  H   UNL     1      -0.983   8.154  22.912  0.00  0.00    +0.000 HD
ENDBRANCH   6  22
TORSDOF 1
ENDMDL
MODEL 4
REMARK VINA RESULT:      -6.7      3.022      5.989
REMARK  Name = 
REMARK  4 active torsions:
REMARK  status: ('A' for Active; 'I' for Inactive)
REMARK    1  A    between atoms: C_1  and  N_2
REMARK    2  A    between atoms: N_2  and  C_3
REMARK    3  A    between atoms: C_6  and  N_7
REMARK    4  A    between atoms: N_19  and  C_20
REMARK                            x       y       z     vdW  Elec       q    Type
REMARK                         _______ _______ _______ _____ _____    ______ ____
ROOT
ATOM      1  C   UNL     1      -0.178   8.861  22.525  0.00  0.00    +0.000 C 
ATOM      2  N   UNL     1       0.574   9.019  21.294  0.00  0.00    +0.000 N 
ATOM      3  C   UNL     1       0.799  10.353  20.767  0.00  0.00    +0.000 C 
ATOM      4  C   UNL     1       1.228   7.951  20.681  0.00  0.00    +0.000 A 
ATOM      5  C   UNL     1       1.112   6.663  21.212  0.00  0.00    +0.000 A 
ATOM      6  C   UNL     1       1.718   5.550  20.618  0.00  0.00    +0.000 A 
ATOM      7  C   UNL     1       2.488   5.795  19.464  0.00  0.00    +0.000 A 
ATOM      8  C   UNL     1       3.271   5.009  18.557  0.00  0.00    +0.000 A 
ATOM      9  C   UNL     1       3.536   3.627  18.509  0.00  0.00    +0.000 A 
ATOM     10  C   UNL     1       4.346   3.087  17.520  0.00  0.00    +0.000 A 
ATOM     11  C   UNL     1       4.921   3.895  16.552  0.00  0.00    +0.000 A 
ATOM     12  C   UNL     1       5.736   3.281  15.589  0.00  0.00    +0.000 A 
ATOM     13  C   UNL     1       6.352   4.026  14.591  0.00  0.00    +0.000 A 
ATOM     14  C   UNL     1       6.153   5.396  14.547  0.00  0.00    +0.000 A 
ATOM     15  C   UNL     1       5.338   6.027  15.499  0.00  0.00    +0.000 A 
ATOM     16  C   UNL     1       4.695   5.304  16.535  0.00  0.00    +0.000 A 
ATOM     17  C   UNL     1       3.835   5.858  17.575  0.00  0.00    +0.000 A 
ATOM     18  N   UNL     1       3.376   7.134  17.900  0.00  0.00    +0.000 N 
ATOM     19  C   UNL     1       3.644   8.407  17.269  0.00  0.00    +0.000 C 
ATOM     20  C   UNL     1       2.559   7.102  19.018  0.00  0.00    +0.000 A 
ATOM     21  N   UNL     1       1.958   8.182  19.568  0.00  0.00    +0.000 NA
ENDROOT
BRANCH   6  22
ATOM     22  N   UNL     1       1.582   4.306  21.263  0.00  0.00    +0.000 N 
ATOM     23  H   UNL     1       2.467   3.925  21.581  0.00  0.00    +0.000 HD
ATOM     24  H   UNL     1       0.878   4.293  21.987  0.00  0.00    +0.000 HD
ENDBRANCH   6  22
TORSDOF 1
ENDMDL
MODEL 5
REMARK VINA RESULT:      -6.4      1.577      1.984
REMARK  Name = 
REMARK  4 active torsions:
REMARK  status: ('A' for Active; 'I' for Inactive)
REMARK    1  A    between atoms: C_1  and  N_2
REMARK    2  A    between atoms: N_2  and  C_3
REMARK    3  A    between atoms: C_6  and  N_7
REMARK    4  A    between atoms: N_19  and  C_20
REMARK                            x       y       z     vdW  Elec       q    Type
REMARK                         _______ _______ _______ _____ _____    ______ ____
ROOT
ATOM      1  C   UNL     1      -3.646  15.437  23.022  0.00  0.00    +0.000 C 
ATOM      2  N   UNL     1      -3.027  14.156  23.308  0.00  0.00    +0.000 N 
ATOM      3  C   UNL     1      -3.349  13.475  24.549  0.00  0.00    +0.000 C 
ATOM      4  C   UNL     1      -2.259  13.475  22.364  0.00  0.00    +0.000 A 
ATOM      5  C   UNL     1      -2.004  14.058  21.119  0.00  0.00    +0.000 A 
ATOM      6  C   UNL     1      -1.211  13.435  20.149  0.00  0.00    +0.000 A 
ATOM      7  C   UNL     1      -0.702  12.163  20.474  0.00  0.00    +0.000 A 
ATOM      8  C   UNL     1       0.112  11.177  19.827  0.00  0.00    +0.000 A 
ATOM      9  C   UNL     1       0.731  11.163  18.562  0.00  0.00    +0.000 A 
ATOM     10  C   UNL     1       1.480  10.072  18.143  0.00  0.00    +0.000 A 
ATOM     11  C   UNL     1       1.636   8.963  18.958  0.00  0.00    +0.000 A 
ATOM     12  C   UNL     1       2.398   7.893  18.465  0.00  0.00    +0.000 A 
ATOM     13  C   UNL     1       2.594   6.744  19.221  0.00  0.00    +0.000 A 
ATOM     14  C   UNL     1       2.030   6.658  20.483  0.00  0.00    +0.000 A 
ATOM     15  C   UNL     1       1.268   7.719  20.994  0.00  0.00    +0.000 A 
ATOM     16  C   UNL     1       1.041   8.907  20.253  0.00  0.00    +0.000 A 
ATOM     17  C   UNL     1       0.263  10.062  20.686  0.00  0.00    +0.000 A 
ATOM     18  N   UNL     1      -0.451  10.398  21.835  0.00  0.00    +0.000 N 
ATOM     19  C   UNL     1      -0.676   9.639  23.044  0.00  0.00    +0.000 C 
ATOM     20  C   UNL     1      -1.018  11.657  21.721  0.00  0.00    +0.000 A 
ATOM     21  N   UNL     1      -1.762  12.259  22.678  0.00  0.00    +0.000 NA
ENDROOT
BRANCH   6  22
ATOM     22  N   UNL     1      -1.059  14.085  18.909  0.00  0.00    +0.000 N 
ATOM     23  H   UNL     1      -0.124  13.995  18.525  0.00  0.00    +0.000 HD
ATOM     24  H   UNL     1      -1.772  13.853  18.233  0.00  0.00    +0.000 HD
ENDBRANCH   6  22
TORSDOF 1
ENDMDL
MODEL 6
REMARK VINA RESULT:      -6.4      1.866      3.311
REMARK  Name = 
REMARK  4 active torsions:
REMARK  status: ('A' for Active; 'I' for Inactive)
REMARK    1  A    between atoms: C_1  and  N_2
REMARK    2  A    between atoms: N_2  and  C_3
REMARK    3  A    between atoms: C_6  and  N_7
REMARK    4  A    between atoms: N_19  and  C_20
REMARK                            x       y       z     vdW  Elec       q    Type
REMARK                         _______ _______ _______ _____ _____    ______ ____
ROOT
ATOM      1  C   UNL     1      -0.660  11.897  21.852  0.00  0.00    +0.000 C 
ATOM      2  N   UNL     1      -0.229  10.515  21.951  0.00  0.00    +0.000 N 
ATOM      3  C   UNL     1      -0.746   9.686  23.024  0.00  0.00    +0.000 C 
ATOM      4  C   UNL     1       0.539   9.905  20.959  0.00  0.00    +0.000 A 
ATOM      5  C   UNL     1       0.979  10.647  19.860  0.00  0.00    +0.000 A 
ATOM      6  C   UNL     1       1.781  10.094  18.855  0.00  0.00    +0.000 A 
ATOM      7  C   UNL     1       2.100   8.728  18.985  0.00  0.00    +0.000 A 
ATOM      8  C   UNL     1       2.849   7.765  18.234  0.00  0.00    +0.000 A 
ATOM      9  C   UNL     1       3.579   7.879  17.036  0.00  0.00    +0.000 A 
ATOM     10  C   UNL     1       4.228   6.782  16.486  0.00  0.00    +0.000 A 
ATOM     11  C   UNL     1       4.173   5.542  17.100  0.00  0.00    +0.000 A 
ATOM     12  C   UNL     1       4.846   4.477  16.482  0.00  0.00    +0.000 A 
ATOM     13  C   UNL     1       4.830   3.202  17.035  0.00  0.00    +0.000 A 
ATOM     14  C   UNL     1       4.142   2.983  18.217  0.00  0.00    +0.000 A 
ATOM     15  C   UNL     1       3.467   4.037  18.851  0.00  0.00    +0.000 A 
ATOM     16  C   UNL     1       3.455   5.351  18.318  0.00  0.00    +0.000 A 
ATOM     17  C   UNL     1       2.784   6.512  18.891  0.00  0.00    +0.000 A 
ATOM     18  N   UNL     1       2.009   6.744  20.027  0.00  0.00    +0.000 N 
ATOM     19  C   UNL     1       1.581   5.831  21.062  0.00  0.00    +0.000 C 
ATOM     20  C   UNL     1       1.609   8.069  20.097  0.00  0.00    +0.000 A 
ATOM     21  N   UNL     1       0.855   8.597  21.088  0.00  0.00    +0.000 NA
ENDROOT
BRANCH   6  22
ATOM     22  N   UNL     1       2.126  10.916  17.764  0.00  0.00    +0.000 N 
ATOM     23  H   UNL     1       3.096  11.212  17.783  0.00  0.00    +0.000 HD
ATOM     24  H   UNL     1       1.859  10.540  16.866  0.00  0.00    +0.000 HD
ENDBRANCH   6  22
TORSDOF 1
ENDMDL
MODEL 7
REMARK VINA RESULT:      -6.2      1.959      4.413
REMARK  Name = 
REMARK  4 active torsions:
REMARK  status: ('A' for Active; 'I' for Inactive)
REMARK    1  A    between atoms: C_1  and  N_2
REMARK    2  A    between atoms: N_2  and  C_3
REMARK    3  A    between atoms: C_6  and  N_7
REMARK    4  A    between atoms: N_19  and  C_20
REMARK                            x       y       z     vdW  Elec       q    Type
REMARK                         _______ _______ _______ _____ _____    ______ ____
ROOT
ATOM      1  C   UNL     1       0.799  12.988  19.861  0.00  0.00    +0.000 C 
ATOM      2  N   UNL     1       1.415  11.984  19.014  0.00  0.00    +0.000 N 
ATOM      3  C   UNL     1       2.163  12.407  17.844  0.00  0.00    +0.000 C 
ATOM      4  C   UNL     1       1.454  10.636  19.368  0.00  0.00    +0.000 A 
ATOM      5  C   UNL     1       0.824  10.201  20.537  0.00  0.00    +0.000 A 
ATOM      6  C   UNL     1       0.802   8.856  20.922  0.00  0.00    +0.000 A 
ATOM      7  C   UNL     1       1.482   7.951  20.083  0.00  0.00    +0.000 A 
ATOM      8  C   UNL     1       1.734   6.541  20.071  0.00  0.00    +0.000 A 
ATOM      9  C   UNL     1       1.342   5.516  20.953  0.00  0.00    +0.000 A 
ATOM     10  C   UNL     1       1.720   4.199  20.733  0.00  0.00    +0.000 A 
ATOM     11  C   UNL     1       2.499   3.856  19.640  0.00  0.00    +0.000 A 
ATOM     12  C   UNL     1       2.850   2.506  19.487  0.00  0.00    +0.000 A 
ATOM     13  C   UNL     1       3.635   2.086  18.420  0.00  0.00    +0.000 A 
ATOM     14  C   UNL     1       4.071   3.017  17.491  0.00  0.00    +0.000 A 
ATOM     15  C   UNL     1       3.725   4.370  17.626  0.00  0.00    +0.000 A 
ATOM     16  C   UNL     1       2.931   4.840  18.702  0.00  0.00    +0.000 A 
ATOM     17  C   UNL     1       2.520   6.219  18.939  0.00  0.00    +0.000 A 
ATOM     18  N   UNL     1       2.719   7.435  18.285  0.00  0.00    +0.000 N 
ATOM     19  C   UNL     1       3.468   7.733  17.086  0.00  0.00    +0.000 C 
ATOM     20  C   UNL     1       2.090   8.471  18.955  0.00  0.00    +0.000 A 
ATOM     21  N   UNL     1       2.097   9.765  18.559  0.00  0.00    +0.000 NA
ENDROOT
BRANCH   6  22
ATOM     22  N   UNL     1       0.184   8.533  22.145  0.00  0.00    +0.000 N 
ATOM     23  H   UNL     1       0.315   7.562  22.411  0.00  0.00    +0.000 HD
ATOM     24  H   UNL     1       0.405   9.168  22.898  0.00  0.00    +0.000 HD
ENDBRANCH   6  22
TORSDOF 1
ENDMDL
MODEL 8
REMARK VINA RESULT:      -6.2      2.352      6.788
REMARK  Name = 
REMARK  4 active torsions:
REMARK  status: ('A' for Active; 'I' for Inactive)
REMARK    1  A    between atoms: C_1  and  N_2
REMARK    2  A    between atoms: N_2  and  C_3
REMARK    3  A    between atoms: C_6  and  N_7
REMARK    4  A    between atoms: N_19  and  C_20
REMARK                            x       y       z     vdW  Elec       q    Type
REMARK                         _______ _______ _______ _____ _____    ______ ____
ROOT
ATOM      1  C   UNL     1       3.664   2.722  19.933  0.00  0.00    +0.000 C 
ATOM      2  N   UNL     1       2.756   3.691  20.517  0.00  0.00    +0.000 N 
ATOM      3  C   UNL     1       2.069   3.362  21.752  0.00  0.00    +0.000 C 
ATOM      4  C   UNL     1       2.639   4.991  20.024  0.00  0.00    +0.000 A 
ATOM      5  C   UNL     1       3.358   5.375  18.889  0.00  0.00    +0.000 A 
ATOM      6  C   UNL     1       3.252   6.654  18.332  0.00  0.00    +0.000 A 
ATOM      7  C   UNL     1       2.402   7.560  18.996  0.00  0.00    +0.000 A 
ATOM      8  C   UNL     1       2.000   8.924  18.816  0.00  0.00    +0.000 A 
ATOM      9  C   UNL     1       2.336   9.873  17.832  0.00  0.00    +0.000 A 
ATOM     10  C   UNL     1       1.816  11.159  17.871  0.00  0.00    +0.000 A 
ATOM     11  C   UNL     1       0.953  11.547  18.883  0.00  0.00    +0.000 A 
ATOM     12  C   UNL     1       0.475  12.865  18.863  0.00  0.00    +0.000 A 
ATOM     13  C   UNL     1      -0.389  13.330  19.848  0.00  0.00    +0.000 A 
ATOM     14  C   UNL     1      -0.785  12.473  20.862  0.00  0.00    +0.000 A 
ATOM     15  C   UNL     1      -0.319  11.150  20.895  0.00  0.00    +0.000 A 
ATOM     16  C   UNL     1       0.565  10.639  19.913  0.00  0.00    +0.000 A 
ATOM     17  C   UNL     1       1.112   9.287  19.857  0.00  0.00    +0.000 A 
ATOM     18  N   UNL     1       0.986   8.138  20.637  0.00  0.00    +0.000 N 
ATOM     19  C   UNL     1       0.231   7.916  21.849  0.00  0.00    +0.000 C 
ATOM     20  C   UNL     1       1.743   7.099  20.121  0.00  0.00    +0.000 A 
ATOM     21  N   UNL     1       1.817   5.858  20.655  0.00  0.00    +0.000 NA
ENDROOT
BRANCH   6  22
ATOM     22  N   UNL     1       4.058   6.954  17.217  0.00  0.00    +0.000 N 
ATOM     23  H   UNL     1       4.056   6.220  16.517  0.00  0.00    +0.000 HD
ATOM     24  H   UNL     1       3.884   7.864  16.817  0.00  0.00    +0.000 HD
ENDBRANCH   6  22
TORSDOF 1
ENDMDL
MODEL 9
REMARK VINA RESULT:      -6.1      1.567      6.523
REMARK  Name = 
REMARK  4 active torsions:
REMARK  status: ('A' for Active; 'I' for Inactive)
REMARK    1  A    between atoms: C_1  and  N_2
REMARK    2  A    between atoms: N_2  and  C_3
REMARK    3  A    between atoms: C_6  and  N_7
REMARK    4  A    between atoms: N_19  and  C_20
REMARK                            x       y       z     vdW  Elec       q    Type
REMARK                         _______ _______ _______ _____ _____    ______ ____
ROOT
ATOM      1  C   UNL     1       3.351   5.513  18.753  0.00  0.00    +0.000 C 
ATOM      2  N   UNL     1       2.476   6.031  19.788  0.00  0.00    +0.000 N 
ATOM      3  C   UNL     1       2.264   5.251  20.993  0.00  0.00    +0.000 C 
ATOM      4  C   UNL     1       1.957   7.325  19.741  0.00  0.00    +0.000 A 
ATOM      5  C   UNL     1       2.216   8.143  18.638  0.00  0.00    +0.000 A 
ATOM      6  C   UNL     1       1.692   9.435  18.523  0.00  0.00    +0.000 A 
ATOM      7  C   UNL     1       0.908   9.894  19.601  0.00  0.00    +0.000 A 
ATOM      8  C   UNL     1       0.201  11.096  19.928  0.00  0.00    +0.000 A 
ATOM      9  C   UNL     1       0.032  12.301  19.219  0.00  0.00    +0.000 A 
ATOM     10  C   UNL     1      -0.705  13.349  19.753  0.00  0.00    +0.000 A 
ATOM     11  C   UNL     1      -1.293  13.239  21.003  0.00  0.00    +0.000 A 
ATOM     12  C   UNL     1      -2.016  14.342  21.483  0.00  0.00    +0.000 A 
ATOM     13  C   UNL     1      -2.628  14.310  22.730  0.00  0.00    +0.000 A 
ATOM     14  C   UNL     1      -2.525  13.168  23.507  0.00  0.00    +0.000 A 
ATOM     15  C   UNL     1      -1.810  12.055  23.041  0.00  0.00    +0.000 A 
ATOM     16  C   UNL     1      -1.168  12.048  21.778  0.00  0.00    +0.000 A 
ATOM     17  C   UNL     1      -0.398  10.951  21.202  0.00  0.00    +0.000 A 
ATOM     18  N   UNL     1      -0.051   9.665  21.615  0.00  0.00    +0.000 N 
ATOM     19  C   UNL     1      -0.355   8.971  22.845  0.00  0.00    +0.000 C 
ATOM     20  C   UNL     1       0.717   9.023  20.657  0.00  0.00    +0.000 A 
ATOM     21  N   UNL     1       1.197   7.762  20.769  0.00  0.00    +0.000 NA
ENDROOT
BRANCH   6  22
ATOM     22  N   UNL     1       2.057  10.195  17.395  0.00  0.00    +0.000 N 
ATOM     23  H   UNL     1       1.794  11.172  17.473  0.00  0.00    +0.000 HD
ATOM     24  H   UNL     1       3.020  10.080  17.116  0.00  0.00    +0.000 HD
ENDBRANCH   6  22
TORSDOF 1
ENDMDL
