MODEL 1
REMARK VINA RESULT:      -6.4      0.000      0.000
REMARK  Name = 
REMARK  4 active torsions:
REMARK  status: ('A' for Active; 'I' for Inactive)
REMARK    1  A    between atoms: C_1  and  C_2
REMARK    2  A    between atoms: C_2  and  C_3
REMARK    3  A    between atoms: C_2  and  N_4
REMARK    4  A    between atoms: N_7  and  C_8
REMARK                            x       y       z     vdW  Elec       q    Type
REMARK                         _______ _______ _______ _____ _____    ______ ____
ROOT
ATOM      1  N   UNL     1       6.693   6.326  17.151  0.00  0.00    +0.000 NA
ATOM      2  C   UNL     1       6.650   4.959  17.735  0.00  0.00    +0.000 C 
ATOM      3  C   UNL     1       5.637   4.749  18.886  0.00  0.00    +0.000 C 
ATOM      4  N   UNL     1       4.291   5.221  18.528  0.00  0.00    +0.000 N 
ATOM      5  C   UNL     1       4.227   6.514  17.817  0.00  0.00    +0.000 C 
ATOM      6  C   UNL     1       5.304   6.622  16.715  0.00  0.00    +0.000 C 
ENDROOT
BRANCH   4   7
ATOM      7  C   UNL     1       3.130   4.501  18.884  0.00  0.00    +0.000 A 
ATOM      8  C   UNL     1       2.528   4.760  20.059  0.00  0.00    +0.000 A 
ATOM      9  C   UNL     1       1.367   4.213  20.701  0.00  0.00    +0.000 A 
ATOM     10  C   UNL     1       0.590   3.196  20.319  0.00  0.00    +0.000 A 
ATOM     11  C   UNL     1       0.712   2.384  19.148  0.00  0.00    +0.000 A 
ATOM     12  C   UNL     1       1.583   2.495  18.137  0.00  0.00    +0.000 A 
ATOM     13  C   UNL     1       2.695   3.437  17.893  0.00  0.00    +0.000 A 
ATOM     14  O   UNL     1       3.299   3.289  16.825  0.00  0.00    +0.000 OA
ENDBRANCH   4   7
BRANCH   1  16
ATOM     15  C   UNL     1       8.342   6.652  18.969  0.00  0.00    +0.000 C 
ATOM     16  C   UNL     1       7.291   7.324  18.067  0.00  0.00    +0.000 C 
ATOM     17  C   UNL     1       8.010   8.483  17.352  0.00  0.00    +0.000 C 
ENDBRANCH   1  16
TORSDOF 2
ENDMDL
MODEL 2
REMARK VINA RESULT:      -6.2      0.569      1.013
REMARK  Name = 
REMARK  4 active torsions:
REMARK  status: ('A' for Active; 'I' for Inactive)
REMARK    1  A    between atoms: C_1  and  C_2
REMARK    2  A    between atoms: C_2  and  C_3
REMARK    3  A    between atoms: C_2  and  N_4
REMARK    4  A    between atoms: N_7  and  C_8
REMARK                            x       y       z     vdW  Elec       q    Type
REMARK                         _______ _______ _______ _____ _____    ______ ____
ROOT
ATOM      1  N   UNL     1       6.826   6.062  16.556  0.00  0.00    +0.000 NA
ATOM      2  C   UNL     1       6.673   4.662  17.033  0.00  0.00    +0.000 C 
ATOM      3  C   UNL     1       5.877   4.481  18.348  0.00  0.00    +0.000 C 
ATOM      4  N   UNL     1       4.582   5.178  18.308  0.00  0.00    +0.000 N 
ATOM      5  C   UNL     1       4.595   6.534  17.724  0.00  0.00    +0.000 C 
ATOM      6  C   UNL     1       5.447   6.601  16.437  0.00  0.00    +0.000 C 
ENDROOT
BRANCH   4   7
ATOM      7  C   UNL     1       3.408   4.599  18.838  0.00  0.00    +0.000 A 
ATOM      8  C   UNL     1       3.052   4.875  20.107  0.00  0.00    +0.000 A 
ATOM      9  C   UNL     1       1.950   4.453  20.923  0.00  0.00    +0.000 A 
ATOM     10  C   UNL     1       0.988   3.568  20.653  0.00  0.00    +0.000 A 
ATOM     11  C   UNL     1       0.799   2.808  19.455  0.00  0.00    +0.000 A 
ATOM     12  C   UNL     1       1.495   2.854  18.314  0.00  0.00    +0.000 A 
ATOM     13  C   UNL     1       2.671   3.654  17.908  0.00  0.00    +0.000 A 
ATOM     14  O   UNL     1       3.062   3.483  16.748  0.00  0.00    +0.000 OA
ENDBRANCH   4   7
BRANCH   1  16
ATOM     15  C   UNL     1       7.227   8.309  17.518  0.00  0.00    +0.000 C 
ATOM     16  C   UNL     1       7.741   6.862  17.404  0.00  0.00    +0.000 C 
ATOM     17  C   UNL     1       7.881   6.337  18.845  0.00  0.00    +0.000 C 
ENDBRANCH   1  16
TORSDOF 2
ENDMDL
MODEL 3
REMARK VINA RESULT:      -6.1      1.132      1.831
REMARK  Name = 
REMARK  4 active torsions:
REMARK  status: ('A' for Active; 'I' for Inactive)
REMARK    1  A    between atoms: C_1  and  C_2
REMARK    2  A    between atoms: C_2  and  C_3
REMARK    3  A    between atoms: C_2  and  N_4
REMARK    4  A    between atoms: N_7  and  C_8
REMARK                            x       y       z     vdW  Elec       q    Type
REMARK                         _______ _______ _______ _____ _____    ______ ____
ROOT
ATOM      1  N   UNL     1       6.736   6.509  16.971  0.00  0.00    +0.000 NA
ATOM      2  C   UNL     1       6.798   5.099  17.440  0.00  0.00    +0.000 C 
ATOM      3  C   UNL     1       5.823   4.725  18.582  0.00  0.00    +0.000 C 
ATOM      4  N   UNL     1       4.441   5.128  18.280  0.00  0.00    +0.000 N 
ATOM      5  C   UNL     1       4.275   6.466  17.680  0.00  0.00    +0.000 C 
ATOM      6  C   UNL     1       5.322   6.741  16.578  0.00  0.00    +0.000 C 
ENDROOT
BRANCH   4   7
ATOM      7  C   UNL     1       3.340   4.299  18.588  0.00  0.00    +0.000 A 
ATOM      8  C   UNL     1       3.100   3.213  17.831  0.00  0.00    +0.000 A 
ATOM      9  C   UNL     1       2.086   2.198  17.876  0.00  0.00    +0.000 A 
ATOM     10  C   UNL     1       1.015   2.108  18.668  0.00  0.00    +0.000 A 
ATOM     11  C   UNL     1       0.601   3.010  19.699  0.00  0.00    +0.000 A 
ATOM     12  C   UNL     1       1.220   4.106  20.152  0.00  0.00    +0.000 A 
ATOM     13  C   UNL     1       2.483   4.763  19.751  0.00  0.00    +0.000 A 
ATOM     14  O   UNL     1       2.798   5.763  20.404  0.00  0.00    +0.000 OA
ENDBRANCH   4   7
BRANCH   1  16
ATOM     15  C   UNL     1       8.294   6.765  18.879  0.00  0.00    +0.000 C 
ATOM     16  C   UNL     1       7.278   7.469  17.960  0.00  0.00    +0.000 C 
ATOM     17  C   UNL     1       8.017   8.667  17.334  0.00  0.00    +0.000 C 
ENDBRANCH   1  16
TORSDOF 2
ENDMDL
MODEL 4
REMARK VINA RESULT:      -6.1      2.246      6.020
REMARK  Name = 
REMARK  4 active torsions:
REMARK  status: ('A' for Active; 'I' for Inactive)
REMARK    1  A    between atoms: C_1  and  C_2
REMARK    2  A    between atoms: C_2  and  C_3
REMARK    3  A    between atoms: C_2  and  N_4
REMARK    4  A    between atoms: N_7  and  C_8
REMARK                            x       y       z     vdW  Elec       q    Type
REMARK                         _______ _______ _______ _____ _____    ______ ____
ROOT
ATOM      1  N   UNL     1       1.096   2.912  19.305  0.00  0.00    +0.000 NA
ATOM      2  C   UNL     1       1.157   3.942  18.233  0.00  0.00    +0.000 C 
ATOM      3  C   UNL     1       2.463   4.770  18.168  0.00  0.00    +0.000 C 
ATOM      4  N   UNL     1       3.658   3.913  18.156  0.00  0.00    +0.000 N 
ATOM      5  C   UNL     1       3.645   2.772  19.093  0.00  0.00    +0.000 C 
ATOM      6  C   UNL     1       2.283   2.043  19.097  0.00  0.00    +0.000 C 
ENDROOT
BRANCH   4   7
ATOM      7  C   UNL     1       4.768   4.195  17.330  0.00  0.00    +0.000 A 
ATOM      8  C   UNL     1       4.642   4.079  15.995  0.00  0.00    +0.000 A 
ATOM      9  C   UNL     1       5.558   4.281  14.908  0.00  0.00    +0.000 A 
ATOM     10  C   UNL     1       6.860   4.571  14.943  0.00  0.00    +0.000 A 
ATOM     11  C   UNL     1       7.690   4.768  16.092  0.00  0.00    +0.000 A 
ATOM     12  C   UNL     1       7.345   4.774  17.385  0.00  0.00    +0.000 A 
ATOM     13  C   UNL     1       6.046   4.564  18.060  0.00  0.00    +0.000 A 
ATOM     14  O   UNL     1       6.057   4.670  19.291  0.00  0.00    +0.000 OA
ENDBRANCH   4   7
BRANCH   1  16
ATOM     15  C   UNL     1       1.798   2.674  21.668  0.00  0.00    +0.000 C 
ATOM     16  C   UNL     1       0.977   3.499  20.660  0.00  0.00    +0.000 C 
ATOM     17  C   UNL     1       1.490   4.947  20.764  0.00  0.00    +0.000 C 
ENDBRANCH   1  16
TORSDOF 2
ENDMDL
MODEL 5
REMARK VINA RESULT:      -6.0      2.272      3.358
REMARK  Name = 
REMARK  4 active torsions:
REMARK  status: ('A' for Active; 'I' for Inactive)
REMARK    1  A    between atoms: C_1  and  C_2
REMARK    2  A    between atoms: C_2  and  C_3
REMARK    3  A    between atoms: C_2  and  N_4
REMARK    4  A    between atoms: N_7  and  C_8
REMARK                            x       y       z     vdW  Elec       q    Type
REMARK                         _______ _______ _______ _____ _____    ______ ____
ROOT
ATOM      1  N   UNL     1       7.113   5.371  15.492  0.00  0.00    +0.000 NA
ATOM      2  C   UNL     1       6.274   6.399  16.165  0.00  0.00    +0.000 C 
ATOM      3  C   UNL     1       4.779   6.039  16.339  0.00  0.00    +0.000 C 
ATOM      4  N   UNL     1       4.599   4.714  16.953  0.00  0.00    +0.000 N 
ATOM      5  C   UNL     1       5.483   3.644  16.450  0.00  0.00    +0.000 C 
ATOM      6  C   UNL     1       6.940   4.127  16.285  0.00  0.00    +0.000 C 
ENDROOT
BRANCH   4   7
ATOM      7  C   UNL     1       3.609   4.476  17.931  0.00  0.00    +0.000 A 
ATOM      8  C   UNL     1       2.459   3.875  17.573  0.00  0.00    +0.000 A 
ATOM      9  C   UNL     1       1.283   3.505  18.306  0.00  0.00    +0.000 A 
ATOM     10  C   UNL     1       0.971   3.747  19.582  0.00  0.00    +0.000 A 
ATOM     11  C   UNL     1       1.748   4.439  20.564  0.00  0.00    +0.000 A 
ATOM     12  C   UNL     1       2.983   4.942  20.454  0.00  0.00    +0.000 A 
ATOM     13  C   UNL     1       3.934   4.983  19.323  0.00  0.00    +0.000 A 
ATOM     14  O   UNL     1       5.030   5.501  19.563  0.00  0.00    +0.000 OA
ENDBRANCH   4   7
BRANCH   1  16
ATOM     15  C   UNL     1       8.089   5.485  13.218  0.00  0.00    +0.000 C 
ATOM     16  C   UNL     1       6.814   5.242  14.047  0.00  0.00    +0.000 C 
ATOM     17  C   UNL     1       6.288   3.854  13.636  0.00  0.00    +0.000 C 
ENDBRANCH   1  16
TORSDOF 2
ENDMDL
MODEL 6
REMARK VINA RESULT:      -6.0      2.278      3.240
REMARK  Name = 
REMARK  4 active torsions:
REMARK  status: ('A' for Active; 'I' for Inactive)
REMARK    1  A    between atoms: C_1  and  C_2
REMARK    2  A    between atoms: C_2  and  C_3
REMARK    3  A    between atoms: C_2  and  N_4
REMARK    4  A    between atoms: N_7  and  C_8
REMARK                            x       y       z     vdW  Elec       q    Type
REMARK                         _______ _______ _______ _____ _____    ______ ____
ROOT
ATOM      1  N   UNL     1       6.626   5.850  15.583  0.00  0.00    +0.000 NA
ATOM      2  C   UNL     1       5.143   5.907  15.669  0.00  0.00    +0.000 C 
ATOM      3  C   UNL     1       4.465   4.730  16.411  0.00  0.00    +0.000 C 
ATOM      4  N   UNL     1       5.069   4.489  17.731  0.00  0.00    +0.000 N 
ATOM      5  C   UNL     1       6.543   4.545  17.785  0.00  0.00    +0.000 C 
ATOM      6  C   UNL     1       7.108   5.739  16.984  0.00  0.00    +0.000 C 
ENDROOT
BRANCH   4   7
ATOM      7  C   UNL     1       4.285   4.180  18.863  0.00  0.00    +0.000 A 
ATOM      8  C   UNL     1       4.329   2.936  19.375  0.00  0.00    +0.000 A 
ATOM      9  C   UNL     1       3.665   2.315  20.486  0.00  0.00    +0.000 A 
ATOM     10  C   UNL     1       2.723   2.810  21.292  0.00  0.00    +0.000 A 
ATOM     11  C   UNL     1       2.129   4.111  21.260  0.00  0.00    +0.000 A 
ATOM     12  C   UNL     1       2.424   5.149  20.468  0.00  0.00    +0.000 A 
ATOM     13  C   UNL     1       3.407   5.306  19.374  0.00  0.00    +0.000 A 
ATOM     14  O   UNL     1       3.454   6.425  18.853  0.00  0.00    +0.000 OA
ENDBRANCH   4   7
BRANCH   1  16
ATOM     15  C   UNL     1       5.914   4.015  14.080  0.00  0.00    +0.000 C 
ATOM     16  C   UNL     1       7.108   4.790  14.667  0.00  0.00    +0.000 C 
ATOM     17  C   UNL     1       7.916   5.317  13.466  0.00  0.00    +0.000 C 
ENDBRANCH   1  16
TORSDOF 2
ENDMDL
MODEL 7
REMARK VINA RESULT:      -6.0      2.377      6.247
REMARK  Name = 
REMARK  4 active torsions:
REMARK  status: ('A' for Active; 'I' for Inactive)
REMARK    1  A    between atoms: C_1  and  C_2
REMARK    2  A    between atoms: C_2  and  C_3
REMARK    3  A    between atoms: C_2  and  N_4
REMARK    4  A    between atoms: N_7  and  C_8
REMARK                            x       y       z     vdW  Elec       q    Type
REMARK                         _______ _______ _______ _____ _____    ______ ____
ROOT
ATOM      1  N   UNL     1       2.039   2.593  19.376  0.00  0.00    +0.000 NA
ATOM      2  C   UNL     1       1.740   3.419  18.176  0.00  0.00    +0.000 C 
ATOM      3  C   UNL     1       2.782   4.511  17.833  0.00  0.00    +0.000 C 
ATOM      4  N   UNL     1       4.150   3.972  17.785  0.00  0.00    +0.000 N 
ATOM      5  C   UNL     1       4.510   3.028  18.862  0.00  0.00    +0.000 C 
ATOM      6  C   UNL     1       3.383   2.009  19.139  0.00  0.00    +0.000 C 
ENDROOT
BRANCH   4   7
ATOM      7  C   UNL     1       5.073   4.370  16.793  0.00  0.00    +0.000 A 
ATOM      8  C   UNL     1       5.020   3.798  15.576  0.00  0.00    +0.000 A 
ATOM      9  C   UNL     1       5.799   3.971  14.384  0.00  0.00    +0.000 A 
ATOM     10  C   UNL     1       6.885   4.722  14.185  0.00  0.00    +0.000 A 
ATOM     11  C   UNL     1       7.557   5.568  15.122  0.00  0.00    +0.000 A 
ATOM     12  C   UNL     1       7.218   5.855  16.385  0.00  0.00    +0.000 A 
ATOM     13  C   UNL     1       6.095   5.401  17.232  0.00  0.00    +0.000 A 
ATOM     14  O   UNL     1       6.048   5.889  18.367  0.00  0.00    +0.000 OA
ENDBRANCH   4   7
BRANCH   1  16
ATOM     15  C   UNL     1       0.825   4.443  20.490  0.00  0.00    +0.000 C 
ATOM     16  C   UNL     1       1.897   3.348  20.643  0.00  0.00    +0.000 C 
ATOM     17  C   UNL     1       1.467   2.485  21.843  0.00  0.00    +0.000 C 
ENDBRANCH   1  16
TORSDOF 2
ENDMDL
MODEL 8
REMARK VINA RESULT:      -6.0      1.515      5.935
REMARK  Name = 
REMARK  4 active torsions:
REMARK  status: ('A' for Active; 'I' for Inactive)
REMARK    1  A    between atoms: C_1  and  C_2
REMARK    2  A    between atoms: C_2  and  C_3
REMARK    3  A    between atoms: C_2  and  N_4
REMARK    4  A    between atoms: N_7  and  C_8
REMARK                            x       y       z     vdW  Elec       q    Type
REMARK                         _______ _______ _______ _____ _____    ______ ____
ROOT
ATOM      1  N   UNL     1       1.466   3.363  17.781  0.00  0.00    +0.000 NA
ATOM      2  C   UNL     1       1.646   4.838  17.853  0.00  0.00    +0.000 C 
ATOM      3  C   UNL     1       2.821   5.332  18.730  0.00  0.00    +0.000 C 
ATOM      4  N   UNL     1       4.082   4.654  18.394  0.00  0.00    +0.000 N 
ATOM      5  C   UNL     1       3.993   3.198  18.166  0.00  0.00    +0.000 C 
ATOM      6  C   UNL     1       2.766   2.821  17.307  0.00  0.00    +0.000 C 
ENDROOT
BRANCH   4   7
ATOM      7  C   UNL     1       5.309   5.351  18.338  0.00  0.00    +0.000 A 
ATOM      8  C   UNL     1       6.235   5.133  19.290  0.00  0.00    +0.000 A 
ATOM      9  C   UNL     1       7.546   5.671  19.516  0.00  0.00    +0.000 A 
ATOM     10  C   UNL     1       8.188   6.638  18.856  0.00  0.00    +0.000 A 
ATOM     11  C   UNL     1       7.731   7.390  17.729  0.00  0.00    +0.000 A 
ATOM     12  C   UNL     1       6.593   7.257  17.037  0.00  0.00    +0.000 A 
ATOM     13  C   UNL     1       5.442   6.344  17.199  0.00  0.00    +0.000 A 
ATOM     14  O   UNL     1       4.545   6.456  16.356  0.00  0.00    +0.000 OA
ENDBRANCH   4   7
BRANCH   1  16
ATOM     15  C   UNL     1       1.964   1.733  19.577  0.00  0.00    +0.000 C 
ATOM     16  C   UNL     1       0.968   2.782  19.049  0.00  0.00    +0.000 C 
ATOM     17  C   UNL     1       0.782   3.811  20.180  0.00  0.00    +0.000 C 
ENDBRANCH   1  16
TORSDOF 2
ENDMDL
MODEL 9
REMARK VINA RESULT:      -5.9      1.919      2.844
REMARK  Name = 
REMARK  4 active torsions:
REMARK  status: ('A' for Active; 'I' for Inactive)
REMARK    1  A    between atoms: C_1  and  C_2
REMARK    2  A    between atoms: C_2  and  C_3
REMARK    3  A    between atoms: C_2  and  N_4
REMARK    4  A    between atoms: N_7  and  C_8
REMARK                            x       y       z     vdW  Elec       q    Type
REMARK                         _______ _______ _______ _____ _____    ______ ____
ROOT
ATOM      1  N   UNL     1       6.981   5.433  15.745  0.00  0.00    +0.000 NA
ATOM      2  C   UNL     1       6.156   6.516  16.344  0.00  0.00    +0.000 C 
ATOM      3  C   UNL     1       4.651   6.201  16.515  0.00  0.00    +0.000 C 
ATOM      4  N   UNL     1       4.431   4.919  17.202  0.00  0.00    +0.000 N 
ATOM      5  C   UNL     1       5.297   3.802  16.776  0.00  0.00    +0.000 C 
ATOM      6  C   UNL     1       6.767   4.241  16.606  0.00  0.00    +0.000 C 
ENDROOT
BRANCH   4   7
ATOM      7  C   UNL     1       3.421   4.760  18.176  0.00  0.00    +0.000 A 
ATOM      8  C   UNL     1       3.515   5.432  19.339  0.00  0.00    +0.000 A 
ATOM      9  C   UNL     1       2.682   5.482  20.505  0.00  0.00    +0.000 A 
ATOM     10  C   UNL     1       1.584   4.778  20.791  0.00  0.00    +0.000 A 
ATOM     11  C   UNL     1       0.941   3.782  19.990  0.00  0.00    +0.000 A 
ATOM     12  C   UNL     1       1.246   3.377  18.751  0.00  0.00    +0.000 A 
ATOM     13  C   UNL     1       2.323   3.776  17.820  0.00  0.00    +0.000 A 
ATOM     14  O   UNL     1       2.308   3.224  16.715  0.00  0.00    +0.000 OA
ENDBRANCH   4   7
BRANCH   1  16
ATOM     15  C   UNL     1       7.969   5.494  13.475  0.00  0.00    +0.000 C 
ATOM     16  C   UNL     1       6.700   5.226  14.306  0.00  0.00    +0.000 C 
ATOM     17  C   UNL     1       6.245   3.798  13.954  0.00  0.00    +0.000 C 
ENDBRANCH   1  16
TORSDOF 2
ENDMDL
