MODEL 1
REMARK VINA RESULT:      -7.0      0.000      0.000
REMARK  Name = 
REMARK  11 active torsions:
REMARK  status: ('A' for Active; 'I' for Inactive)
REMARK    1  A    between atoms: C_1  and  O_2
REMARK    2  A    between atoms: O_2  and  C_3
REMARK    3  A    between atoms: C_6  and  O_7
REMARK    4  A    between atoms: O_7  and  C_8
REMARK    5  A    between atoms: C_8  and  C_9
REMARK    6  A    between atoms: N_11  and  N_12
REMARK    7  A    between atoms: C_13  and  C_14
REMARK    8  A    between atoms: C_13  and  C_19
REMARK    9  A    between atoms: C_14  and  C_15
REMARK   10  A    between atoms: C_15  and  C_16
REMARK   11  A    between atoms: C_16  and  O_18
REMARK                            x       y       z     vdW  Elec       q    Type
REMARK                         _______ _______ _______ _____ _____    ______ ____
ROOT
ATOM      1  C   UNL     1       6.196   6.706  17.001  0.00  0.00    +0.000 C 
ATOM      2  O   UNL     1       6.661   7.834  17.157  0.00  0.00    +0.000 OA
ATOM      3  N   UNL     1       4.859   6.364  17.179  0.00  0.00    +0.000 N 
ATOM      4  H   UNL     1       4.576   5.406  17.019  0.00  0.00    +0.000 HD
ENDROOT
BRANCH   3   5
ATOM      5  N   UNL     1       3.938   7.310  17.528  0.00  0.00    +0.000 NA
ATOM      6  C   UNL     1       2.951   7.020  18.330  0.00  0.00    +0.000 C 
BRANCH   6   7
ATOM      7  C   UNL     1       2.078   8.138  18.714  0.00  0.00    +0.000 A 
ATOM      8  C   UNL     1       1.635   9.169  17.899  0.00  0.00    +0.000 A 
ATOM      9  C   UNL     1       0.810  10.109  18.581  0.00  0.00    +0.000 A 
ATOM     10  C   UNL     1       0.640   9.775  19.904  0.00  0.00    +0.000 A 
ATOM     11  S   UNL     1       1.477   8.343  20.309  0.00  0.00    +0.000 S 
ENDBRANCH   6   7
BRANCH   6  12
ATOM     12  C   UNL     1       2.637   5.605  18.830  0.00  0.00    +0.000 C 
BRANCH  12  13
ATOM     13  C   UNL     1       1.802   4.805  17.828  0.00  0.00    +0.000 C 
BRANCH  13  14
ATOM     14  C   UNL     1       2.216   3.355  17.736  0.00  0.00    +0.000 C 
ATOM     15  O   UNL     1       3.326   2.977  17.408  0.00  0.00    +0.000 OA
BRANCH  14  16
ATOM     16  O   UNL     1       1.251   2.506  18.154  0.00  0.00    +0.000 OA
ATOM     17  H   UNL     1       0.975   1.830  17.498  0.00  0.00    +0.000 HD
ENDBRANCH  14  16
ENDBRANCH  13  14
ENDBRANCH  12  13
ENDBRANCH   6  12
ENDBRANCH   3   5
BRANCH   1  18
ATOM     18  C   UNL     1       7.061   5.517  16.563  0.00  0.00    +0.000 C 
BRANCH  18  19
ATOM     19  O   UNL     1       7.581   5.782  15.262  0.00  0.00    +0.000 OA
BRANCH  19  23
ATOM     20  C   UNL     1       5.993   3.326  12.280  0.00  0.00    +0.000 A 
ATOM     21  C   UNL     1       5.487   3.333  13.579  0.00  0.00    +0.000 A 
ATOM     22  C   UNL     1       6.055   4.161  14.554  0.00  0.00    +0.000 A 
ATOM     23  C   UNL     1       7.157   4.962  14.251  0.00  0.00    +0.000 A 
ATOM     24  C   UNL     1       7.684   4.933  12.959  0.00  0.00    +0.000 A 
ATOM     25  C   UNL     1       7.099   4.116  11.974  0.00  0.00    +0.000 A 
BRANCH  20  27
ATOM     26  C   UNL     1       5.979   1.230  11.176  0.00  0.00    +0.000 C 
ATOM     27  O   UNL     1       5.349   2.486  11.412  0.00  0.00    +0.000 OA
ENDBRANCH  20  27
ENDBRANCH  19  23
ENDBRANCH  18  19
ENDBRANCH   1  18
TORSDOF 10
ENDMDL
MODEL 2
REMARK VINA RESULT:      -7.0      1.233      1.565
REMARK  Name = 
REMARK  11 active torsions:
REMARK  status: ('A' for Active; 'I' for Inactive)
REMARK    1  A    between atoms: C_1  and  O_2
REMARK    2  A    between atoms: O_2  and  C_3
REMARK    3  A    between atoms: C_6  and  O_7
REMARK    4  A    between atoms: O_7  and  C_8
REMARK    5  A    between atoms: C_8  and  C_9
REMARK    6  A    between atoms: N_11  and  N_12
REMARK    7  A    between atoms: C_13  and  C_14
REMARK    8  A    between atoms: C_13  and  C_19
REMARK    9  A    between atoms: C_14  and  C_15
REMARK   10  A    between atoms: C_15  and  C_16
REMARK   11  A    between atoms: C_16  and  O_18
REMARK                            x       y       z     vdW  Elec       q    Type
REMARK                         _______ _______ _______ _____ _____    ______ ____
ROOT
ATOM      1  C   UNL     1       6.367   5.887  17.589  0.00  0.00    +0.000 C 
ATOM      2  O   UNL     1       6.750   6.273  18.691  0.00  0.00    +0.000 OA
ATOM      3  N   UNL     1       5.152   6.229  17.002  0.00  0.00    +0.000 N 
ATOM      4  H   UNL     1       4.934   5.861  16.086  0.00  0.00    +0.000 HD
ENDROOT
BRANCH   3   5
ATOM      5  N   UNL     1       4.286   7.073  17.636  0.00  0.00    +0.000 NA
ATOM      6  C   UNL     1       3.163   6.632  18.131  0.00  0.00    +0.000 C 
BRANCH   6   7
ATOM      7  C   UNL     1       2.355   7.608  18.876  0.00  0.00    +0.000 A 
ATOM      8  C   UNL     1       1.966   7.529  20.205  0.00  0.00    +0.000 A 
ATOM      9  C   UNL     1       1.171   8.636  20.623  0.00  0.00    +0.000 A 
ATOM     10  C   UNL     1       0.970   9.536  19.604  0.00  0.00    +0.000 A 
ATOM     11  S   UNL     1       1.732   9.039  18.159  0.00  0.00    +0.000 S 
ENDBRANCH   6   7
BRANCH   6  12
ATOM     12  C   UNL     1       2.637   5.205  17.933  0.00  0.00    +0.000 C 
BRANCH  12  13
ATOM     13  C   UNL     1       3.065   4.264  19.061  0.00  0.00    +0.000 C 
BRANCH  13  14
ATOM     14  C   UNL     1       3.955   3.138  18.588  0.00  0.00    +0.000 C 
ATOM     15  O   UNL     1       3.637   2.321  17.741  0.00  0.00    +0.000 OA
BRANCH  14  16
ATOM     16  O   UNL     1       5.192   3.184  19.129  0.00  0.00    +0.000 OA
ATOM     17  H   UNL     1       5.597   4.077  19.173  0.00  0.00    +0.000 HD
ENDBRANCH  14  16
ENDBRANCH  13  14
ENDBRANCH  12  13
ENDBRANCH   6  12
ENDBRANCH   3   5
BRANCH   1  18
ATOM     18  C   UNL     1       7.219   4.970  16.700  0.00  0.00    +0.000 C 
BRANCH  18  19
ATOM     19  O   UNL     1       7.371   5.582  15.422  0.00  0.00    +0.000 OA
BRANCH  19  23
ATOM     20  C   UNL     1       5.840   3.422  12.190  0.00  0.00    +0.000 A 
ATOM     21  C   UNL     1       5.215   3.433  13.436  0.00  0.00    +0.000 A 
ATOM     22  C   UNL     1       5.766   4.158  14.498  0.00  0.00    +0.000 A 
ATOM     23  C   UNL     1       6.967   4.851  14.338  0.00  0.00    +0.000 A 
ATOM     24  C   UNL     1       7.611   4.817  13.099  0.00  0.00    +0.000 A 
ATOM     25  C   UNL     1       7.044   4.104  12.027  0.00  0.00    +0.000 A 
BRANCH  20  27
ATOM     26  C   UNL     1       3.827   2.999  11.017  0.00  0.00    +0.000 C 
ATOM     27  O   UNL     1       5.202   2.689  11.228  0.00  0.00    +0.000 OA
ENDBRANCH  20  27
ENDBRANCH  19  23
ENDBRANCH  18  19
ENDBRANCH   1  18
TORSDOF 10
ENDMDL
MODEL 3
REMARK VINA RESULT:      -6.8      3.796      9.273
REMARK  Name = 
REMARK  11 active torsions:
REMARK  status: ('A' for Active; 'I' for Inactive)
REMARK    1  A    between atoms: C_1  and  O_2
REMARK    2  A    between atoms: O_2  and  C_3
REMARK    3  A    between atoms: C_6  and  O_7
REMARK    4  A    between atoms: O_7  and  C_8
REMARK    5  A    between atoms: C_8  and  C_9
REMARK    6  A    between atoms: N_11  and  N_12
REMARK    7  A    between atoms: C_13  and  C_14
REMARK    8  A    between atoms: C_13  and  C_19
REMARK    9  A    between atoms: C_14  and  C_15
REMARK   10  A    between atoms: C_15  and  C_16
REMARK   11  A    between atoms: C_16  and  O_18
REMARK                            x       y       z     vdW  Elec       q    Type
REMARK                         _______ _______ _______ _____ _____    ______ ____
ROOT
ATOM      1  C   UNL     1       2.285   7.242  19.772  0.00  0.00    +0.000 C 
ATOM      2  O   UNL     1       2.404   8.060  18.862  0.00  0.00    +0.000 OA
ATOM      3  N   UNL     1       3.048   6.086  19.910  0.00  0.00    +0.000 N 
ATOM      4  H   UNL     1       2.874   5.480  20.700  0.00  0.00    +0.000 HD
ENDROOT
BRANCH   3   5
ATOM      5  N   UNL     1       4.037   5.794  19.014  0.00  0.00    +0.000 NA
ATOM      6  C   UNL     1       3.796   5.046  17.972  0.00  0.00    +0.000 C 
BRANCH   6   7
ATOM      7  C   UNL     1       4.908   4.877  17.026  0.00  0.00    +0.000 A 
ATOM      8  C   UNL     1       4.944   4.037  15.923  0.00  0.00    +0.000 A 
ATOM      9  C   UNL     1       6.179   4.095  15.214  0.00  0.00    +0.000 A 
ATOM     10  C   UNL     1       7.059   4.978  15.792  0.00  0.00    +0.000 A 
ATOM     11  S   UNL     1       6.395   5.722  17.178  0.00  0.00    +0.000 S 
ENDBRANCH   6   7
BRANCH   6  12
ATOM     12  C   UNL     1       2.470   4.316  17.725  0.00  0.00    +0.000 C 
BRANCH  12  13
ATOM     13  C   UNL     1       2.341   3.044  18.564  0.00  0.00    +0.000 C 
BRANCH  13  14
ATOM     14  C   UNL     1       0.970   2.878  19.180  0.00  0.00    +0.000 C 
ATOM     15  O   UNL     1       0.143   2.066  18.804  0.00  0.00    +0.000 OA
BRANCH  14  16
ATOM     16  O   UNL     1       0.784   3.659  20.267  0.00  0.00    +0.000 OA
ATOM     17  H   UNL     1       0.322   3.227  21.018  0.00  0.00    +0.000 HD
ENDBRANCH  14  16
ENDBRANCH  13  14
ENDBRANCH  12  13
ENDBRANCH   6  12
ENDBRANCH   3   5
BRANCH   1  18
ATOM     18  C   UNL     1       1.262   7.418  20.902  0.00  0.00    +0.000 C 
BRANCH  18  19
ATOM     19  O   UNL     1       1.671   8.507  21.726  0.00  0.00    +0.000 OA
BRANCH  19  23
ATOM     20  C   UNL     1      -1.269  11.434  22.213  0.00  0.00    +0.000 A 
ATOM     21  C   UNL     1      -0.442  11.396  21.092  0.00  0.00    +0.000 A 
ATOM     22  C   UNL     1       0.541  10.408  20.972  0.00  0.00    +0.000 A 
ATOM     23  C   UNL     1       0.732   9.468  21.986  0.00  0.00    +0.000 A 
ATOM     24  C   UNL     1      -0.075   9.523  23.124  0.00  0.00    +0.000 A 
ATOM     25  C   UNL     1      -1.077  10.505  23.234  0.00  0.00    +0.000 A 
BRANCH  20  27
ATOM     26  C   UNL     1      -3.053  12.496  23.353  0.00  0.00    +0.000 C 
ATOM     27  O   UNL     1      -2.199  12.437  22.213  0.00  0.00    +0.000 OA
ENDBRANCH  20  27
ENDBRANCH  19  23
ENDBRANCH  18  19
ENDBRANCH   1  18
TORSDOF 10
ENDMDL
MODEL 4
REMARK VINA RESULT:      -6.7      4.635      7.766
REMARK  Name = 
REMARK  11 active torsions:
REMARK  status: ('A' for Active; 'I' for Inactive)
REMARK    1  A    between atoms: C_1  and  O_2
REMARK    2  A    between atoms: O_2  and  C_3
REMARK    3  A    between atoms: C_6  and  O_7
REMARK    4  A    between atoms: O_7  and  C_8
REMARK    5  A    between atoms: C_8  and  C_9
REMARK    6  A    between atoms: N_11  and  N_12
REMARK    7  A    between atoms: C_13  and  C_14
REMARK    8  A    between atoms: C_13  and  C_19
REMARK    9  A    between atoms: C_14  and  C_15
REMARK   10  A    between atoms: C_15  and  C_16
REMARK   11  A    between atoms: C_16  and  O_18
REMARK                            x       y       z     vdW  Elec       q    Type
REMARK                         _______ _______ _______ _____ _____    ______ ____
ROOT
ATOM      1  C   UNL     1       7.467   7.030  18.092  0.00  0.00    +0.000 C 
ATOM      2  O   UNL     1       8.077   6.281  18.852  0.00  0.00    +0.000 OA
ATOM      3  N   UNL     1       6.271   6.717  17.453  0.00  0.00    +0.000 N 
ATOM      4  H   UNL     1       5.846   7.409  16.850  0.00  0.00    +0.000 HD
ENDROOT
BRANCH   3   5
ATOM      5  N   UNL     1       5.664   5.512  17.663  0.00  0.00    +0.000 NA
ATOM      6  C   UNL     1       4.390   5.442  17.937  0.00  0.00    +0.000 C 
BRANCH   6   7
ATOM      7  C   UNL     1       3.825   4.090  18.047  0.00  0.00    +0.000 A 
ATOM      8  C   UNL     1       2.885   3.508  17.209  0.00  0.00    +0.000 A 
ATOM      9  C   UNL     1       2.530   2.184  17.598  0.00  0.00    +0.000 A 
ATOM     10  C   UNL     1       3.208   1.783  18.725  0.00  0.00    +0.000 A 
ATOM     11  S   UNL     1       4.255   3.001  19.303  0.00  0.00    +0.000 S 
ENDBRANCH   6   7
BRANCH   6  12
ATOM     12  C   UNL     1       3.498   6.662  18.195  0.00  0.00    +0.000 C 
BRANCH  12  13
ATOM     13  C   UNL     1       2.505   6.427  19.334  0.00  0.00    +0.000 C 
BRANCH  13  14
ATOM     14  C   UNL     1       1.978   7.710  19.935  0.00  0.00    +0.000 C 
ATOM     15  O   UNL     1       1.613   8.673  19.285  0.00  0.00    +0.000 OA
BRANCH  14  16
ATOM     16  O   UNL     1       1.857   7.649  21.279  0.00  0.00    +0.000 OA
ATOM     17  H   UNL     1       1.396   8.411  21.693  0.00  0.00    +0.000 HD
ENDBRANCH  14  16
ENDBRANCH  13  14
ENDBRANCH  12  13
ENDBRANCH   6  12
ENDBRANCH   3   5
BRANCH   1  18
ATOM     18  C   UNL     1       7.962   8.446  17.767  0.00  0.00    +0.000 C 
BRANCH  18  19
ATOM     19  O   UNL     1       8.857   8.867  18.794  0.00  0.00    +0.000 OA
BRANCH  19  23
ATOM     20  C   UNL     1       9.686  12.916  19.400  0.00  0.00    +0.000 A 
ATOM     21  C   UNL     1       9.734  11.987  20.438  0.00  0.00    +0.000 A 
ATOM     22  C   UNL     1       9.436  10.642  20.198  0.00  0.00    +0.000 A 
ATOM     23  C   UNL     1       9.052  10.215  18.926  0.00  0.00    +0.000 A 
ATOM     24  C   UNL     1       8.974  11.148  17.891  0.00  0.00    +0.000 A 
ATOM     25  C   UNL     1       9.294  12.498  18.129  0.00  0.00    +0.000 A 
BRANCH  20  27
ATOM     26  C   UNL     1       9.050  15.196  19.417  0.00  0.00    +0.000 C 
ATOM     27  O   UNL     1      10.009  14.198  19.753  0.00  0.00    +0.000 OA
ENDBRANCH  20  27
ENDBRANCH  19  23
ENDBRANCH  18  19
ENDBRANCH   1  18
TORSDOF 10
ENDMDL
MODEL 5
REMARK VINA RESULT:      -6.7      3.763      9.171
REMARK  Name = 
REMARK  11 active torsions:
REMARK  status: ('A' for Active; 'I' for Inactive)
REMARK    1  A    between atoms: C_1  and  O_2
REMARK    2  A    between atoms: O_2  and  C_3
REMARK    3  A    between atoms: C_6  and  O_7
REMARK    4  A    between atoms: O_7  and  C_8
REMARK    5  A    between atoms: C_8  and  C_9
REMARK    6  A    between atoms: N_11  and  N_12
REMARK    7  A    between atoms: C_13  and  C_14
REMARK    8  A    between atoms: C_13  and  C_19
REMARK    9  A    between atoms: C_14  and  C_15
REMARK   10  A    between atoms: C_15  and  C_16
REMARK   11  A    between atoms: C_16  and  O_18
REMARK                            x       y       z     vdW  Elec       q    Type
REMARK                         _______ _______ _______ _____ _____    ______ ____
ROOT
ATOM      1  C   UNL     1       2.256   7.025  19.852  0.00  0.00    +0.000 C 
ATOM      2  O   UNL     1       2.427   7.863  18.969  0.00  0.00    +0.000 OA
ATOM      3  N   UNL     1       3.015   5.869  20.013  0.00  0.00    +0.000 N 
ATOM      4  H   UNL     1       2.795   5.246  20.779  0.00  0.00    +0.000 HD
ENDROOT
BRANCH   3   5
ATOM      5  N   UNL     1       4.059   5.599  19.176  0.00  0.00    +0.000 NA
ATOM      6  C   UNL     1       3.874   4.936  18.067  0.00  0.00    +0.000 C 
BRANCH   6   7
ATOM      7  C   UNL     1       5.049   4.788  17.197  0.00  0.00    +0.000 A 
ATOM      8  C   UNL     1       5.054   4.447  15.853  0.00  0.00    +0.000 A 
ATOM      9  C   UNL     1       6.365   4.371  15.299  0.00  0.00    +0.000 A 
ATOM     10  C   UNL     1       7.332   4.657  16.232  0.00  0.00    +0.000 A 
ATOM     11  S   UNL     1       6.657   5.007  17.760  0.00  0.00    +0.000 S 
ENDBRANCH   6   7
BRANCH   6  12
ATOM     12  C   UNL     1       2.547   4.279  17.670  0.00  0.00    +0.000 C 
BRANCH  12  13
ATOM     13  C   UNL     1       2.378   2.889  18.286  0.00  0.00    +0.000 C 
BRANCH  13  14
ATOM     14  C   UNL     1       1.098   2.744  19.077  0.00  0.00    +0.000 C 
ATOM     15  O   UNL     1       0.835   3.381  20.081  0.00  0.00    +0.000 OA
BRANCH  14  16
ATOM     16  O   UNL     1       0.216   1.898  18.499  0.00  0.00    +0.000 OA
ATOM     17  H   UNL     1      -0.007   2.100  17.565  0.00  0.00    +0.000 HD
ENDBRANCH  14  16
ENDBRANCH  13  14
ENDBRANCH  12  13
ENDBRANCH   6  12
ENDBRANCH   3   5
BRANCH   1  18
ATOM     18  C   UNL     1       1.163   7.173  20.920  0.00  0.00    +0.000 C 
BRANCH  18  19
ATOM     19  O   UNL     1       1.447   8.325  21.710  0.00  0.00    +0.000 OA
BRANCH  19  23
ATOM     20  C   UNL     1      -1.243  11.517  21.867  0.00  0.00    +0.000 A 
ATOM     21  C   UNL     1      -0.921  10.765  22.995  0.00  0.00    +0.000 A 
ATOM     22  C   UNL     1      -0.025   9.694  22.900  0.00  0.00    +0.000 A 
ATOM     23  C   UNL     1       0.530   9.340  21.669  0.00  0.00    +0.000 A 
ATOM     24  C   UNL     1       0.185  10.073  20.532  0.00  0.00    +0.000 A 
ATOM     25  C   UNL     1      -0.699  11.162  20.633  0.00  0.00    +0.000 A 
BRANCH  20  27
ATOM     26  C   UNL     1      -1.996  13.212  23.338  0.00  0.00    +0.000 C 
ATOM     27  O   UNL     1      -2.119  12.545  22.085  0.00  0.00    +0.000 OA
ENDBRANCH  20  27
ENDBRANCH  19  23
ENDBRANCH  18  19
ENDBRANCH   1  18
TORSDOF 10
ENDMDL
MODEL 6
REMARK VINA RESULT:      -6.7      4.233      8.795
REMARK  Name = 
REMARK  11 active torsions:
REMARK  status: ('A' for Active; 'I' for Inactive)
REMARK    1  A    between atoms: C_1  and  O_2
REMARK    2  A    between atoms: O_2  and  C_3
REMARK    3  A    between atoms: C_6  and  O_7
REMARK    4  A    between atoms: O_7  and  C_8
REMARK    5  A    between atoms: C_8  and  C_9
REMARK    6  A    between atoms: N_11  and  N_12
REMARK    7  A    between atoms: C_13  and  C_14
REMARK    8  A    between atoms: C_13  and  C_19
REMARK    9  A    between atoms: C_14  and  C_15
REMARK   10  A    between atoms: C_15  and  C_16
REMARK   11  A    between atoms: C_16  and  O_18
REMARK                            x       y       z     vdW  Elec       q    Type
REMARK                         _______ _______ _______ _____ _____    ______ ____
ROOT
ATOM      1  C   UNL     1       1.627   9.442  17.942  0.00  0.00    +0.000 C 
ATOM      2  O   UNL     1       2.489  10.230  17.558  0.00  0.00    +0.000 OA
ATOM      3  N   UNL     1       1.831   8.083  18.161  0.00  0.00    +0.000 N 
ATOM      4  H   UNL     1       1.054   7.521  18.483  0.00  0.00    +0.000 HD
ENDROOT
BRANCH   3   5
ATOM      5  N   UNL     1       3.063   7.525  17.978  0.00  0.00    +0.000 NA
ATOM      6  C   UNL     1       3.246   6.241  18.128  0.00  0.00    +0.000 C 
BRANCH   6   7
ATOM      7  C   UNL     1       4.590   5.737  17.812  0.00  0.00    +0.000 A 
ATOM      8  C   UNL     1       5.475   5.120  18.683  0.00  0.00    +0.000 A 
ATOM      9  C   UNL     1       6.709   4.761  18.067  0.00  0.00    +0.000 A 
ATOM     10  C   UNL     1       6.739   5.112  16.739  0.00  0.00    +0.000 A 
ATOM     11  S   UNL     1       5.290   5.871  16.250  0.00  0.00    +0.000 S 
ENDBRANCH   6   7
BRANCH   6  12
ATOM     12  C   UNL     1       2.176   5.276  18.653  0.00  0.00    +0.000 C 
BRANCH  12  13
ATOM     13  C   UNL     1       1.857   4.162  17.655  0.00  0.00    +0.000 C 
BRANCH  13  14
ATOM     14  C   UNL     1       1.543   2.842  18.321  0.00  0.00    +0.000 C 
ATOM     15  O   UNL     1       0.657   2.681  19.142  0.00  0.00    +0.000 OA
BRANCH  14  16
ATOM     16  O   UNL     1       2.286   1.821  17.840  0.00  0.00    +0.000 OA
ATOM     17  H   UNL     1       1.894   0.928  17.955  0.00  0.00    +0.000 HD
ENDBRANCH  14  16
ENDBRANCH  13  14
ENDBRANCH  12  13
ENDBRANCH   6  12
ENDBRANCH   3   5
BRANCH   1  18
ATOM     18  C   UNL     1       0.190   9.886  18.248  0.00  0.00    +0.000 C 
BRANCH  18  19
ATOM     19  O   UNL     1      -0.677   9.358  17.247  0.00  0.00    +0.000 OA
BRANCH  19  23
ATOM     20  C   UNL     1      -4.264  11.478  16.964  0.00  0.00    +0.000 A 
ATOM     21  C   UNL     1      -3.536  11.411  18.150  0.00  0.00    +0.000 A 
ATOM     22  C   UNL     1      -2.346  10.679  18.209  0.00  0.00    +0.000 A 
ATOM     23  C   UNL     1      -1.888   9.977  17.094  0.00  0.00    +0.000 A 
ATOM     24  C   UNL     1      -2.631  10.018  15.913  0.00  0.00    +0.000 A 
ATOM     25  C   UNL     1      -3.818  10.771  15.849  0.00  0.00    +0.000 A 
BRANCH  20  27
ATOM     26  C   UNL     1      -5.871  12.553  18.332  0.00  0.00    +0.000 C 
ATOM     27  O   UNL     1      -5.404  12.233  17.024  0.00  0.00    +0.000 OA
ENDBRANCH  20  27
ENDBRANCH  19  23
ENDBRANCH  18  19
ENDBRANCH   1  18
TORSDOF 10
ENDMDL
MODEL 7
REMARK VINA RESULT:      -6.7      3.918      9.268
REMARK  Name = 
REMARK  11 active torsions:
REMARK  status: ('A' for Active; 'I' for Inactive)
REMARK    1  A    between atoms: C_1  and  O_2
REMARK    2  A    between atoms: O_2  and  C_3
REMARK    3  A    between atoms: C_6  and  O_7
REMARK    4  A    between atoms: O_7  and  C_8
REMARK    5  A    between atoms: C_8  and  C_9
REMARK    6  A    between atoms: N_11  and  N_12
REMARK    7  A    between atoms: C_13  and  C_14
REMARK    8  A    between atoms: C_13  and  C_19
REMARK    9  A    between atoms: C_14  and  C_15
REMARK   10  A    between atoms: C_15  and  C_16
REMARK   11  A    between atoms: C_16  and  O_18
REMARK                            x       y       z     vdW  Elec       q    Type
REMARK                         _______ _______ _______ _____ _____    ______ ____
ROOT
ATOM      1  C   UNL     1       2.295   7.345  19.560  0.00  0.00    +0.000 C 
ATOM      2  O   UNL     1       2.428   8.208  18.695  0.00  0.00    +0.000 OA
ATOM      3  N   UNL     1       3.042   6.174  19.639  0.00  0.00    +0.000 N 
ATOM      4  H   UNL     1       2.858   5.530  20.397  0.00  0.00    +0.000 HD
ENDROOT
BRANCH   3   5
ATOM      5  N   UNL     1       4.030   5.915  18.732  0.00  0.00    +0.000 NA
ATOM      6  C   UNL     1       3.961   4.877  17.946  0.00  0.00    +0.000 C 
BRANCH   6   7
ATOM      7  C   UNL     1       5.030   4.751  16.945  0.00  0.00    +0.000 A 
ATOM      8  C   UNL     1       4.876   4.618  15.573  0.00  0.00    +0.000 A 
ATOM      9  C   UNL     1       6.116   4.503  14.878  0.00  0.00    +0.000 A 
ATOM     10  C   UNL     1       7.189   4.552  15.735  0.00  0.00    +0.000 A 
ATOM     11  S   UNL     1       6.696   4.728  17.360  0.00  0.00    +0.000 S 
ENDBRANCH   6   7
BRANCH   6  12
ATOM     12  C   UNL     1       2.886   3.789  18.050  0.00  0.00    +0.000 C 
BRANCH  12  13
ATOM     13  C   UNL     1       3.458   2.446  18.505  0.00  0.00    +0.000 C 
BRANCH  13  14
ATOM     14  C   UNL     1       3.874   2.441  19.958  0.00  0.00    +0.000 C 
ATOM     15  O   UNL     1       5.006   2.216  20.347  0.00  0.00    +0.000 OA
BRANCH  14  16
ATOM     16  O   UNL     1       2.877   2.812  20.791  0.00  0.00    +0.000 OA
ATOM     17  H   UNL     1       3.111   3.512  21.438  0.00  0.00    +0.000 HD
ENDBRANCH  14  16
ENDBRANCH  13  14
ENDBRANCH  12  13
ENDBRANCH   6  12
ENDBRANCH   3   5
BRANCH   1  18
ATOM     18  C   UNL     1       1.271   7.475  20.696  0.00  0.00    +0.000 C 
BRANCH  18  19
ATOM     19  O   UNL     1       1.714   8.484  21.601  0.00  0.00    +0.000 OA
BRANCH  19  23
ATOM     20  C   UNL     1      -0.851  11.644  22.543  0.00  0.00    +0.000 A 
ATOM     21  C   UNL     1      -0.898  10.426  23.219  0.00  0.00    +0.000 A 
ATOM     22  C   UNL     1      -0.031   9.386  22.865  0.00  0.00    +0.000 A 
ATOM     23  C   UNL     1       0.867   9.539  21.808  0.00  0.00    +0.000 A 
ATOM     24  C   UNL     1       0.895  10.748  21.109  0.00  0.00    +0.000 A 
ATOM     25  C   UNL     1       0.037  11.799  21.480  0.00  0.00    +0.000 A 
BRANCH  20  27
ATOM     26  C   UNL     1      -3.000  12.097  23.428  0.00  0.00    +0.000 C 
ATOM     27  O   UNL     1      -1.737  12.587  22.986  0.00  0.00    +0.000 OA
ENDBRANCH  20  27
ENDBRANCH  19  23
ENDBRANCH  18  19
ENDBRANCH   1  18
TORSDOF 10
ENDMDL
MODEL 8
REMARK VINA RESULT:      -6.6      4.002      9.359
REMARK  Name = 
REMARK  11 active torsions:
REMARK  status: ('A' for Active; 'I' for Inactive)
REMARK    1  A    between atoms: C_1  and  O_2
REMARK    2  A    between atoms: O_2  and  C_3
REMARK    3  A    between atoms: C_6  and  O_7
REMARK    4  A    between atoms: O_7  and  C_8
REMARK    5  A    between atoms: C_8  and  C_9
REMARK    6  A    between atoms: N_11  and  N_12
REMARK    7  A    between atoms: C_13  and  C_14
REMARK    8  A    between atoms: C_13  and  C_19
REMARK    9  A    between atoms: C_14  and  C_15
REMARK   10  A    between atoms: C_15  and  C_16
REMARK   11  A    between atoms: C_16  and  O_18
REMARK                            x       y       z     vdW  Elec       q    Type
REMARK                         _______ _______ _______ _____ _____    ______ ____
ROOT
ATOM      1  C   UNL     1       1.987   7.616  19.901  0.00  0.00    +0.000 C 
ATOM      2  O   UNL     1       1.981   8.444  18.992  0.00  0.00    +0.000 OA
ATOM      3  N   UNL     1       2.770   6.466  19.927  0.00  0.00    +0.000 N 
ATOM      4  H   UNL     1       2.705   5.851  20.727  0.00  0.00    +0.000 HD
ENDROOT
BRANCH   3   5
ATOM      5  N   UNL     1       3.637   6.191  18.908  0.00  0.00    +0.000 NA
ATOM      6  C   UNL     1       3.534   5.086  18.222  0.00  0.00    +0.000 C 
BRANCH   6   7
ATOM      7  C   UNL     1       4.457   4.939  17.088  0.00  0.00    +0.000 A 
ATOM      8  C   UNL     1       4.897   3.754  16.518  0.00  0.00    +0.000 A 
ATOM      9  C   UNL     1       5.805   3.954  15.437  0.00  0.00    +0.000 A 
ATOM     10  C   UNL     1       6.038   5.288  15.205  0.00  0.00    +0.000 A 
ATOM     11  S   UNL     1       5.171   6.282  16.290  0.00  0.00    +0.000 S 
ENDBRANCH   6   7
BRANCH   6  12
ATOM     12  C   UNL     1       2.566   3.948  18.565  0.00  0.00    +0.000 C 
BRANCH  12  13
ATOM     13  C   UNL     1       3.101   3.043  19.676  0.00  0.00    +0.000 C 
BRANCH  13  14
ATOM     14  C   UNL     1       2.383   3.234  20.992  0.00  0.00    +0.000 C 
ATOM     15  O   UNL     1       1.430   3.975  21.153  0.00  0.00    +0.000 OA
BRANCH  14  16
ATOM     16  O   UNL     1       2.843   2.416  21.965  0.00  0.00    +0.000 OA
ATOM     17  H   UNL     1       2.173   1.818  22.361  0.00  0.00    +0.000 HD
ENDBRANCH  14  16
ENDBRANCH  13  14
ENDBRANCH  12  13
ENDBRANCH   6  12
ENDBRANCH   3   5
BRANCH   1  18
ATOM     18  C   UNL     1       1.118   7.772  21.156  0.00  0.00    +0.000 C 
BRANCH  18  19
ATOM     19  O   UNL     1       1.515   8.955  21.846  0.00  0.00    +0.000 OA
BRANCH  19  23
ATOM     20  C   UNL     1      -1.477  11.855  22.136  0.00  0.00    +0.000 A 
ATOM     21  C   UNL     1      -0.557  11.844  21.089  0.00  0.00    +0.000 A 
ATOM     22  C   UNL     1       0.439  10.863  21.034  0.00  0.00    +0.000 A 
ATOM     23  C   UNL     1       0.551   9.906  22.043  0.00  0.00    +0.000 A 
ATOM     24  C   UNL     1      -0.351   9.934  23.109  0.00  0.00    +0.000 A 
ATOM     25  C   UNL     1      -1.365  10.908  23.152  0.00  0.00    +0.000 A 
BRANCH  20  27
ATOM     26  C   UNL     1      -3.236  12.866  20.915  0.00  0.00    +0.000 C 
ATOM     27  O   UNL     1      -2.411  12.853  22.077  0.00  0.00    +0.000 OA
ENDBRANCH  20  27
ENDBRANCH  19  23
ENDBRANCH  18  19
ENDBRANCH   1  18
TORSDOF 10
ENDMDL
MODEL 9
REMARK VINA RESULT:      -6.6      3.950      8.780
REMARK  Name = 
REMARK  11 active torsions:
REMARK  status: ('A' for Active; 'I' for Inactive)
REMARK    1  A    between atoms: C_1  and  O_2
REMARK    2  A    between atoms: O_2  and  C_3
REMARK    3  A    between atoms: C_6  and  O_7
REMARK    4  A    between atoms: O_7  and  C_8
REMARK    5  A    between atoms: C_8  and  C_9
REMARK    6  A    between atoms: N_11  and  N_12
REMARK    7  A    between atoms: C_13  and  C_14
REMARK    8  A    between atoms: C_13  and  C_19
REMARK    9  A    between atoms: C_14  and  C_15
REMARK   10  A    between atoms: C_15  and  C_16
REMARK   11  A    between atoms: C_16  and  O_18
REMARK                            x       y       z     vdW  Elec       q    Type
REMARK                         _______ _______ _______ _____ _____    ______ ____
ROOT
ATOM      1  C   UNL     1       1.806   9.162  18.156  0.00  0.00    +0.000 C 
ATOM      2  O   UNL     1       2.395   9.942  17.410  0.00  0.00    +0.000 OA
ATOM      3  N   UNL     1       2.218   7.862  18.436  0.00  0.00    +0.000 N 
ATOM      4  H   UNL     1       1.664   7.303  19.070  0.00  0.00    +0.000 HD
ENDROOT
BRANCH   3   5
ATOM      5  N   UNL     1       3.368   7.364  17.894  0.00  0.00    +0.000 NA
ATOM      6  C   UNL     1       3.600   6.080  17.880  0.00  0.00    +0.000 C 
BRANCH   6   7
ATOM      7  C   UNL     1       4.822   5.650  17.185  0.00  0.00    +0.000 A 
ATOM      8  C   UNL     1       5.143   5.864  15.853  0.00  0.00    +0.000 A 
ATOM      9  C   UNL     1       6.400   5.305  15.483  0.00  0.00    +0.000 A 
ATOM     10  C   UNL     1       7.013   4.677  16.541  0.00  0.00    +0.000 A 
ATOM     11  S   UNL     1       6.069   4.761  17.961  0.00  0.00    +0.000 S 
ENDBRANCH   6   7
BRANCH   6  12
ATOM     12  C   UNL     1       2.718   5.039  18.579  0.00  0.00    +0.000 C 
BRANCH  12  13
ATOM     13  C   UNL     1       2.255   3.935  17.628  0.00  0.00    +0.000 C 
BRANCH  13  14
ATOM     14  C   UNL     1       2.551   2.546  18.145  0.00  0.00    +0.000 C 
ATOM     15  O   UNL     1       1.751   1.853  18.749  0.00  0.00    +0.000 OA
BRANCH  14  16
ATOM     16  O   UNL     1       3.773   2.099  17.781  0.00  0.00    +0.000 OA
ATOM     17  H   UNL     1       4.226   1.534  18.443  0.00  0.00    +0.000 HD
ENDBRANCH  14  16
ENDBRANCH  13  14
ENDBRANCH  12  13
ENDBRANCH   6  12
ENDBRANCH   3   5
BRANCH   1  18
ATOM     18  C   UNL     1       0.521   9.552  18.898  0.00  0.00    +0.000 C 
BRANCH  18  19
ATOM     19  O   UNL     1       0.075  10.815  18.412  0.00  0.00    +0.000 OA
BRANCH  19  23
ATOM     20  C   UNL     1      -4.061  10.966  17.843  0.00  0.00    +0.000 A 
ATOM     21  C   UNL     1      -3.242  10.120  17.097  0.00  0.00    +0.000 A 
ATOM     22  C   UNL     1      -1.859  10.109  17.307  0.00  0.00    +0.000 A 
ATOM     23  C   UNL     1      -1.275  10.967  18.240  0.00  0.00    +0.000 A 
ATOM     24  C   UNL     1      -2.090  11.837  18.967  0.00  0.00    +0.000 A 
ATOM     25  C   UNL     1      -3.482  11.833  18.769  0.00  0.00    +0.000 A 
BRANCH  20  27
ATOM     26  C   UNL     1      -6.261  10.685  18.673  0.00  0.00    +0.000 C 
ATOM     27  O   UNL     1      -5.396  10.881  17.558  0.00  0.00    +0.000 OA
ENDBRANCH  20  27
ENDBRANCH  19  23
ENDBRANCH  18  19
ENDBRANCH   1  18
TORSDOF 10
ENDMDL
