MODEL 1
REMARK VINA RESULT:      -7.3      0.000      0.000
REMARK  Name = 
REMARK  3 active torsions:
REMARK  status: ('A' for Active; 'I' for Inactive)
REMARK    1  A    between atoms: C_1  and  C_2
REMARK    2  A    between atoms: C_16  and  N_17
REMARK    3  A    between atoms: N_18  and  C_19
REMARK                            x       y       z     vdW  Elec       q    Type
REMARK                         _______ _______ _______ _____ _____    ______ ____
ROOT
ATOM      1  C   UNL     1       1.847   5.211  20.653  0.00  0.00    +0.000 C 
ATOM      2  C   UNL     1       1.625   6.676  20.376  0.00  0.00    +0.000 A 
ATOM      3  N   UNL     1       0.993   7.321  21.405  0.00  0.00    +0.000 NA
ATOM      4  C   UNL     1       0.796   8.584  21.270  0.00  0.00    +0.000 A 
ATOM      5  S   UNL     1       0.012   9.466  22.553  0.00  0.00    +0.000 S 
ATOM      6  C   UNL     1       0.141  10.957  21.620  0.00  0.00    +0.000 A 
ATOM      7  C   UNL     1      -0.336  12.180  22.087  0.00  0.00    +0.000 A 
ATOM      8  C   UNL     1      -0.196  13.291  21.279  0.00  0.00    +0.000 A 
ATOM      9  C   UNL     1       0.413  13.151  20.031  0.00  0.00    +0.000 A 
ATOM     10  C   UNL     1       0.895  11.903  19.565  0.00  0.00    +0.000 A 
ATOM     11 CL   UNL     1       1.583  11.987  17.991  0.00  0.00    +0.000 Cl
ATOM     12  C   UNL     1       0.767  10.764  20.369  0.00  0.00    +0.000 A 
ATOM     13  N   UNL     1       1.142   9.377  20.194  0.00  0.00    +0.000 N 
ATOM     14  C   UNL     1       1.805   8.779  19.129  0.00  0.00    +0.000 A 
ATOM     15  O   UNL     1       2.223   9.342  18.123  0.00  0.00    +0.000 OA
ATOM     16  C   UNL     1       2.038   7.280  19.241  0.00  0.00    +0.000 A 
ENDROOT
BRANCH  16  17
ATOM     17  N   UNL     1       2.720   6.674  18.203  0.00  0.00    +0.000 NA
ATOM     18  N   UNL     1       3.930   6.423  18.408  0.00  0.00    +0.000 NA
BRANCH  18  19
ATOM     19  C   UNL     1       4.568   5.834  17.299  0.00  0.00    +0.000 A 
ATOM     20  C   UNL     1       4.685   4.436  17.253  0.00  0.00    +0.000 A 
ATOM     21  C   UNL     1       5.230   3.793  16.136  0.00  0.00    +0.000 A 
ATOM     22  C   UNL     1       5.665   4.551  15.051  0.00  0.00    +0.000 A 
ATOM     23 CL   UNL     1       6.313   3.766  13.664  0.00  0.00    +0.000 Cl
ATOM     24  C   UNL     1       5.562   5.939  15.077  0.00  0.00    +0.000 A 
ATOM     25  C   UNL     1       5.013   6.576  16.195  0.00  0.00    +0.000 A 
ENDBRANCH  18  19
ENDBRANCH  16  17
TORSDOF 2
ENDMDL
MODEL 2
REMARK VINA RESULT:      -7.1      3.455      8.649
REMARK  Name = 
REMARK  3 active torsions:
REMARK  status: ('A' for Active; 'I' for Inactive)
REMARK    1  A    between atoms: C_1  and  C_2
REMARK    2  A    between atoms: C_16  and  N_17
REMARK    3  A    between atoms: N_18  and  C_19
REMARK                            x       y       z     vdW  Elec       q    Type
REMARK                         _______ _______ _______ _____ _____    ______ ____
ROOT
ATOM      1  C   UNL     1       2.518   9.958  17.884  0.00  0.00    +0.000 C 
ATOM      2  C   UNL     1       2.487   8.530  18.364  0.00  0.00    +0.000 A 
ATOM      3  N   UNL     1       3.184   7.680  17.549  0.00  0.00    +0.000 NA
ATOM      4  C   UNL     1       3.242   6.446  17.902  0.00  0.00    +0.000 A 
ATOM      5  S   UNL     1       4.129   5.316  16.915  0.00  0.00    +0.000 S 
ATOM      6  C   UNL     1       3.722   4.009  18.026  0.00  0.00    +0.000 A 
ATOM      7  C   UNL     1       4.143   2.696  17.829  0.00  0.00    +0.000 A 
ATOM      8  C   UNL     1       3.766   1.739  18.751  0.00  0.00    +0.000 A 
ATOM      9  C   UNL     1       2.981   2.120  19.841  0.00  0.00    +0.000 A 
ATOM     10  C   UNL     1       2.557   3.458  20.033  0.00  0.00    +0.000 A 
ATOM     11 CL   UNL     1       1.583   3.667  21.434  0.00  0.00    +0.000 Cl
ATOM     12  C   UNL     1       2.931   4.444  19.112  0.00  0.00    +0.000 A 
ATOM     13  N   UNL     1       2.672   5.865  19.018  0.00  0.00    +0.000 N 
ATOM     14  C   UNL     1       1.970   6.685  19.894  0.00  0.00    +0.000 A 
ATOM     15  O   UNL     1       1.446   6.343  20.948  0.00  0.00    +0.000 OA
ATOM     16  C   UNL     1       1.859   8.150  19.499  0.00  0.00    +0.000 A 
ENDROOT
BRANCH  16  17
ATOM     17  N   UNL     1       1.189   8.984  20.371  0.00  0.00    +0.000 NA
ATOM     18  N   UNL     1       0.126   9.491  19.946  0.00  0.00    +0.000 NA
BRANCH  18  19
ATOM     19  C   UNL     1      -0.488  10.352  20.877  0.00  0.00    +0.000 A 
ATOM     20  C   UNL     1      -1.187  11.471  20.399  0.00  0.00    +0.000 A 
ATOM     21  C   UNL     1      -1.889  12.311  21.271  0.00  0.00    +0.000 A 
ATOM     22  C   UNL     1      -1.896  12.033  22.637  0.00  0.00    +0.000 A 
ATOM     23 CL   UNL     1      -2.777  13.046  23.712  0.00  0.00    +0.000 Cl
ATOM     24  C   UNL     1      -1.206  10.931  23.132  0.00  0.00    +0.000 A 
ATOM     25  C   UNL     1      -0.508  10.092  22.255  0.00  0.00    +0.000 A 
ENDBRANCH  18  19
ENDBRANCH  16  17
TORSDOF 2
ENDMDL
MODEL 3
REMARK VINA RESULT:      -7.0      3.094      4.016
REMARK  Name = 
REMARK  3 active torsions:
REMARK  status: ('A' for Active; 'I' for Inactive)
REMARK    1  A    between atoms: C_1  and  C_2
REMARK    2  A    between atoms: C_16  and  N_17
REMARK    3  A    between atoms: N_18  and  C_19
REMARK                            x       y       z     vdW  Elec       q    Type
REMARK                         _______ _______ _______ _____ _____    ______ ____
ROOT
ATOM      1  C   UNL     1       2.681   8.246  17.136  0.00  0.00    +0.000 C 
ATOM      2  C   UNL     1       1.964   8.762  18.357  0.00  0.00    +0.000 A 
ATOM      3  N   UNL     1       1.293   9.933  18.125  0.00  0.00    +0.000 NA
ATOM      4  C   UNL     1       0.622  10.427  19.103  0.00  0.00    +0.000 A 
ATOM      5  S   UNL     1      -0.268  11.907  18.866  0.00  0.00    +0.000 S 
ATOM      6  C   UNL     1      -0.824  11.853  20.538  0.00  0.00    +0.000 A 
ATOM      7  C   UNL     1      -1.654  12.828  21.086  0.00  0.00    +0.000 A 
ATOM      8  C   UNL     1      -2.029  12.703  22.409  0.00  0.00    +0.000 A 
ATOM      9  C   UNL     1      -1.567  11.611  23.146  0.00  0.00    +0.000 A 
ATOM     10  C   UNL     1      -0.723  10.625  22.580  0.00  0.00    +0.000 A 
ATOM     11 CL   UNL     1      -0.273   9.396  23.695  0.00  0.00    +0.000 Cl
ATOM     12  C   UNL     1      -0.333  10.730  21.239  0.00  0.00    +0.000 A 
ATOM     13  N   UNL     1       0.500   9.915  20.380  0.00  0.00    +0.000 N 
ATOM     14  C   UNL     1       1.143   8.717  20.667  0.00  0.00    +0.000 A 
ATOM     15  O   UNL     1       1.100   8.105  21.728  0.00  0.00    +0.000 OA
ATOM     16  C   UNL     1       1.967   8.111  19.541  0.00  0.00    +0.000 A 
ENDROOT
BRANCH  16  17
ATOM     17  N   UNL     1       2.590   6.906  19.800  0.00  0.00    +0.000 NA
ATOM     18  N   UNL     1       1.976   5.877  19.438  0.00  0.00    +0.000 NA
BRANCH  18  19
ATOM     19  C   UNL     1       2.655   4.685  19.761  0.00  0.00    +0.000 A 
ATOM     20  C   UNL     1       3.866   4.402  19.109  0.00  0.00    +0.000 A 
ATOM     21  C   UNL     1       4.626   3.279  19.453  0.00  0.00    +0.000 A 
ATOM     22  C   UNL     1       4.176   2.426  20.459  0.00  0.00    +0.000 A 
ATOM     23 CL   UNL     1       5.117   1.057  20.904  0.00  0.00    +0.000 Cl
ATOM     24  C   UNL     1       2.976   2.685  21.115  0.00  0.00    +0.000 A 
ATOM     25  C   UNL     1       2.222   3.812  20.769  0.00  0.00    +0.000 A 
ENDBRANCH  18  19
ENDBRANCH  16  17
TORSDOF 2
ENDMDL
MODEL 4
REMARK VINA RESULT:      -7.0      3.448      8.575
REMARK  Name = 
REMARK  3 active torsions:
REMARK  status: ('A' for Active; 'I' for Inactive)
REMARK    1  A    between atoms: C_1  and  C_2
REMARK    2  A    between atoms: C_16  and  N_17
REMARK    3  A    between atoms: N_18  and  C_19
REMARK                            x       y       z     vdW  Elec       q    Type
REMARK                         _______ _______ _______ _____ _____    ______ ____
ROOT
ATOM      1  C   UNL     1       2.325  10.165  17.826  0.00  0.00    +0.000 C 
ATOM      2  C   UNL     1       2.381   8.756  18.359  0.00  0.00    +0.000 A 
ATOM      3  N   UNL     1       3.136   7.922  17.579  0.00  0.00    +0.000 NA
ATOM      4  C   UNL     1       3.270   6.708  17.980  0.00  0.00    +0.000 A 
ATOM      5  S   UNL     1       4.233   5.601  17.039  0.00  0.00    +0.000 S 
ATOM      6  C   UNL     1       3.902   4.312  18.197  0.00  0.00    +0.000 A 
ATOM      7  C   UNL     1       4.406   3.022  18.052  0.00  0.00    +0.000 A 
ATOM      8  C   UNL     1       4.084   2.079  19.008  0.00  0.00    +0.000 A 
ATOM      9  C   UNL     1       3.269   2.450  20.079  0.00  0.00    +0.000 A 
ATOM     10  C   UNL     1       2.760   3.764  20.219  0.00  0.00    +0.000 A 
ATOM     11 CL   UNL     1       1.766   3.963  21.607  0.00  0.00    +0.000 Cl
ATOM     12  C   UNL     1       3.077   4.737  19.263  0.00  0.00    +0.000 A 
ATOM     13  N   UNL     1       2.729   6.134  19.114  0.00  0.00    +0.000 N 
ATOM     14  C   UNL     1       1.971   6.940  19.955  0.00  0.00    +0.000 A 
ATOM     15  O   UNL     1       1.463   6.606  21.020  0.00  0.00    +0.000 OA
ATOM     16  C   UNL     1       1.771   8.379  19.505  0.00  0.00    +0.000 A 
ENDROOT
BRANCH  16  17
ATOM     17  N   UNL     1       1.043   9.201  20.343  0.00  0.00    +0.000 NA
ATOM     18  N   UNL     1      -0.034   9.646  19.883  0.00  0.00    +0.000 NA
BRANCH  18  19
ATOM     19  C   UNL     1      -0.707  10.499  20.780  0.00  0.00    +0.000 A 
ATOM     20  C   UNL     1      -0.605  10.246  22.156  0.00  0.00    +0.000 A 
ATOM     21  C   UNL     1      -1.180  11.110  23.094  0.00  0.00    +0.000 A 
ATOM     22  C   UNL     1      -1.865  12.242  22.657  0.00  0.00    +0.000 A 
ATOM     23 CL   UNL     1      -2.553  13.323  23.805  0.00  0.00    +0.000 Cl
ATOM     24  C   UNL     1      -1.982  12.510  21.296  0.00  0.00    +0.000 A 
ATOM     25  C   UNL     1      -1.402  11.643  20.362  0.00  0.00    +0.000 A 
ENDBRANCH  18  19
ENDBRANCH  16  17
TORSDOF 2
ENDMDL
MODEL 5
REMARK VINA RESULT:      -6.9      0.388      1.036
REMARK  Name = 
REMARK  3 active torsions:
REMARK  status: ('A' for Active; 'I' for Inactive)
REMARK    1  A    between atoms: C_1  and  C_2
REMARK    2  A    between atoms: C_16  and  N_17
REMARK    3  A    between atoms: N_18  and  C_19
REMARK                            x       y       z     vdW  Elec       q    Type
REMARK                         _______ _______ _______ _____ _____    ______ ____
ROOT
ATOM      1  C   UNL     1       1.785   5.525  20.730  0.00  0.00    +0.000 C 
ATOM      2  C   UNL     1       1.517   6.986  20.470  0.00  0.00    +0.000 A 
ATOM      3  N   UNL     1       0.894   7.607  21.519  0.00  0.00    +0.000 NA
ATOM      4  C   UNL     1       0.659   8.864  21.399  0.00  0.00    +0.000 A 
ATOM      5  S   UNL     1      -0.116   9.717  22.706  0.00  0.00    +0.000 S 
ATOM      6  C   UNL     1      -0.050  11.217  21.782  0.00  0.00    +0.000 A 
ATOM      7  C   UNL     1      -0.548  12.423  22.270  0.00  0.00    +0.000 A 
ATOM      8  C   UNL     1      -0.457  13.543  21.467  0.00  0.00    +0.000 A 
ATOM      9  C   UNL     1       0.125  13.428  20.204  0.00  0.00    +0.000 A 
ATOM     10  C   UNL     1       0.629  12.197  19.716  0.00  0.00    +0.000 A 
ATOM     11 CL   UNL     1       1.276  12.310  18.128  0.00  0.00    +0.000 Cl
ATOM     12  C   UNL     1       0.550  11.049  20.515  0.00  0.00    +0.000 A 
ATOM     13  N   UNL     1       0.958   9.674  20.320  0.00  0.00    +0.000 N 
ATOM     14  C   UNL     1       1.610   9.102  19.235  0.00  0.00    +0.000 A 
ATOM     15  O   UNL     1       1.989   9.683  18.224  0.00  0.00    +0.000 OA
ATOM     16  C   UNL     1       1.886   7.608  19.330  0.00  0.00    +0.000 A 
ENDROOT
BRANCH  16  17
ATOM     17  N   UNL     1       2.559   7.029  18.272  0.00  0.00    +0.000 NA
ATOM     18  N   UNL     1       3.539   6.308  18.567  0.00  0.00    +0.000 NA
BRANCH  18  19
ATOM     19  C   UNL     1       4.194   5.775  17.439  0.00  0.00    +0.000 A 
ATOM     20  C   UNL     1       4.743   6.660  16.498  0.00  0.00    +0.000 A 
ATOM     21  C   UNL     1       5.479   6.187  15.406  0.00  0.00    +0.000 A 
ATOM     22  C   UNL     1       5.672   4.816  15.248  0.00  0.00    +0.000 A 
ATOM     23 CL   UNL     1       6.597   4.229  13.922  0.00  0.00    +0.000 Cl
ATOM     24  C   UNL     1       5.133   3.921  16.167  0.00  0.00    +0.000 A 
ATOM     25  C   UNL     1       4.400   4.400  17.259  0.00  0.00    +0.000 A 
ENDBRANCH  18  19
ENDBRANCH  16  17
TORSDOF 2
ENDMDL
MODEL 6
REMARK VINA RESULT:      -6.8      2.251      7.736
REMARK  Name = 
REMARK  3 active torsions:
REMARK  status: ('A' for Active; 'I' for Inactive)
REMARK    1  A    between atoms: C_1  and  C_2
REMARK    2  A    between atoms: C_16  and  N_17
REMARK    3  A    between atoms: N_18  and  C_19
REMARK                            x       y       z     vdW  Elec       q    Type
REMARK                         _______ _______ _______ _____ _____    ______ ____
ROOT
ATOM      1  C   UNL     1      -0.139   8.910  21.860  0.00  0.00    +0.000 C 
ATOM      2  C   UNL     1       0.814   8.245  20.900  0.00  0.00    +0.000 A 
ATOM      3  N   UNL     1       1.095   6.949  21.241  0.00  0.00    +0.000 NA
ATOM      4  C   UNL     1       1.872   6.293  20.456  0.00  0.00    +0.000 A 
ATOM      5  S   UNL     1       2.254   4.633  20.825  0.00  0.00    +0.000 S 
ATOM      6  C   UNL     1       3.263   4.532  19.382  0.00  0.00    +0.000 A 
ATOM      7  C   UNL     1       3.950   3.375  19.023  0.00  0.00    +0.000 A 
ATOM      8  C   UNL     1       4.722   3.397  17.879  0.00  0.00    +0.000 A 
ATOM      9  C   UNL     1       4.787   4.572  17.127  0.00  0.00    +0.000 A 
ATOM     10  C   UNL     1       4.085   5.744  17.499  0.00  0.00    +0.000 A 
ATOM     11 CL   UNL     1       4.344   7.061  16.424  0.00  0.00    +0.000 Cl
ATOM     12  C   UNL     1       3.294   5.743  18.654  0.00  0.00    +0.000 A 
ATOM     13  N   UNL     1       2.473   6.747  19.297  0.00  0.00    +0.000 N 
ATOM     14  C   UNL     1       2.206   8.049  18.891  0.00  0.00    +0.000 A 
ATOM     15  O   UNL     1       2.616   8.591  17.870  0.00  0.00    +0.000 OA
ATOM     16  C   UNL     1       1.307   8.866  19.806  0.00  0.00    +0.000 A 
ENDROOT
BRANCH  16  17
ATOM     17  N   UNL     1       1.010  10.154  19.403  0.00  0.00    +0.000 NA
ATOM     18  N   UNL     1       1.486  11.076  20.103  0.00  0.00    +0.000 NA
BRANCH  18  19
ATOM     19  C   UNL     1       1.118  12.360  19.652  0.00  0.00    +0.000 A 
ATOM     20  C   UNL     1      -0.065  12.499  18.910  0.00  0.00    +0.000 A 
ATOM     21  C   UNL     1      -0.523  13.760  18.512  0.00  0.00    +0.000 A 
ATOM     22  C   UNL     1       0.205  14.897  18.857  0.00  0.00    +0.000 A 
ATOM     23 CL   UNL     1      -0.367  16.451  18.393  0.00  0.00    +0.000 Cl
ATOM     24  C   UNL     1       1.382  14.781  19.589  0.00  0.00    +0.000 A 
ATOM     25  C   UNL     1       1.835  13.517  19.987  0.00  0.00    +0.000 A 
ENDBRANCH  18  19
ENDBRANCH  16  17
TORSDOF 2
ENDMDL
MODEL 7
REMARK VINA RESULT:      -6.6      2.399      3.735
REMARK  Name = 
REMARK  3 active torsions:
REMARK  status: ('A' for Active; 'I' for Inactive)
REMARK    1  A    between atoms: C_1  and  C_2
REMARK    2  A    between atoms: C_16  and  N_17
REMARK    3  A    between atoms: N_18  and  C_19
REMARK                            x       y       z     vdW  Elec       q    Type
REMARK                         _______ _______ _______ _____ _____    ______ ____
ROOT
ATOM      1  C   UNL     1      -0.532   8.902  22.326  0.00  0.00    +0.000 C 
ATOM      2  C   UNL     1      -0.067  10.115  21.562  0.00  0.00    +0.000 A 
ATOM      3  N   UNL     1      -0.423  11.292  22.163  0.00  0.00    +0.000 NA
ATOM      4  C   UNL     1      -0.035  12.379  21.599  0.00  0.00    +0.000 A 
ATOM      5  S   UNL     1      -0.442  13.910  22.325  0.00  0.00    +0.000 S 
ATOM      6  C   UNL     1       0.397  14.761  21.028  0.00  0.00    +0.000 A 
ATOM      7  C   UNL     1       0.474  16.150  20.967  0.00  0.00    +0.000 A 
ATOM      8  C   UNL     1       1.147  16.724  19.906  0.00  0.00    +0.000 A 
ATOM      9  C   UNL     1       1.722  15.897  18.939  0.00  0.00    +0.000 A 
ATOM     10  C   UNL     1       1.638  14.485  19.010  0.00  0.00    +0.000 A 
ATOM     11 CL   UNL     1       2.405  13.693  17.691  0.00  0.00    +0.000 Cl
ATOM     12  C   UNL     1       0.964  13.882  20.078  0.00  0.00    +0.000 A 
ATOM     13  N   UNL     1       0.703  12.504  20.437  0.00  0.00    +0.000 N 
ATOM     14  C   UNL     1       1.110  11.341  19.795  0.00  0.00    +0.000 A 
ATOM     15  O   UNL     1       1.806  11.272  18.787  0.00  0.00    +0.000 OA
ATOM     16  C   UNL     1       0.652  10.032  20.420  0.00  0.00    +0.000 A 
ENDROOT
BRANCH  16  17
ATOM     17  N   UNL     1       1.071   8.867  19.810  0.00  0.00    +0.000 NA
ATOM     18  N   UNL     1       1.795   8.111  20.498  0.00  0.00    +0.000 NA
BRANCH  18  19
ATOM     19  C   UNL     1       2.209   6.957  19.803  0.00  0.00    +0.000 A 
ATOM     20  C   UNL     1       1.992   5.702  20.392  0.00  0.00    +0.000 A 
ATOM     21  C   UNL     1       2.303   4.521  19.709  0.00  0.00    +0.000 A 
ATOM     22  C   UNL     1       2.836   4.590  18.424  0.00  0.00    +0.000 A 
ATOM     23 CL   UNL     1       3.197   3.141  17.569  0.00  0.00    +0.000 Cl
ATOM     24  C   UNL     1       3.064   5.824  17.823  0.00  0.00    +0.000 A 
ATOM     25  C   UNL     1       2.748   7.002  18.509  0.00  0.00    +0.000 A 
ENDBRANCH  18  19
ENDBRANCH  16  17
TORSDOF 2
ENDMDL
MODEL 8
REMARK VINA RESULT:      -6.5      3.568      4.368
REMARK  Name = 
REMARK  3 active torsions:
REMARK  status: ('A' for Active; 'I' for Inactive)
REMARK    1  A    between atoms: C_1  and  C_2
REMARK    2  A    between atoms: C_16  and  N_17
REMARK    3  A    between atoms: N_18  and  C_19
REMARK                            x       y       z     vdW  Elec       q    Type
REMARK                         _______ _______ _______ _____ _____    ______ ____
ROOT
ATOM      1  C   UNL     1       1.407  10.695  21.553  0.00  0.00    +0.000 C 
ATOM      2  C   UNL     1       0.246  10.747  20.593  0.00  0.00    +0.000 A 
ATOM      3  N   UNL     1      -0.775  11.545  21.035  0.00  0.00    +0.000 NA
ATOM      4  C   UNL     1      -1.792  11.677  20.261  0.00  0.00    +0.000 A 
ATOM      5  S   UNL     1      -3.117  12.694  20.759  0.00  0.00    +0.000 S 
ATOM      6  C   UNL     1      -3.973  12.331  19.261  0.00  0.00    +0.000 A 
ATOM      7  C   UNL     1      -5.228  12.857  18.965  0.00  0.00    +0.000 A 
ATOM      8  C   UNL     1      -5.822  12.506  17.769  0.00  0.00    +0.000 A 
ATOM      9  C   UNL     1      -5.148  11.642  16.904  0.00  0.00    +0.000 A 
ATOM     10  C   UNL     1      -3.873  11.111  17.213  0.00  0.00    +0.000 A 
ATOM     11 CL   UNL     1      -3.264  10.056  16.000  0.00  0.00    +0.000 Cl
ATOM     12  C   UNL     1      -3.250  11.456  18.419  0.00  0.00    +0.000 A 
ATOM     13  N   UNL     1      -1.984  11.097  19.022  0.00  0.00    +0.000 N 
ATOM     14  C   UNL     1      -0.971  10.293  18.514  0.00  0.00    +0.000 A 
ATOM     15  O   UNL     1      -0.959   9.744  17.417  0.00  0.00    +0.000 OA
ATOM     16  C   UNL     1       0.242  10.094  19.410  0.00  0.00    +0.000 A 
ENDROOT
BRANCH  16  17
ATOM     17  N   UNL     1       1.270   9.320  18.909  0.00  0.00    +0.000 NA
ATOM     18  N   UNL     1       1.413   8.189  19.424  0.00  0.00    +0.000 NA
BRANCH  18  19
ATOM     19  C   UNL     1       2.498   7.468  18.885  0.00  0.00    +0.000 A 
ATOM     20  C   UNL     1       2.883   6.269  19.504  0.00  0.00    +0.000 A 
ATOM     21  C   UNL     1       3.895   5.469  18.961  0.00  0.00    +0.000 A 
ATOM     22  C   UNL     1       4.531   5.867  17.787  0.00  0.00    +0.000 A 
ATOM     23 CL   UNL     1       5.758   4.877  17.100  0.00  0.00    +0.000 Cl
ATOM     24  C   UNL     1       4.167   7.055  17.159  0.00  0.00    +0.000 A 
ATOM     25  C   UNL     1       3.153   7.850  17.706  0.00  0.00    +0.000 A 
ENDBRANCH  18  19
ENDBRANCH  16  17
TORSDOF 2
ENDMDL
MODEL 9
REMARK VINA RESULT:      -6.5      2.266      3.771
REMARK  Name = 
REMARK  3 active torsions:
REMARK  status: ('A' for Active; 'I' for Inactive)
REMARK    1  A    between atoms: C_1  and  C_2
REMARK    2  A    between atoms: C_16  and  N_17
REMARK    3  A    between atoms: N_18  and  C_19
REMARK                            x       y       z     vdW  Elec       q    Type
REMARK                         _______ _______ _______ _____ _____    ______ ____
ROOT
ATOM      1  C   UNL     1      -0.506   8.909  22.286  0.00  0.00    +0.000 C 
ATOM      2  C   UNL     1      -0.045  10.146  21.558  0.00  0.00    +0.000 A 
ATOM      3  N   UNL     1      -0.394  11.303  22.201  0.00  0.00    +0.000 NA
ATOM      4  C   UNL     1      -0.009  12.407  21.669  0.00  0.00    +0.000 A 
ATOM      5  S   UNL     1      -0.407  13.915  22.448  0.00  0.00    +0.000 S 
ATOM      6  C   UNL     1       0.423  14.806  21.173  0.00  0.00    +0.000 A 
ATOM      7  C   UNL     1       0.502  16.196  21.156  0.00  0.00    +0.000 A 
ATOM      8  C   UNL     1       1.167  16.804  20.108  0.00  0.00    +0.000 A 
ATOM      9  C   UNL     1       1.733  16.008  19.111  0.00  0.00    +0.000 A 
ATOM     10  C   UNL     1       1.647  14.595  19.136  0.00  0.00    +0.000 A 
ATOM     11 CL   UNL     1       2.402  13.844  17.786  0.00  0.00    +0.000 Cl
ATOM     12  C   UNL     1       0.980  13.958  20.190  0.00  0.00    +0.000 A 
ATOM     13  N   UNL     1       0.719  12.569  20.506  0.00  0.00    +0.000 N 
ATOM     14  C   UNL     1       1.120  11.428  19.822  0.00  0.00    +0.000 A 
ATOM     15  O   UNL     1       1.807  11.390  18.807  0.00  0.00    +0.000 OA
ATOM     16  C   UNL     1       0.664  10.100  20.409  0.00  0.00    +0.000 A 
ENDROOT
BRANCH  16  17
ATOM     17  N   UNL     1       1.076   8.954  19.757  0.00  0.00    +0.000 NA
ATOM     18  N   UNL     1       1.841   8.197  20.398  0.00  0.00    +0.000 NA
BRANCH  18  19
ATOM     19  C   UNL     1       2.244   7.065  19.663  0.00  0.00    +0.000 A 
ATOM     20  C   UNL     1       2.876   7.257  18.424  0.00  0.00    +0.000 A 
ATOM     21  C   UNL     1       3.375   6.174  17.693  0.00  0.00    +0.000 A 
ATOM     22  C   UNL     1       3.245   4.883  18.201  0.00  0.00    +0.000 A 
ATOM     23 CL   UNL     1       3.878   3.549  17.319  0.00  0.00    +0.000 Cl
ATOM     24  C   UNL     1       2.618   4.669  19.425  0.00  0.00    +0.000 A 
ATOM     25  C   UNL     1       2.123   5.757  20.153  0.00  0.00    +0.000 A 
ENDBRANCH  18  19
ENDBRANCH  16  17
TORSDOF 2
ENDMDL
