MODEL 1
REMARK VINA RESULT:      -6.1      0.000      0.000
REMARK  Name = 
REMARK  6 active torsions:
REMARK  status: ('A' for Active; 'I' for Inactive)
REMARK    1  A    between atoms: O_1  and  C_2
REMARK    2  A    between atoms: C_5  and  C_6
REMARK    3  A    between atoms: C_6  and  N_7
REMARK    4  A    between atoms: N_7  and  C_8
REMARK    5  A    between atoms: C_8  and  N_9
REMARK    6  A    between atoms: C_14  and  O_15
REMARK                            x       y       z     vdW  Elec       q    Type
REMARK                         _______ _______ _______ _____ _____    ______ ____
ROOT
ATOM      1  C   UNL     1       6.830   5.650  16.230  0.00  0.00    +0.000 C 
ATOM      2  C   UNL     1       5.415   6.096  15.892  0.00  0.00    +0.000 C 
ATOM      3  N   UNL     1       4.665   5.795  17.113  0.00  0.00    +0.000 NA
ATOM      4  C   UNL     1       5.148   4.460  17.543  0.00  0.00    +0.000 C 
ATOM      5  C   UNL     1       6.612   4.361  17.038  0.00  0.00    +0.000 C 
ATOM      6  H   UNL     1       3.666   5.752  16.910  0.00  0.00    +0.000 HD
ENDROOT
BRANCH   1   7
ATOM      7  O   UNL     1       7.609   5.411  15.065  0.00  0.00    +0.000 OA
ATOM      8  H   UNL     1       8.167   6.195  14.923  0.00  0.00    +0.000 HD
ENDBRANCH   1   7
BRANCH   5   9
ATOM      9  O   UNL     1       7.580   4.232  18.082  0.00  0.00    +0.000 OA
ATOM     10  H   UNL     1       7.209   4.649  18.879  0.00  0.00    +0.000 HD
ENDBRANCH   5   9
BRANCH   4  11
ATOM     11  C   UNL     1       4.947   4.275  19.062  0.00  0.00    +0.000 C 
BRANCH  11  12
ATOM     12  N   UNL     1       5.107   2.876  19.476  0.00  0.00    +0.000 NA
ATOM     13  H   UNL     1       5.229   2.860  20.496  0.00  0.00    +0.000 HD
BRANCH  12  14
ATOM     14  C   UNL     1       3.924   2.098  19.126  0.00  0.00    +0.000 C 
BRANCH  14  15
ATOM     15  N   UNL     1       2.854   2.512  20.017  0.00  0.00    +0.000 N 
ATOM     16  C   UNL     1       1.611   2.953  19.646  0.00  0.00    +0.000 A 
ATOM     17  C   UNL     1       0.929   3.122  20.829  0.00  0.00    +0.000 A 
ATOM     18  N   UNL     1       1.719   2.792  21.900  0.00  0.00    +0.000 NA
ATOM     19  C   UNL     1       2.874   2.436  21.382  0.00  0.00    +0.000 A 
ENDBRANCH  14  15
ENDBRANCH  12  14
ENDBRANCH  11  12
ENDBRANCH   4  11
TORSDOF 6
ENDMDL
MODEL 2
REMARK VINA RESULT:      -5.9      1.389      1.705
REMARK  Name = 
REMARK  6 active torsions:
REMARK  status: ('A' for Active; 'I' for Inactive)
REMARK    1  A    between atoms: O_1  and  C_2
REMARK    2  A    between atoms: C_5  and  C_6
REMARK    3  A    between atoms: C_6  and  N_7
REMARK    4  A    between atoms: N_7  and  C_8
REMARK    5  A    between atoms: C_8  and  N_9
REMARK    6  A    between atoms: C_14  and  O_15
REMARK                            x       y       z     vdW  Elec       q    Type
REMARK                         _______ _______ _______ _____ _____    ______ ____
ROOT
ATOM      1  C   UNL     1       7.032   4.527  16.096  0.00  0.00    +0.000 C 
ATOM      2  C   UNL     1       7.616   4.663  17.495  0.00  0.00    +0.000 C 
ATOM      3  N   UNL     1       6.515   4.239  18.363  0.00  0.00    +0.000 NA
ATOM      4  C   UNL     1       5.303   4.875  17.788  0.00  0.00    +0.000 C 
ATOM      5  C   UNL     1       5.583   5.012  16.268  0.00  0.00    +0.000 C 
ATOM      6  H   UNL     1       6.665   4.578  19.314  0.00  0.00    +0.000 HD
ENDROOT
BRANCH   1   7
ATOM      7  O   UNL     1       7.737   5.313  15.145  0.00  0.00    +0.000 OA
ATOM      8  H   UNL     1       8.676   5.305  15.399  0.00  0.00    +0.000 HD
ENDBRANCH   1   7
BRANCH   5   9
ATOM      9  O   UNL     1       4.686   4.268  15.442  0.00  0.00    +0.000 OA
ATOM     10  H   UNL     1       3.851   4.165  15.933  0.00  0.00    +0.000 HD
ENDBRANCH   5   9
BRANCH   4  11
ATOM     11  C   UNL     1       4.040   4.077  18.170  0.00  0.00    +0.000 C 
BRANCH  11  12
ATOM     12  N   UNL     1       4.280   2.629  18.179  0.00  0.00    +0.000 NA
ATOM     13  H   UNL     1       4.960   2.426  18.922  0.00  0.00    +0.000 HD
BRANCH  12  14
ATOM     14  C   UNL     1       3.044   1.905  18.454  0.00  0.00    +0.000 C 
BRANCH  14  15
ATOM     15  N   UNL     1       2.574   2.333  19.761  0.00  0.00    +0.000 N 
ATOM     16  C   UNL     1       1.288   2.671  20.092  0.00  0.00    +0.000 A 
ATOM     17  C   UNL     1       1.321   2.902  21.447  0.00  0.00    +0.000 A 
ATOM     18  N   UNL     1       2.584   2.707  21.946  0.00  0.00    +0.000 NA
ATOM     19  C   UNL     1       3.317   2.374  20.906  0.00  0.00    +0.000 A 
ENDBRANCH  14  15
ENDBRANCH  12  14
ENDBRANCH  11  12
ENDBRANCH   4  11
TORSDOF 6
ENDMDL
MODEL 3
REMARK VINA RESULT:      -5.8      0.940      1.244
REMARK  Name = 
REMARK  6 active torsions:
REMARK  status: ('A' for Active; 'I' for Inactive)
REMARK    1  A    between atoms: O_1  and  C_2
REMARK    2  A    between atoms: C_5  and  C_6
REMARK    3  A    between atoms: C_6  and  N_7
REMARK    4  A    between atoms: N_7  and  C_8
REMARK    5  A    between atoms: C_8  and  N_9
REMARK    6  A    between atoms: C_14  and  O_15
REMARK                            x       y       z     vdW  Elec       q    Type
REMARK                         _______ _______ _______ _____ _____    ______ ____
ROOT
ATOM      1  C   UNL     1       6.971   6.043  16.784  0.00  0.00    +0.000 C 
ATOM      2  C   UNL     1       5.621   6.728  16.632  0.00  0.00    +0.000 C 
ATOM      3  N   UNL     1       4.858   6.230  17.778  0.00  0.00    +0.000 NA
ATOM      4  C   UNL     1       5.170   4.780  17.849  0.00  0.00    +0.000 C 
ATOM      5  C   UNL     1       6.599   4.631  17.265  0.00  0.00    +0.000 C 
ATOM      6  H   UNL     1       3.858   6.360  17.620  0.00  0.00    +0.000 HD
ENDROOT
BRANCH   1   7
ATOM      7  O   UNL     1       7.692   6.005  15.560  0.00  0.00    +0.000 OA
ATOM      8  H   UNL     1       8.622   5.818  15.776  0.00  0.00    +0.000 HD
ENDBRANCH   1   7
BRANCH   5   9
ATOM      9  O   UNL     1       7.560   4.131  18.199  0.00  0.00    +0.000 OA
ATOM     10  H   UNL     1       7.070   3.750  18.948  0.00  0.00    +0.000 HD
ENDBRANCH   5   9
BRANCH   4  11
ATOM     11  C   UNL     1       4.971   4.253  19.285  0.00  0.00    +0.000 C 
BRANCH  11  12
ATOM     12  N   UNL     1       5.035   2.788  19.351  0.00  0.00    +0.000 NA
ATOM     13  H   UNL     1       6.015   2.521  19.508  0.00  0.00    +0.000 HD
BRANCH  12  14
ATOM     14  C   UNL     1       4.223   2.288  20.455  0.00  0.00    +0.000 C 
BRANCH  14  15
ATOM     15  N   UNL     1       2.831   2.518  20.107  0.00  0.00    +0.000 N 
ATOM     16  C   UNL     1       1.950   3.330  20.771  0.00  0.00    +0.000 A 
ATOM     17  C   UNL     1       0.803   3.300  20.013  0.00  0.00    +0.000 A 
ATOM     18  N   UNL     1       0.966   2.502  18.910  0.00  0.00    +0.000 NA
ATOM     19  C   UNL     1       2.193   2.038  18.998  0.00  0.00    +0.000 A 
ENDBRANCH  14  15
ENDBRANCH  12  14
ENDBRANCH  11  12
ENDBRANCH   4  11
TORSDOF 6
ENDMDL
MODEL 4
REMARK VINA RESULT:      -5.8      2.261      5.477
REMARK  Name = 
REMARK  6 active torsions:
REMARK  status: ('A' for Active; 'I' for Inactive)
REMARK    1  A    between atoms: O_1  and  C_2
REMARK    2  A    between atoms: C_5  and  C_6
REMARK    3  A    between atoms: C_6  and  N_7
REMARK    4  A    between atoms: N_7  and  C_8
REMARK    5  A    between atoms: C_8  and  N_9
REMARK    6  A    between atoms: C_14  and  O_15
REMARK                            x       y       z     vdW  Elec       q    Type
REMARK                         _______ _______ _______ _____ _____    ______ ____
ROOT
ATOM      1  C   UNL     1       3.741   1.893  18.395  0.00  0.00    +0.000 C 
ATOM      2  C   UNL     1       2.255   2.041  18.687  0.00  0.00    +0.000 C 
ATOM      3  N   UNL     1       2.078   3.489  18.812  0.00  0.00    +0.000 NA
ATOM      4  C   UNL     1       3.240   3.952  19.611  0.00  0.00    +0.000 C 
ATOM      5  C   UNL     1       4.387   2.956  19.298  0.00  0.00    +0.000 C 
ATOM      6  H   UNL     1       1.212   3.696  19.310  0.00  0.00    +0.000 HD
ENDROOT
BRANCH   1   7
ATOM      7  O   UNL     1       4.219   0.589  18.698  0.00  0.00    +0.000 OA
ATOM      8  H   UNL     1       3.446   0.000  18.746  0.00  0.00    +0.000 HD
ENDBRANCH   1   7
BRANCH   5   9
ATOM      9  O   UNL     1       5.521   3.554  18.666  0.00  0.00    +0.000 OA
ATOM     10  H   UNL     1       6.228   3.621  19.333  0.00  0.00    +0.000 HD
ENDBRANCH   5   9
BRANCH   4  11
ATOM     11  C   UNL     1       3.540   5.437  19.320  0.00  0.00    +0.000 C 
BRANCH  11  12
ATOM     12  N   UNL     1       3.318   5.782  17.911  0.00  0.00    +0.000 NA
ATOM     13  H   UNL     1       2.341   6.081  17.808  0.00  0.00    +0.000 HD
BRANCH  12  14
ATOM     14  C   UNL     1       4.196   6.874  17.506  0.00  0.00    +0.000 C 
BRANCH  14  15
ATOM     15  N   UNL     1       5.335   6.284  16.824  0.00  0.00    +0.000 N 
ATOM     16  C   UNL     1       5.289   5.426  15.757  0.00  0.00    +0.000 A 
ATOM     17  C   UNL     1       6.604   5.230  15.404  0.00  0.00    +0.000 A 
ATOM     18  N   UNL     1       7.441   5.948  16.220  0.00  0.00    +0.000 NA
ATOM     19  C   UNL     1       6.649   6.565  17.069  0.00  0.00    +0.000 A 
ENDBRANCH  14  15
ENDBRANCH  12  14
ENDBRANCH  11  12
ENDBRANCH   4  11
TORSDOF 6
ENDMDL
MODEL 5
REMARK VINA RESULT:      -5.8      1.650      2.123
REMARK  Name = 
REMARK  6 active torsions:
REMARK  status: ('A' for Active; 'I' for Inactive)
REMARK    1  A    between atoms: O_1  and  C_2
REMARK    2  A    between atoms: C_5  and  C_6
REMARK    3  A    between atoms: C_6  and  N_7
REMARK    4  A    between atoms: N_7  and  C_8
REMARK    5  A    between atoms: C_8  and  N_9
REMARK    6  A    between atoms: C_14  and  O_15
REMARK                            x       y       z     vdW  Elec       q    Type
REMARK                         _______ _______ _______ _____ _____    ______ ____
ROOT
ATOM      1  C   UNL     1       7.010   4.989  16.561  0.00  0.00    +0.000 C 
ATOM      2  C   UNL     1       7.307   4.943  18.053  0.00  0.00    +0.000 C 
ATOM      3  N   UNL     1       6.286   4.032  18.572  0.00  0.00    +0.000 NA
ATOM      4  C   UNL     1       5.032   4.421  17.879  0.00  0.00    +0.000 C 
ATOM      5  C   UNL     1       5.474   4.992  16.506  0.00  0.00    +0.000 C 
ATOM      6  H   UNL     1       6.178   4.161  19.579  0.00  0.00    +0.000 HD
ENDROOT
BRANCH   1   7
ATOM      7  O   UNL     1       7.557   6.146  15.943  0.00  0.00    +0.000 OA
ATOM      8  H   UNL     1       8.516   6.139  16.109  0.00  0.00    +0.000 HD
ENDBRANCH   1   7
BRANCH   5   9
ATOM      9  O   UNL     1       4.994   4.247  15.384  0.00  0.00    +0.000 OA
ATOM     10  H   UNL     1       4.662   4.885  14.728  0.00  0.00    +0.000 HD
ENDBRANCH   5   9
BRANCH   4  11
ATOM     11  C   UNL     1       4.050   3.233  17.829  0.00  0.00    +0.000 C 
BRANCH  11  12
ATOM     12  N   UNL     1       2.672   3.663  17.563  0.00  0.00    +0.000 NA
ATOM     13  H   UNL     1       2.058   2.848  17.680  0.00  0.00    +0.000 HD
BRANCH  12  14
ATOM     14  C   UNL     1       2.268   4.702  18.504  0.00  0.00    +0.000 C 
BRANCH  14  15
ATOM     15  N   UNL     1       1.979   4.051  19.770  0.00  0.00    +0.000 N 
ATOM     16  C   UNL     1       1.155   2.974  19.961  0.00  0.00    +0.000 A 
ATOM     17  C   UNL     1       1.284   2.662  21.294  0.00  0.00    +0.000 A 
ATOM     18  N   UNL     1       2.165   3.512  21.912  0.00  0.00    +0.000 NA
ATOM     19  C   UNL     1       2.561   4.342  20.972  0.00  0.00    +0.000 A 
ENDBRANCH  14  15
ENDBRANCH  12  14
ENDBRANCH  11  12
ENDBRANCH   4  11
TORSDOF 6
ENDMDL
MODEL 6
REMARK VINA RESULT:      -5.8      2.888      5.648
REMARK  Name = 
REMARK  6 active torsions:
REMARK  status: ('A' for Active; 'I' for Inactive)
REMARK    1  A    between atoms: O_1  and  C_2
REMARK    2  A    between atoms: C_5  and  C_6
REMARK    3  A    between atoms: C_6  and  N_7
REMARK    4  A    between atoms: N_7  and  C_8
REMARK    5  A    between atoms: C_8  and  N_9
REMARK    6  A    between atoms: C_14  and  O_15
REMARK                            x       y       z     vdW  Elec       q    Type
REMARK                         _______ _______ _______ _____ _____    ______ ____
ROOT
ATOM      1  C   UNL     1       2.938   2.356  18.394  0.00  0.00    +0.000 C 
ATOM      2  C   UNL     1       2.375   3.611  17.744  0.00  0.00    +0.000 C 
ATOM      3  N   UNL     1       3.493   4.555  17.807  0.00  0.00    +0.000 NA
ATOM      4  C   UNL     1       4.068   4.381  19.165  0.00  0.00    +0.000 C 
ATOM      5  C   UNL     1       3.784   2.907  19.554  0.00  0.00    +0.000 C 
ATOM      6  H   UNL     1       3.153   5.511  17.696  0.00  0.00    +0.000 HD
ENDROOT
BRANCH   1   7
ATOM      7  O   UNL     1       1.913   1.489  18.861  0.00  0.00    +0.000 OA
ATOM      8  H   UNL     1       1.112   1.682  18.344  0.00  0.00    +0.000 HD
ENDBRANCH   1   7
BRANCH   5   9
ATOM      9  O   UNL     1       4.960   2.121  19.757  0.00  0.00    +0.000 OA
ATOM     10  H   UNL     1       4.676   1.240  20.061  0.00  0.00    +0.000 HD
ENDBRANCH   5   9
BRANCH   4  11
ATOM     11  C   UNL     1       5.551   4.808  19.183  0.00  0.00    +0.000 C 
BRANCH  11  12
ATOM     12  N   UNL     1       6.370   4.004  18.269  0.00  0.00    +0.000 NA
ATOM     13  H   UNL     1       5.736   3.477  17.655  0.00  0.00    +0.000 HD
BRANCH  12  14
ATOM     14  C   UNL     1       7.220   4.862  17.452  0.00  0.00    +0.000 C 
BRANCH  14  15
ATOM     15  N   UNL     1       6.854   4.639  16.064  0.00  0.00    +0.000 N 
ATOM     16  C   UNL     1       7.421   5.232  14.967  0.00  0.00    +0.000 A 
ATOM     17  C   UNL     1       6.817   4.630  13.888  0.00  0.00    +0.000 A 
ATOM     18  N   UNL     1       5.909   3.688  14.298  0.00  0.00    +0.000 NA
ATOM     19  C   UNL     1       5.947   3.721  15.612  0.00  0.00    +0.000 A 
ENDBRANCH  14  15
ENDBRANCH  12  14
ENDBRANCH  11  12
ENDBRANCH   4  11
TORSDOF 6
ENDMDL
MODEL 7
REMARK VINA RESULT:      -5.7      2.166      2.610
REMARK  Name = 
REMARK  6 active torsions:
REMARK  status: ('A' for Active; 'I' for Inactive)
REMARK    1  A    between atoms: O_1  and  C_2
REMARK    2  A    between atoms: C_5  and  C_6
REMARK    3  A    between atoms: C_6  and  N_7
REMARK    4  A    between atoms: N_7  and  C_8
REMARK    5  A    between atoms: C_8  and  N_9
REMARK    6  A    between atoms: C_14  and  O_15
REMARK                            x       y       z     vdW  Elec       q    Type
REMARK                         _______ _______ _______ _____ _____    ______ ____
ROOT
ATOM      1  C   UNL     1       5.282   5.049  19.234  0.00  0.00    +0.000 C 
ATOM      2  C   UNL     1       4.759   5.956  18.130  0.00  0.00    +0.000 C 
ATOM      3  N   UNL     1       3.684   5.166  17.525  0.00  0.00    +0.000 NA
ATOM      4  C   UNL     1       4.227   3.788  17.427  0.00  0.00    +0.000 C 
ATOM      5  C   UNL     1       5.237   3.651  18.596  0.00  0.00    +0.000 C 
ATOM      6  H   UNL     1       3.470   5.520  16.592  0.00  0.00    +0.000 HD
ENDROOT
BRANCH   1   7
ATOM      7  O   UNL     1       6.600   5.399  19.633  0.00  0.00    +0.000 OA
ATOM      8  H   UNL     1       7.095   5.637  18.830  0.00  0.00    +0.000 HD
ENDBRANCH   1   7
BRANCH   5   9
ATOM      9  O   UNL     1       4.884   2.654  19.557  0.00  0.00    +0.000 OA
ATOM     10  H   UNL     1       5.698   2.175  19.796  0.00  0.00    +0.000 HD
ENDBRANCH   5   9
BRANCH   4  11
ATOM     11  C   UNL     1       3.081   2.755  17.404  0.00  0.00    +0.000 C 
BRANCH  11  12
ATOM     12  N   UNL     1       1.763   3.386  17.543  0.00  0.00    +0.000 NA
ATOM     13  H   UNL     1       1.268   3.285  16.649  0.00  0.00    +0.000 HD
BRANCH  12  14
ATOM     14  C   UNL     1       0.989   2.733  18.593  0.00  0.00    +0.000 C 
BRANCH  14  15
ATOM     15  N   UNL     1       1.516   3.190  19.867  0.00  0.00    +0.000 N 
ATOM     16  C   UNL     1       1.763   4.489  20.227  0.00  0.00    +0.000 A 
ATOM     17  C   UNL     1       2.150   4.423  21.545  0.00  0.00    +0.000 A 
ATOM     18  N   UNL     1       2.138   3.127  21.994  0.00  0.00    +0.000 NA
ATOM     19  C   UNL     1       1.761   2.407  20.960  0.00  0.00    +0.000 A 
ENDBRANCH  14  15
ENDBRANCH  12  14
ENDBRANCH  11  12
ENDBRANCH   4  11
TORSDOF 6
ENDMDL
MODEL 8
REMARK VINA RESULT:      -5.7      1.960      2.567
REMARK  Name = 
REMARK  6 active torsions:
REMARK  status: ('A' for Active; 'I' for Inactive)
REMARK    1  A    between atoms: O_1  and  C_2
REMARK    2  A    between atoms: C_5  and  C_6
REMARK    3  A    between atoms: C_6  and  N_7
REMARK    4  A    between atoms: N_7  and  C_8
REMARK    5  A    between atoms: C_8  and  N_9
REMARK    6  A    between atoms: C_14  and  O_15
REMARK                            x       y       z     vdW  Elec       q    Type
REMARK                         _______ _______ _______ _____ _____    ______ ____
ROOT
ATOM      1  C   UNL     1       6.411   5.204  15.245  0.00  0.00    +0.000 C 
ATOM      2  C   UNL     1       6.049   3.751  15.514  0.00  0.00    +0.000 C 
ATOM      3  N   UNL     1       5.620   3.763  16.914  0.00  0.00    +0.000 NA
ATOM      4  C   UNL     1       6.604   4.628  17.612  0.00  0.00    +0.000 C 
ATOM      5  C   UNL     1       7.094   5.647  16.549  0.00  0.00    +0.000 C 
ATOM      6  H   UNL     1       5.654   2.819  17.301  0.00  0.00    +0.000 HD
ENDROOT
BRANCH   1   7
ATOM      7  O   UNL     1       7.279   5.341  14.128  0.00  0.00    +0.000 OA
ATOM      8  H   UNL     1       8.192   5.286  14.460  0.00  0.00    +0.000 HD
ENDBRANCH   1   7
BRANCH   5   9
ATOM      9  O   UNL     1       6.784   7.007  16.861  0.00  0.00    +0.000 OA
ATOM     10  H   UNL     1       6.427   7.419  16.054  0.00  0.00    +0.000 HD
ENDBRANCH   5   9
BRANCH   4  11
ATOM     11  C   UNL     1       5.984   5.233  18.889  0.00  0.00    +0.000 C 
BRANCH  11  12
ATOM     12  N   UNL     1       4.647   5.788  18.646  0.00  0.00    +0.000 NA
ATOM     13  H   UNL     1       4.338   5.474  17.718  0.00  0.00    +0.000 HD
BRANCH  12  14
ATOM     14  C   UNL     1       3.703   5.310  19.650  0.00  0.00    +0.000 C 
BRANCH  14  15
ATOM     15  N   UNL     1       2.785   4.402  18.983  0.00  0.00    +0.000 N 
ATOM     16  C   UNL     1       2.409   3.160  19.419  0.00  0.00    +0.000 A 
ATOM     17  C   UNL     1       1.459   2.741  18.516  0.00  0.00    +0.000 A 
ATOM     18  N   UNL     1       1.246   3.694  17.554  0.00  0.00    +0.000 NA
ATOM     19  C   UNL     1       2.063   4.678  17.856  0.00  0.00    +0.000 A 
ENDBRANCH  14  15
ENDBRANCH  12  14
ENDBRANCH  11  12
ENDBRANCH   4  11
TORSDOF 6
ENDMDL
MODEL 9
REMARK VINA RESULT:      -5.6      2.962      6.066
REMARK  Name = 
REMARK  6 active torsions:
REMARK  status: ('A' for Active; 'I' for Inactive)
REMARK    1  A    between atoms: O_1  and  C_2
REMARK    2  A    between atoms: C_5  and  C_6
REMARK    3  A    between atoms: C_6  and  N_7
REMARK    4  A    between atoms: N_7  and  C_8
REMARK    5  A    between atoms: C_8  and  N_9
REMARK    6  A    between atoms: C_14  and  O_15
REMARK                            x       y       z     vdW  Elec       q    Type
REMARK                         _______ _______ _______ _____ _____    ______ ____
ROOT
ATOM      1  C   UNL     1       1.016   3.181  19.375  0.00  0.00    +0.000 C 
ATOM      2  C   UNL     1       1.357   4.162  20.487  0.00  0.00    +0.000 C 
ATOM      3  N   UNL     1       2.819   4.232  20.438  0.00  0.00    +0.000 NA
ATOM      4  C   UNL     1       3.267   2.829  20.258  0.00  0.00    +0.000 C 
ATOM      5  C   UNL     1       2.123   2.120  19.486  0.00  0.00    +0.000 C 
ATOM      6  H   UNL     1       3.183   4.600  21.318  0.00  0.00    +0.000 HD
ENDROOT
BRANCH   1   7
ATOM      7  O   UNL     1      -0.274   2.609  19.543  0.00  0.00    +0.000 OA
ATOM      8  H   UNL     1      -0.459   2.069  18.756  0.00  0.00    +0.000 HD
ENDBRANCH   1   7
BRANCH   5   9
ATOM      9  O   UNL     1       2.505   1.631  18.198  0.00  0.00    +0.000 OA
ATOM     10  H   UNL     1       2.251   0.693  18.153  0.00  0.00    +0.000 HD
ENDBRANCH   5   9
BRANCH   4  11
ATOM     11  C   UNL     1       4.657   2.786  19.589  0.00  0.00    +0.000 C 
BRANCH  11  12
ATOM     12  N   UNL     1       4.672   3.482  18.297  0.00  0.00    +0.000 NA
ATOM     13  H   UNL     1       3.745   3.900  18.152  0.00  0.00    +0.000 HD
BRANCH  12  14
ATOM     14  C   UNL     1       5.676   4.540  18.297  0.00  0.00    +0.000 C 
BRANCH  14  15
ATOM     15  N   UNL     1       6.225   4.615  16.953  0.00  0.00    +0.000 N 
ATOM     16  C   UNL     1       5.840   3.864  15.875  0.00  0.00    +0.000 A 
ATOM     17  C   UNL     1       6.567   4.364  14.819  0.00  0.00    +0.000 A 
ATOM     18  N   UNL     1       7.373   5.396  15.226  0.00  0.00    +0.000 NA
ATOM     19  C   UNL     1       7.152   5.519  16.516  0.00  0.00    +0.000 A 
ENDBRANCH  14  15
ENDBRANCH  12  14
ENDBRANCH  11  12
ENDBRANCH   4  11
TORSDOF 6
ENDMDL
