MODEL 1
REMARK VINA RESULT:      -7.9      0.000      0.000
REMARK  Name = 
REMARK  3 active torsions:
REMARK  status: ('A' for Active; 'I' for Inactive)
REMARK    1  A    between atoms: C_2  and  C_3
REMARK    2  A    between atoms: N_16  and  S_17
REMARK    3  A    between atoms: S_17  and  N_20
REMARK                            x       y       z     vdW  Elec       q    Type
REMARK                         _______ _______ _______ _____ _____    ______ ____
ROOT
ATOM      1  O   UNL     1       2.960   7.559  17.926  0.00  0.00    +0.000 OA
ATOM      2  C   UNL     1       2.338   7.382  18.971  0.00  0.00    +0.000 C 
ATOM      3  N   UNL     1       1.690   8.441  19.646  0.00  0.00    +0.000 N 
ATOM      4  C   UNL     1       1.646   9.764  19.034  0.00  0.00    +0.000 C 
ATOM      5  C   UNL     1       0.256  10.243  18.608  0.00  0.00    +0.000 C 
ATOM      6  C   UNL     1      -0.952  10.143  19.537  0.00  0.00    +0.000 C 
ATOM      7  N   UNL     1      -0.702   9.918  20.965  0.00  0.00    +0.000 NA
ATOM      8  C   UNL     1      -0.198   8.547  21.280  0.00  0.00    +0.000 C 
ATOM      9  C   UNL     1       1.307   8.392  21.065  0.00  0.00    +0.000 C 
ENDROOT
BRANCH   2  10
ATOM     10  C   UNL     1       2.242   6.020  19.566  0.00  0.00    +0.000 A 
ATOM     11  N   UNL     1       2.053   5.841  20.897  0.00  0.00    +0.000 NA
ATOM     12  N   UNL     1       2.033   4.507  21.040  0.00  0.00    +0.000 N 
ATOM     13  C   UNL     1       2.171   3.806  19.878  0.00  0.00    +0.000 A 
ATOM     14  C   UNL     1       2.207   2.428  19.636  0.00  0.00    +0.000 A 
ATOM     15  C   UNL     1       2.366   2.020  18.308  0.00  0.00    +0.000 A 
ATOM     16  C   UNL     1       2.486   2.955  17.280  0.00  0.00    +0.000 A 
ATOM     17  C   UNL     1       2.448   4.331  17.549  0.00  0.00    +0.000 A 
ATOM     18  C   UNL     1       2.288   4.768  18.880  0.00  0.00    +0.000 A 
ATOM     19  H   UNL     1       1.931   4.131  21.974  0.00  0.00    +0.000 HD
ENDBRANCH   2  10
BRANCH   7  20
ATOM     20  S   UNL     1      -0.191  11.168  21.953  0.00  0.00    +0.000 S 
ATOM     21  O   UNL     1      -0.190  10.675  23.313  0.00  0.00    +0.000 OA
ATOM     22  O   UNL     1       0.998  11.759  21.387  0.00  0.00    +0.000 OA
BRANCH  20  23
ATOM     23  N   UNL     1      -1.426  12.323  21.827  0.00  0.00    +0.000 NA
ATOM     24  C   UNL     1      -0.913  13.718  22.020  0.00  0.00    +0.000 C 
ATOM     25  C   UNL     1      -1.247  14.035  23.468  0.00  0.00    +0.000 C 
ATOM     26  C   UNL     1      -2.641  13.460  23.590  0.00  0.00    +0.000 C 
ATOM     27  C   UNL     1      -2.598  12.188  22.741  0.00  0.00    +0.000 C 
ENDBRANCH  20  23
ENDBRANCH   7  20
TORSDOF 3
ENDMDL
MODEL 2
REMARK VINA RESULT:      -7.6      3.207      7.725
REMARK  Name = 
REMARK  3 active torsions:
REMARK  status: ('A' for Active; 'I' for Inactive)
REMARK    1  A    between atoms: C_2  and  C_3
REMARK    2  A    between atoms: N_16  and  S_17
REMARK    3  A    between atoms: S_17  and  N_20
REMARK                            x       y       z     vdW  Elec       q    Type
REMARK                         _______ _______ _______ _____ _____    ______ ____
ROOT
ATOM      1  O   UNL     1       2.641   9.981  17.243  0.00  0.00    +0.000 OA
ATOM      2  C   UNL     1       2.072   9.143  17.938  0.00  0.00    +0.000 C 
ATOM      3  N   UNL     1       2.442   7.779  17.924  0.00  0.00    +0.000 N 
ATOM      4  C   UNL     1       3.612   7.360  17.159  0.00  0.00    +0.000 C 
ATOM      5  C   UNL     1       4.791   6.850  17.991  0.00  0.00    +0.000 C 
ATOM      6  C   UNL     1       4.605   5.831  19.114  0.00  0.00    +0.000 C 
ATOM      7  N   UNL     1       3.348   5.076  19.154  0.00  0.00    +0.000 NA
ATOM      8  C   UNL     1       2.163   5.897  19.545  0.00  0.00    +0.000 C 
ATOM      9  C   UNL     1       1.567   6.690  18.381  0.00  0.00    +0.000 C 
ENDROOT
BRANCH   2  10
ATOM     10  C   UNL     1       0.956   9.547  18.839  0.00  0.00    +0.000 A 
ATOM     11  N   UNL     1      -0.198  10.060  18.348  0.00  0.00    +0.000 NA
ATOM     12  N   UNL     1      -0.930  10.305  19.446  0.00  0.00    +0.000 N 
ATOM     13  C   UNL     1      -0.332   9.958  20.621  0.00  0.00    +0.000 A 
ATOM     14  C   UNL     1      -0.773  10.069  21.944  0.00  0.00    +0.000 A 
ATOM     15  C   UNL     1       0.093   9.617  22.944  0.00  0.00    +0.000 A 
ATOM     16  C   UNL     1       1.341   9.083  22.623  0.00  0.00    +0.000 A 
ATOM     17  C   UNL     1       1.762   8.984  21.288  0.00  0.00    +0.000 A 
ATOM     18  C   UNL     1       0.905   9.433  20.262  0.00  0.00    +0.000 A 
ATOM     19  H   UNL     1      -1.842  10.727  19.324  0.00  0.00    +0.000 HD
ENDBRANCH   2  10
BRANCH   7  20
ATOM     20  S   UNL     1       3.083   3.797  18.107  0.00  0.00    +0.000 S 
ATOM     21  O   UNL     1       1.822   4.036  17.439  0.00  0.00    +0.000 OA
ATOM     22  O   UNL     1       4.284   3.559  17.342  0.00  0.00    +0.000 OA
BRANCH  20  23
ATOM     23  N   UNL     1       2.875   2.462  19.132  0.00  0.00    +0.000 NA
ATOM     24  C   UNL     1       1.428   2.154  19.367  0.00  0.00    +0.000 C 
ATOM     25  C   UNL     1       1.133   2.788  20.716  0.00  0.00    +0.000 C 
ATOM     26  C   UNL     1       2.372   2.419  21.502  0.00  0.00    +0.000 C 
ATOM     27  C   UNL     1       3.507   2.521  20.482  0.00  0.00    +0.000 C 
ENDBRANCH  20  23
ENDBRANCH   7  20
TORSDOF 3
ENDMDL
MODEL 3
REMARK VINA RESULT:      -7.6      3.373      8.585
REMARK  Name = 
REMARK  3 active torsions:
REMARK  status: ('A' for Active; 'I' for Inactive)
REMARK    1  A    between atoms: C_2  and  C_3
REMARK    2  A    between atoms: N_16  and  S_17
REMARK    3  A    between atoms: S_17  and  N_20
REMARK                            x       y       z     vdW  Elec       q    Type
REMARK                         _______ _______ _______ _____ _____    ______ ____
ROOT
ATOM      1  O   UNL     1       0.436   7.858  21.291  0.00  0.00    +0.000 OA
ATOM      2  C   UNL     1       1.218   7.935  20.347  0.00  0.00    +0.000 C 
ATOM      3  N   UNL     1       2.128   6.898  20.040  0.00  0.00    +0.000 N 
ATOM      4  C   UNL     1       2.065   5.644  20.782  0.00  0.00    +0.000 C 
ATOM      5  C   UNL     1       1.630   4.423  19.968  0.00  0.00    +0.000 C 
ATOM      6  C   UNL     1       2.240   4.103  18.604  0.00  0.00    +0.000 C 
ATOM      7  N   UNL     1       3.496   4.769  18.241  0.00  0.00    +0.000 NA
ATOM      8  C   UNL     1       3.345   6.229  17.963  0.00  0.00    +0.000 C 
ATOM      9  C   UNL     1       3.338   7.088  19.228  0.00  0.00    +0.000 C 
ENDROOT
BRANCH   2  10
ATOM     10  C   UNL     1       1.227   9.144  19.477  0.00  0.00    +0.000 A 
ATOM     11  N   UNL     1       1.426   9.052  18.139  0.00  0.00    +0.000 NA
ATOM     12  N   UNL     1       1.378  10.325  17.720  0.00  0.00    +0.000 N 
ATOM     13  C   UNL     1       1.134  11.241  18.702  0.00  0.00    +0.000 A 
ATOM     14  C   UNL     1       1.025  12.635  18.651  0.00  0.00    +0.000 A 
ATOM     15  C   UNL     1       0.769  13.297  19.855  0.00  0.00    +0.000 A 
ATOM     16  C   UNL     1       0.633  12.588  21.049  0.00  0.00    +0.000 A 
ATOM     17  C   UNL     1       0.748  11.190  21.073  0.00  0.00    +0.000 A 
ATOM     18  C   UNL     1       1.006  10.499  19.872  0.00  0.00    +0.000 A 
ATOM     19  H   UNL     1       1.533  10.508  16.737  0.00  0.00    +0.000 HD
ENDBRANCH   2  10
BRANCH   7  20
ATOM     20  S   UNL     1       4.954   4.258  18.884  0.00  0.00    +0.000 S 
ATOM     21  O   UNL     1       5.534   5.377  19.592  0.00  0.00    +0.000 OA
ATOM     22  O   UNL     1       4.756   2.993  19.551  0.00  0.00    +0.000 OA
BRANCH  20  23
ATOM     23  N   UNL     1       5.920   3.954  17.524  0.00  0.00    +0.000 NA
ATOM     24  C   UNL     1       7.117   4.853  17.473  0.00  0.00    +0.000 C 
ATOM     25  C   UNL     1       6.713   5.950  16.503  0.00  0.00    +0.000 C 
ATOM     26  C   UNL     1       6.016   5.154  15.420  0.00  0.00    +0.000 C 
ATOM     27  C   UNL     1       5.276   4.053  16.181  0.00  0.00    +0.000 C 
ENDBRANCH  20  23
ENDBRANCH   7  20
TORSDOF 3
ENDMDL
MODEL 4
REMARK VINA RESULT:      -7.5      3.306      8.509
REMARK  Name = 
REMARK  3 active torsions:
REMARK  status: ('A' for Active; 'I' for Inactive)
REMARK    1  A    between atoms: C_2  and  C_3
REMARK    2  A    between atoms: N_16  and  S_17
REMARK    3  A    between atoms: S_17  and  N_20
REMARK                            x       y       z     vdW  Elec       q    Type
REMARK                         _______ _______ _______ _____ _____    ______ ____
ROOT
ATOM      1  O   UNL     1       0.654   8.540  21.779  0.00  0.00    +0.000 OA
ATOM      2  C   UNL     1       1.078   8.507  20.626  0.00  0.00    +0.000 C 
ATOM      3  N   UNL     1       1.859   7.432  20.145  0.00  0.00    +0.000 N 
ATOM      4  C   UNL     1       2.072   6.263  20.991  0.00  0.00    +0.000 C 
ATOM      5  C   UNL     1       1.420   4.969  20.498  0.00  0.00    +0.000 C 
ATOM      6  C   UNL     1       1.552   4.500  19.050  0.00  0.00    +0.000 C 
ATOM      7  N   UNL     1       2.603   5.108  18.226  0.00  0.00    +0.000 NA
ATOM      8  C   UNL     1       2.337   6.532  17.863  0.00  0.00    +0.000 C 
ATOM      9  C   UNL     1       2.729   7.519  18.963  0.00  0.00    +0.000 C 
ENDROOT
BRANCH   2  10
ATOM     10  C   UNL     1       0.773   9.618  19.682  0.00  0.00    +0.000 A 
ATOM     11  N   UNL     1       0.334   9.376  18.423  0.00  0.00    +0.000 NA
ATOM     12  N   UNL     1       0.188  10.600  17.894  0.00  0.00    +0.000 N 
ATOM     13  C   UNL     1       0.480  11.627  18.743  0.00  0.00    +0.000 A 
ATOM     14  C   UNL     1       0.455  13.013  18.551  0.00  0.00    +0.000 A 
ATOM     15  C   UNL     1       0.821  13.813  19.637  0.00  0.00    +0.000 A 
ATOM     16  C   UNL     1       1.195  13.242  20.854  0.00  0.00    +0.000 A 
ATOM     17  C   UNL     1       1.214  11.849  21.021  0.00  0.00    +0.000 A 
ATOM     18  C   UNL     1       0.849  11.021  19.940  0.00  0.00    +0.000 A 
ATOM     19  H   UNL     1      -0.110  10.669  16.929  0.00  0.00    +0.000 HD
ENDBRANCH   2  10
BRANCH   7  20
ATOM     20  S   UNL     1       4.203   4.647  18.400  0.00  0.00    +0.000 S 
ATOM     21  O   UNL     1       4.731   5.337  19.556  0.00  0.00    +0.000 OA
ATOM     22  O   UNL     1       4.292   3.210  18.299  0.00  0.00    +0.000 OA
BRANCH  20  23
ATOM     23  N   UNL     1       4.967   5.287  17.027  0.00  0.00    +0.000 NA
ATOM     24  C   UNL     1       5.834   4.275  16.343  0.00  0.00    +0.000 C 
ATOM     25  C   UNL     1       7.234   4.597  16.838  0.00  0.00    +0.000 C 
ATOM     26  C   UNL     1       7.234   6.109  16.784  0.00  0.00    +0.000 C 
ATOM     27  C   UNL     1       5.817   6.500  17.210  0.00  0.00    +0.000 C 
ENDBRANCH  20  23
ENDBRANCH   7  20
TORSDOF 3
ENDMDL
MODEL 5
REMARK VINA RESULT:      -7.5      1.001      1.050
REMARK  Name = 
REMARK  3 active torsions:
REMARK  status: ('A' for Active; 'I' for Inactive)
REMARK    1  A    between atoms: C_2  and  C_3
REMARK    2  A    between atoms: N_16  and  S_17
REMARK    3  A    between atoms: S_17  and  N_20
REMARK                            x       y       z     vdW  Elec       q    Type
REMARK                         _______ _______ _______ _____ _____    ______ ____
ROOT
ATOM      1  O   UNL     1       2.939   7.511  18.048  0.00  0.00    +0.000 OA
ATOM      2  C   UNL     1       2.311   7.354  19.093  0.00  0.00    +0.000 C 
ATOM      3  N   UNL     1       1.669   8.427  19.751  0.00  0.00    +0.000 N 
ATOM      4  C   UNL     1       1.638   9.742  19.121  0.00  0.00    +0.000 C 
ATOM      5  C   UNL     1       0.254  10.226  18.684  0.00  0.00    +0.000 C 
ATOM      6  C   UNL     1      -0.958  10.148  19.609  0.00  0.00    +0.000 C 
ATOM      7  N   UNL     1      -0.716   9.940  21.041  0.00  0.00    +0.000 NA
ATOM      8  C   UNL     1      -0.224   8.570  21.376  0.00  0.00    +0.000 C 
ATOM      9  C   UNL     1       1.281   8.400  21.169  0.00  0.00    +0.000 C 
ENDROOT
BRANCH   2  10
ATOM     10  C   UNL     1       2.201   6.001  19.706  0.00  0.00    +0.000 A 
ATOM     11  N   UNL     1       1.118   5.640  20.436  0.00  0.00    +0.000 NA
ATOM     12  N   UNL     1       1.393   4.384  20.818  0.00  0.00    +0.000 N 
ATOM     13  C   UNL     1       2.580   3.894  20.358  0.00  0.00    +0.000 A 
ATOM     14  C   UNL     1       3.199   2.654  20.551  0.00  0.00    +0.000 A 
ATOM     15  C   UNL     1       4.439   2.460  19.936  0.00  0.00    +0.000 A 
ATOM     16  C   UNL     1       5.025   3.467  19.169  0.00  0.00    +0.000 A 
ATOM     17  C   UNL     1       4.385   4.703  18.992  0.00  0.00    +0.000 A 
ATOM     18  C   UNL     1       3.133   4.923  19.602  0.00  0.00    +0.000 A 
ATOM     19  H   UNL     1       0.724   3.910  21.411  0.00  0.00    +0.000 HD
ENDBRANCH   2  10
BRANCH   7  20
ATOM     20  S   UNL     1      -0.198  11.200  22.015  0.00  0.00    +0.000 S 
ATOM     21  O   UNL     1      -0.213  10.728  23.382  0.00  0.00    +0.000 OA
ATOM     22  O   UNL     1       1.003  11.768  21.449  0.00  0.00    +0.000 OA
BRANCH  20  23
ATOM     23  N   UNL     1      -1.418  12.367  21.861  0.00  0.00    +0.000 NA
ATOM     24  C   UNL     1      -0.895  13.757  22.064  0.00  0.00    +0.000 C 
ATOM     25  C   UNL     1      -1.258  14.079  23.503  0.00  0.00    +0.000 C 
ATOM     26  C   UNL     1      -2.660  13.517  23.595  0.00  0.00    +0.000 C 
ATOM     27  C   UNL     1      -2.611  12.244  22.749  0.00  0.00    +0.000 C 
ENDBRANCH  20  23
ENDBRANCH   7  20
TORSDOF 3
ENDMDL
MODEL 6
REMARK VINA RESULT:      -7.4      3.119      7.976
REMARK  Name = 
REMARK  3 active torsions:
REMARK  status: ('A' for Active; 'I' for Inactive)
REMARK    1  A    between atoms: C_2  and  C_3
REMARK    2  A    between atoms: N_16  and  S_17
REMARK    3  A    between atoms: S_17  and  N_20
REMARK                            x       y       z     vdW  Elec       q    Type
REMARK                         _______ _______ _______ _____ _____    ______ ____
ROOT
ATOM      1  O   UNL     1       2.471   9.809  17.423  0.00  0.00    +0.000 OA
ATOM      2  C   UNL     1       2.152   8.964  18.255  0.00  0.00    +0.000 C 
ATOM      3  N   UNL     1       2.526   7.607  18.127  0.00  0.00    +0.000 N 
ATOM      4  C   UNL     1       3.419   7.206  17.046  0.00  0.00    +0.000 C 
ATOM      5  C   UNL     1       4.802   6.720  17.484  0.00  0.00    +0.000 C 
ATOM      6  C   UNL     1       4.981   5.702  18.609  0.00  0.00    +0.000 C 
ATOM      7  N   UNL     1       3.808   4.924  19.023  0.00  0.00    +0.000 NA
ATOM      8  C   UNL     1       2.780   5.726  19.753  0.00  0.00    +0.000 C 
ATOM      9  C   UNL     1       1.848   6.504  18.824  0.00  0.00    +0.000 C 
ENDROOT
BRANCH   2  10
ATOM     10  C   UNL     1       1.351   9.351  19.450  0.00  0.00    +0.000 A 
ATOM     11  N   UNL     1       1.549   8.764  20.655  0.00  0.00    +0.000 NA
ATOM     12  N   UNL     1       0.650   9.360  21.453  0.00  0.00    +0.000 N 
ATOM     13  C   UNL     1      -0.105  10.320  20.845  0.00  0.00    +0.000 A 
ATOM     14  C   UNL     1      -1.130  11.133  21.341  0.00  0.00    +0.000 A 
ATOM     15  C   UNL     1      -1.719  12.031  20.446  0.00  0.00    +0.000 A 
ATOM     16  C   UNL     1      -1.296  12.102  19.118  0.00  0.00    +0.000 A 
ATOM     17  C   UNL     1      -0.267  11.274  18.645  0.00  0.00    +0.000 A 
ATOM     18  C   UNL     1       0.343  10.360  19.528  0.00  0.00    +0.000 A 
ATOM     19  H   UNL     1       0.593   9.054  22.416  0.00  0.00    +0.000 HD
ENDBRANCH   2  10
BRANCH   7  20
ATOM     20  S   UNL     1       3.263   3.638  18.101  0.00  0.00    +0.000 S 
ATOM     21  O   UNL     1       1.975   4.007  17.557  0.00  0.00    +0.000 OA
ATOM     22  O   UNL     1       4.328   3.199  17.231  0.00  0.00    +0.000 OA
BRANCH  20  23
ATOM     23  N   UNL     1       3.007   2.401  19.232  0.00  0.00    +0.000 NA
ATOM     24  C   UNL     1       1.549   2.136  19.454  0.00  0.00    +0.000 C 
ATOM     25  C   UNL     1       1.229   2.889  20.734  0.00  0.00    +0.000 C 
ATOM     26  C   UNL     1       2.441   2.572  21.583  0.00  0.00    +0.000 C 
ATOM     27  C   UNL     1       3.604   2.568  20.589  0.00  0.00    +0.000 C 
ENDBRANCH  20  23
ENDBRANCH   7  20
TORSDOF 3
ENDMDL
MODEL 7
REMARK VINA RESULT:      -7.4      3.318      8.422
REMARK  Name = 
REMARK  3 active torsions:
REMARK  status: ('A' for Active; 'I' for Inactive)
REMARK    1  A    between atoms: C_2  and  C_3
REMARK    2  A    between atoms: N_16  and  S_17
REMARK    3  A    between atoms: S_17  and  N_20
REMARK                            x       y       z     vdW  Elec       q    Type
REMARK                         _______ _______ _______ _____ _____    ______ ____
ROOT
ATOM      1  O   UNL     1       1.063   8.033  21.771  0.00  0.00    +0.000 OA
ATOM      2  C   UNL     1       1.447   7.963  20.606  0.00  0.00    +0.000 C 
ATOM      3  N   UNL     1       2.097   6.816  20.098  0.00  0.00    +0.000 N 
ATOM      4  C   UNL     1       2.214   5.626  20.933  0.00  0.00    +0.000 C 
ATOM      5  C   UNL     1       1.417   4.410  20.456  0.00  0.00    +0.000 C 
ATOM      6  C   UNL     1       1.457   3.939  19.003  0.00  0.00    +0.000 C 
ATOM      7  N   UNL     1       2.539   4.440  18.149  0.00  0.00    +0.000 NA
ATOM      8  C   UNL     1       2.411   5.886  17.800  0.00  0.00    +0.000 C 
ATOM      9  C   UNL     1       2.935   6.821  18.890  0.00  0.00    +0.000 C 
ENDROOT
BRANCH   2  10
ATOM     10  C   UNL     1       1.230   9.105  19.675  0.00  0.00    +0.000 A 
ATOM     11  N   UNL     1       1.841   9.159  18.466  0.00  0.00    +0.000 NA
ATOM     12  N   UNL     1       1.412  10.317  17.942  0.00  0.00    +0.000 N 
ATOM     13  C   UNL     1       0.538  11.010  18.727  0.00  0.00    +0.000 A 
ATOM     14  C   UNL     1      -0.103  12.238  18.526  0.00  0.00    +0.000 A 
ATOM     15  C   UNL     1      -0.953  12.686  19.541  0.00  0.00    +0.000 A 
ATOM     16  C   UNL     1      -1.144  11.934  20.700  0.00  0.00    +0.000 A 
ATOM     17  C   UNL     1      -0.488  10.706  20.879  0.00  0.00    +0.000 A 
ATOM     18  C   UNL     1       0.374  10.233  19.869  0.00  0.00    +0.000 A 
ATOM     19  H   UNL     1       1.768  10.588  17.034  0.00  0.00    +0.000 HD
ENDBRANCH   2  10
BRANCH   7  20
ATOM     20  S   UNL     1       4.088   3.816  18.273  0.00  0.00    +0.000 S 
ATOM     21  O   UNL     1       4.284   3.407  19.646  0.00  0.00    +0.000 OA
ATOM     22  O   UNL     1       4.306   2.883  17.192  0.00  0.00    +0.000 OA
BRANCH  20  23
ATOM     23  N   UNL     1       5.093   5.151  17.986  0.00  0.00    +0.000 NA
ATOM     24  C   UNL     1       5.777   5.063  16.655  0.00  0.00    +0.000 C 
ATOM     25  C   UNL     1       7.163   4.538  16.989  0.00  0.00    +0.000 C 
ATOM     26  C   UNL     1       7.497   5.334  18.232  0.00  0.00    +0.000 C 
ATOM     27  C   UNL     1       6.168   5.436  18.981  0.00  0.00    +0.000 C 
ENDBRANCH  20  23
ENDBRANCH   7  20
TORSDOF 3
ENDMDL
MODEL 8
REMARK VINA RESULT:      -7.2      3.178      8.731
REMARK  Name = 
REMARK  3 active torsions:
REMARK  status: ('A' for Active; 'I' for Inactive)
REMARK    1  A    between atoms: C_2  and  C_3
REMARK    2  A    between atoms: N_16  and  S_17
REMARK    3  A    between atoms: S_17  and  N_20
REMARK                            x       y       z     vdW  Elec       q    Type
REMARK                         _______ _______ _______ _____ _____    ______ ____
ROOT
ATOM      1  O   UNL     1       0.316   8.645  21.462  0.00  0.00    +0.000 OA
ATOM      2  C   UNL     1       0.804   8.808  20.346  0.00  0.00    +0.000 C 
ATOM      3  N   UNL     1       1.817   7.963  19.839  0.00  0.00    +0.000 N 
ATOM      4  C   UNL     1       2.218   6.785  20.600  0.00  0.00    +0.000 C 
ATOM      5  C   UNL     1       1.878   5.440  19.954  0.00  0.00    +0.000 C 
ATOM      6  C   UNL     1       2.188   5.148  18.487  0.00  0.00    +0.000 C 
ATOM      7  N   UNL     1       3.136   6.030  17.798  0.00  0.00    +0.000 NA
ATOM      8  C   UNL     1       2.602   7.400  17.534  0.00  0.00    +0.000 C 
ATOM      9  C   UNL     1       2.717   8.336  18.738  0.00  0.00    +0.000 C 
ENDROOT
BRANCH   2  10
ATOM     10  C   UNL     1       0.331   9.920  19.475  0.00  0.00    +0.000 A 
ATOM     11  N   UNL     1      -0.359   9.681  18.334  0.00  0.00    +0.000 NA
ATOM     12  N   UNL     1      -0.590  10.906  17.837  0.00  0.00    +0.000 N 
ATOM     13  C   UNL     1      -0.114  11.931  18.601  0.00  0.00    +0.000 A 
ATOM     14  C   UNL     1      -0.155  13.316  18.407  0.00  0.00    +0.000 A 
ATOM     15  C   UNL     1       0.438  14.113  19.391  0.00  0.00    +0.000 A 
ATOM     16  C   UNL     1       1.043  13.541  20.509  0.00  0.00    +0.000 A 
ATOM     17  C   UNL     1       1.072  12.148  20.679  0.00  0.00    +0.000 A 
ATOM     18  C   UNL     1       0.481  11.323  19.702  0.00  0.00    +0.000 A 
ATOM     19  H   UNL     1      -1.078  10.975  16.953  0.00  0.00    +0.000 HD
ENDBRANCH   2  10
BRANCH   7  20
ATOM     20  S   UNL     1       4.783   5.886  18.055  0.00  0.00    +0.000 S 
ATOM     21  O   UNL     1       5.424   7.013  17.415  0.00  0.00    +0.000 OA
ATOM     22  O   UNL     1       5.018   5.605  19.451  0.00  0.00    +0.000 OA
BRANCH  20  23
ATOM     23  N   UNL     1       5.214   4.492  17.190  0.00  0.00    +0.000 NA
ATOM     24  C   UNL     1       6.700   4.332  17.087  0.00  0.00    +0.000 C 
ATOM     25  C   UNL     1       7.032   4.865  15.703  0.00  0.00    +0.000 C 
ATOM     26  C   UNL     1       5.906   4.282  14.877  0.00  0.00    +0.000 C 
ATOM     27  C   UNL     1       4.689   4.349  15.800  0.00  0.00    +0.000 C 
ENDBRANCH  20  23
ENDBRANCH   7  20
TORSDOF 3
ENDMDL
MODEL 9
REMARK VINA RESULT:      -7.1      1.168      1.190
REMARK  Name = 
REMARK  3 active torsions:
REMARK  status: ('A' for Active; 'I' for Inactive)
REMARK    1  A    between atoms: C_2  and  C_3
REMARK    2  A    between atoms: N_16  and  S_17
REMARK    3  A    between atoms: S_17  and  N_20
REMARK                            x       y       z     vdW  Elec       q    Type
REMARK                         _______ _______ _______ _____ _____    ______ ____
ROOT
ATOM      1  O   UNL     1       3.168   7.884  17.007  0.00  0.00    +0.000 OA
ATOM      2  C   UNL     1       2.849   7.565  18.150  0.00  0.00    +0.000 C 
ATOM      3  N   UNL     1       2.125   8.434  18.997  0.00  0.00    +0.000 N 
ATOM      4  C   UNL     1       1.629   9.702  18.472  0.00  0.00    +0.000 C 
ATOM      5  C   UNL     1       0.106   9.819  18.372  0.00  0.00    +0.000 C 
ATOM      6  C   UNL     1      -0.811   9.428  19.530  0.00  0.00    +0.000 C 
ATOM      7  N   UNL     1      -0.210   9.280  20.860  0.00  0.00    +0.000 NA
ATOM      8  C   UNL     1       0.667   8.079  20.995  0.00  0.00    +0.000 C 
ATOM      9  C   UNL     1       2.082   8.301  20.460  0.00  0.00    +0.000 C 
ENDROOT
BRANCH   2  10
ATOM     10  C   UNL     1       3.217   6.225  18.686  0.00  0.00    +0.000 A 
ATOM     11  N   UNL     1       4.363   6.033  19.384  0.00  0.00    +0.000 NA
ATOM     12  N   UNL     1       4.343   4.724  19.678  0.00  0.00    +0.000 N 
ATOM     13  C   UNL     1       3.239   4.056  19.234  0.00  0.00    +0.000 A 
ATOM     14  C   UNL     1       2.877   2.708  19.340  0.00  0.00    +0.000 A 
ATOM     15  C   UNL     1       1.660   2.330  18.766  0.00  0.00    +0.000 A 
ATOM     16  C   UNL     1       0.852   3.264  18.118  0.00  0.00    +0.000 A 
ATOM     17  C   UNL     1       1.238   4.610  18.024  0.00  0.00    +0.000 A 
ATOM     18  C   UNL     1       2.461   5.016  18.595  0.00  0.00    +0.000 A 
ATOM     19  H   UNL     1       5.131   4.338  20.182  0.00  0.00    +0.000 HD
ENDBRANCH   2  10
BRANCH   7  20
ATOM     20  S   UNL     1       0.183  10.624  21.777  0.00  0.00    +0.000 S 
ATOM     21  O   UNL     1       0.392  10.177  23.137  0.00  0.00    +0.000 OA
ATOM     22  O   UNL     1       1.203  11.380  21.090  0.00  0.00    +0.000 OA
BRANCH  20  23
ATOM     23  N   UNL     1      -1.228  11.564  21.757  0.00  0.00    +0.000 NA
ATOM     24  C   UNL     1      -0.967  12.960  21.281  0.00  0.00    +0.000 C 
ATOM     25  C   UNL     1      -0.868  13.772  22.561  0.00  0.00    +0.000 C 
ATOM     26  C   UNL     1      -2.004  13.192  23.376  0.00  0.00    +0.000 C 
ATOM     27  C   UNL     1      -1.988  11.701  23.034  0.00  0.00    +0.000 C 
ENDBRANCH  20  23
ENDBRANCH   7  20
TORSDOF 3
ENDMDL
