MODEL 1
REMARK VINA RESULT:      -7.8      0.000      0.000
REMARK  Name = 
REMARK  7 active torsions:
REMARK  status: ('A' for Active; 'I' for Inactive)
REMARK    1  A    between atoms: C_2  and  C_11
REMARK    2  A    between atoms: N_3  and  C_4
REMARK    3  A    between atoms: C_4  and  C_5
REMARK    4  A    between atoms: C_14  and  C_15
REMARK    5  A    between atoms: C_15  and  N_16
REMARK    6  A    between atoms: N_16  and  S_17
REMARK    7  A    between atoms: S_17  and  C_20
REMARK                            x       y       z     vdW  Elec       q    Type
REMARK                         _______ _______ _______ _____ _____    ______ ____
ROOT
ATOM      1  C   UNL     1       2.625   4.789  17.564  0.00  0.00    +0.000 C 
ATOM      2  C   UNL     1       1.739   4.116  18.623  0.00  0.00    +0.000 C 
ATOM      3  C   UNL     1       2.335   4.208  20.027  0.00  0.00    +0.000 C 
ATOM      4  C   UNL     1       2.631   5.655  20.449  0.00  0.00    +0.000 C 
ATOM      5  C   UNL     1       3.558   6.309  19.410  0.00  0.00    +0.000 C 
ATOM      6  C   UNL     1       3.009   6.221  17.982  0.00  0.00    +0.000 C 
ENDROOT
BRANCH   1   8
ATOM      7  O   UNL     1       3.929   2.740  17.431  0.00  0.00    +0.000 OA
ATOM      8  C   UNL     1       3.861   3.950  17.226  0.00  0.00    +0.000 C 
ATOM      9  N   UNL     1       4.901   4.662  16.681  0.00  0.00    +0.000 N 
ATOM     10  H   UNL     1       4.880   5.673  16.680  0.00  0.00    +0.000 HD
BRANCH   9  11
ATOM     11  C   UNL     1       6.157   4.030  16.324  0.00  0.00    +0.000 C 
BRANCH  11  12
ATOM     12  C   UNL     1       6.531   4.223  14.872  0.00  0.00    +0.000 A 
ATOM     13  C   UNL     1       5.860   3.518  13.875  0.00  0.00    +0.000 A 
ATOM     14  C   UNL     1       6.189   3.749  12.542  0.00  0.00    +0.000 A 
ATOM     15  C   UNL     1       7.184   4.671  12.239  0.00  0.00    +0.000 A 
ATOM     16  C   UNL     1       7.819   5.314  13.288  0.00  0.00    +0.000 A 
ATOM     17  N   UNL     1       7.524   5.108  14.592  0.00  0.00    +0.000 NA
ENDBRANCH  11  12
ENDBRANCH   9  11
ENDBRANCH   1   8
BRANCH   4  18
ATOM     18  C   UNL     1       1.368   6.514  20.648  0.00  0.00    +0.000 C 
BRANCH  18  19
ATOM     19  N   UNL     1       1.719   7.896  20.991  0.00  0.00    +0.000 NA
ATOM     20  H   UNL     1       2.199   8.450  20.282  0.00  0.00    +0.000 HD
BRANCH  19  21
ATOM     21  S   UNL     1       0.524   8.825  21.742  0.00  0.00    +0.000 S 
ATOM     22  O   UNL     1      -0.628   7.955  21.865  0.00  0.00    +0.000 OA
ATOM     23  O   UNL     1       1.105   9.475  22.893  0.00  0.00    +0.000 OA
BRANCH  21  24
ATOM     24  C   UNL     1       0.135  10.065  20.530  0.00  0.00    +0.000 A 
ATOM     25  C   UNL     1       0.451   9.845  19.184  0.00  0.00    +0.000 A 
ATOM     26  C   UNL     1       0.011  10.749  18.213  0.00  0.00    +0.000 A 
ATOM     27  C   UNL     1      -0.741  11.857  18.596  0.00  0.00    +0.000 A 
ATOM     28  F   UNL     1      -1.188  12.705  17.661  0.00  0.00    +0.000 F 
ATOM     29  C   UNL     1      -1.052  12.087  19.933  0.00  0.00    +0.000 A 
ATOM     30  C   UNL     1      -0.619  11.186  20.909  0.00  0.00    +0.000 A 
ENDBRANCH  21  24
ENDBRANCH  19  21
ENDBRANCH  18  19
ENDBRANCH   4  18
TORSDOF 7
ENDMDL
MODEL 2
REMARK VINA RESULT:      -7.7      3.642      8.817
REMARK  Name = 
REMARK  7 active torsions:
REMARK  status: ('A' for Active; 'I' for Inactive)
REMARK    1  A    between atoms: C_2  and  C_11
REMARK    2  A    between atoms: N_3  and  C_4
REMARK    3  A    between atoms: C_4  and  C_5
REMARK    4  A    between atoms: C_14  and  C_15
REMARK    5  A    between atoms: C_15  and  N_16
REMARK    6  A    between atoms: N_16  and  S_17
REMARK    7  A    between atoms: S_17  and  C_20
REMARK                            x       y       z     vdW  Elec       q    Type
REMARK                         _______ _______ _______ _____ _____    ______ ____
ROOT
ATOM      1  C   UNL     1       2.506   6.534  18.886  0.00  0.00    +0.000 C 
ATOM      2  C   UNL     1       3.947   6.016  19.000  0.00  0.00    +0.000 C 
ATOM      3  C   UNL     1       4.009   4.560  19.458  0.00  0.00    +0.000 C 
ATOM      4  C   UNL     1       3.194   3.621  18.556  0.00  0.00    +0.000 C 
ATOM      5  C   UNL     1       1.741   4.117  18.485  0.00  0.00    +0.000 C 
ATOM      6  C   UNL     1       1.631   5.583  18.048  0.00  0.00    +0.000 C 
ENDROOT
BRANCH   1   8
ATOM      7  O   UNL     1       1.415   5.932  20.975  0.00  0.00    +0.000 OA
ATOM      8  C   UNL     1       1.882   6.813  20.257  0.00  0.00    +0.000 C 
ATOM      9  N   UNL     1       1.874   8.137  20.620  0.00  0.00    +0.000 N 
ATOM     10  H   UNL     1       2.109   8.852  19.944  0.00  0.00    +0.000 HD
BRANCH   9  11
ATOM     11  C   UNL     1       1.300   8.583  21.876  0.00  0.00    +0.000 C 
BRANCH  11  12
ATOM     12  C   UNL     1       0.384   9.776  21.724  0.00  0.00    +0.000 A 
ATOM     13  C   UNL     1      -0.036  10.182  20.459  0.00  0.00    +0.000 A 
ATOM     14  C   UNL     1      -0.919  11.253  20.349  0.00  0.00    +0.000 A 
ATOM     15  C   UNL     1      -1.353  11.896  21.502  0.00  0.00    +0.000 A 
ATOM     16  C   UNL     1      -0.871  11.446  22.720  0.00  0.00    +0.000 A 
ATOM     17  N   UNL     1      -0.011  10.412  22.859  0.00  0.00    +0.000 NA
ENDBRANCH  11  12
ENDBRANCH   9  11
ENDBRANCH   1   8
BRANCH   4  18
ATOM     18  C   UNL     1       3.773   3.468  17.137  0.00  0.00    +0.000 C 
BRANCH  18  19
ATOM     19  N   UNL     1       5.239   3.507  17.158  0.00  0.00    +0.000 NA
ATOM     20  H   UNL     1       5.734   2.616  17.191  0.00  0.00    +0.000 HD
BRANCH  19  21
ATOM     21  S   UNL     1       5.993   4.549  16.062  0.00  0.00    +0.000 S 
ATOM     22  O   UNL     1       7.036   3.766  15.433  0.00  0.00    +0.000 OA
ATOM     23  O   UNL     1       4.973   5.211  15.284  0.00  0.00    +0.000 OA
BRANCH  21  24
ATOM     24  C   UNL     1       6.778   5.755  17.105  0.00  0.00    +0.000 A 
ATOM     25  C   UNL     1       7.467   5.340  18.252  0.00  0.00    +0.000 A 
ATOM     26  C   UNL     1       8.210   6.268  18.986  0.00  0.00    +0.000 A 
ATOM     27  C   UNL     1       8.260   7.595  18.566  0.00  0.00    +0.000 A 
ATOM     28  F   UNL     1       8.999   8.476  19.255  0.00  0.00    +0.000 F 
ATOM     29  C   UNL     1       7.573   8.017  17.433  0.00  0.00    +0.000 A 
ATOM     30  C   UNL     1       6.830   7.094  16.691  0.00  0.00    +0.000 A 
ENDBRANCH  21  24
ENDBRANCH  19  21
ENDBRANCH  18  19
ENDBRANCH   4  18
TORSDOF 7
ENDMDL
MODEL 3
REMARK VINA RESULT:      -7.4      3.571      8.539
REMARK  Name = 
REMARK  7 active torsions:
REMARK  status: ('A' for Active; 'I' for Inactive)
REMARK    1  A    between atoms: C_2  and  C_11
REMARK    2  A    between atoms: N_3  and  C_4
REMARK    3  A    between atoms: C_4  and  C_5
REMARK    4  A    between atoms: C_14  and  C_15
REMARK    5  A    between atoms: C_15  and  N_16
REMARK    6  A    between atoms: N_16  and  S_17
REMARK    7  A    between atoms: S_17  and  C_20
REMARK                            x       y       z     vdW  Elec       q    Type
REMARK                         _______ _______ _______ _____ _____    ______ ____
ROOT
ATOM      1  C   UNL     1       3.081   6.110  19.096  0.00  0.00    +0.000 C 
ATOM      2  C   UNL     1       4.180   5.127  19.527  0.00  0.00    +0.000 C 
ATOM      3  C   UNL     1       3.643   3.716  19.760  0.00  0.00    +0.000 C 
ATOM      4  C   UNL     1       2.904   3.156  18.535  0.00  0.00    +0.000 C 
ATOM      5  C   UNL     1       1.773   4.120  18.138  0.00  0.00    +0.000 C 
ATOM      6  C   UNL     1       2.264   5.555  17.914  0.00  0.00    +0.000 C 
ENDROOT
BRANCH   1   8
ATOM      7  O   UNL     1       1.685   5.706  21.047  0.00  0.00    +0.000 OA
ATOM      8  C   UNL     1       2.178   6.516  20.265  0.00  0.00    +0.000 C 
ATOM      9  N   UNL     1       1.950   7.867  20.366  0.00  0.00    +0.000 N 
ATOM     10  H   UNL     1       2.228   8.487  19.617  0.00  0.00    +0.000 HD
BRANCH   9  11
ATOM     11  C   UNL     1       1.099   8.423  21.400  0.00  0.00    +0.000 C 
BRANCH  11  12
ATOM     12  C   UNL     1       0.323   9.640  20.945  0.00  0.00    +0.000 A 
ATOM     13  C   UNL     1       0.210   9.932  19.587  0.00  0.00    +0.000 A 
ATOM     14  C   UNL     1      -0.550  11.029  19.192  0.00  0.00    +0.000 A 
ATOM     15  C   UNL     1      -1.170  11.810  20.160  0.00  0.00    +0.000 A 
ATOM     16  C   UNL     1      -0.990  11.465  21.489  0.00  0.00    +0.000 A 
ATOM     17  N   UNL     1      -0.256  10.409  21.905  0.00  0.00    +0.000 NA
ENDBRANCH  11  12
ENDBRANCH   9  11
ENDBRANCH   1   8
BRANCH   4  18
ATOM     18  C   UNL     1       3.820   2.886  17.327  0.00  0.00    +0.000 C 
BRANCH  18  19
ATOM     19  N   UNL     1       5.143   3.487  17.525  0.00  0.00    +0.000 NA
ATOM     20  H   UNL     1       5.881   2.890  17.901  0.00  0.00    +0.000 HD
BRANCH  19  21
ATOM     21  S   UNL     1       5.750   4.436  16.266  0.00  0.00    +0.000 S 
ATOM     22  O   UNL     1       6.582   3.551  15.476  0.00  0.00    +0.000 OA
ATOM     23  O   UNL     1       4.654   5.168  15.676  0.00  0.00    +0.000 OA
BRANCH  21  24
ATOM     24  C   UNL     1       6.820   5.590  17.090  0.00  0.00    +0.000 A 
ATOM     25  C   UNL     1       6.962   6.889  16.586  0.00  0.00    +0.000 A 
ATOM     26  C   UNL     1       7.681   7.839  17.317  0.00  0.00    +0.000 A 
ATOM     27  C   UNL     1       8.245   7.484  18.539  0.00  0.00    +0.000 A 
ATOM     28  F   UNL     1       8.908   8.406  19.251  0.00  0.00    +0.000 F 
ATOM     29  C   UNL     1       8.116   6.194  19.043  0.00  0.00    +0.000 A 
ATOM     30  C   UNL     1       7.395   5.238  18.320  0.00  0.00    +0.000 A 
ENDBRANCH  21  24
ENDBRANCH  19  21
ENDBRANCH  18  19
ENDBRANCH   4  18
TORSDOF 7
ENDMDL
MODEL 4
REMARK VINA RESULT:      -7.3      4.923      6.877
REMARK  Name = 
REMARK  7 active torsions:
REMARK  status: ('A' for Active; 'I' for Inactive)
REMARK    1  A    between atoms: C_2  and  C_11
REMARK    2  A    between atoms: N_3  and  C_4
REMARK    3  A    between atoms: C_4  and  C_5
REMARK    4  A    between atoms: C_14  and  C_15
REMARK    5  A    between atoms: C_15  and  N_16
REMARK    6  A    between atoms: N_16  and  S_17
REMARK    7  A    between atoms: S_17  and  C_20
REMARK                            x       y       z     vdW  Elec       q    Type
REMARK                         _______ _______ _______ _____ _____    ______ ____
ROOT
ATOM      1  C   UNL     1       6.742   6.656  18.198  0.00  0.00    +0.000 C 
ATOM      2  C   UNL     1       5.338   6.644  17.573  0.00  0.00    +0.000 C 
ATOM      3  C   UNL     1       5.297   5.896  16.242  0.00  0.00    +0.000 C 
ATOM      4  C   UNL     1       5.821   4.456  16.358  0.00  0.00    +0.000 C 
ATOM      5  C   UNL     1       7.245   4.477  16.938  0.00  0.00    +0.000 C 
ATOM      6  C   UNL     1       7.338   5.238  18.266  0.00  0.00    +0.000 C 
ENDROOT
BRANCH   1   8
ATOM      7  O   UNL     1       8.232   7.372  16.414  0.00  0.00    +0.000 OA
ATOM      8  C   UNL     1       7.685   7.630  17.483  0.00  0.00    +0.000 C 
ATOM      9  N   UNL     1       7.880   8.819  18.141  0.00  0.00    +0.000 N 
ATOM     10  H   UNL     1       7.553   8.935  19.091  0.00  0.00    +0.000 HD
BRANCH   9  11
ATOM     11  C   UNL     1       8.761   9.846  17.618  0.00  0.00    +0.000 C 
BRANCH  11  12
ATOM     12  C   UNL     1       9.409  10.684  18.697  0.00  0.00    +0.000 A 
ATOM     13  C   UNL     1      10.313  11.689  18.356  0.00  0.00    +0.000 A 
ATOM     14  C   UNL     1      10.858  12.480  19.364  0.00  0.00    +0.000 A 
ATOM     15  C   UNL     1      10.494  12.244  20.684  0.00  0.00    +0.000 A 
ATOM     16  C   UNL     1       9.607  11.212  20.942  0.00  0.00    +0.000 A 
ATOM     17  N   UNL     1       9.064  10.425  19.986  0.00  0.00    +0.000 NA
ENDBRANCH  11  12
ENDBRANCH   9  11
ENDBRANCH   1   8
BRANCH   4  18
ATOM     18  C   UNL     1       4.919   3.534  17.200  0.00  0.00    +0.000 C 
BRANCH  18  19
ATOM     19  N   UNL     1       3.505   3.887  17.035  0.00  0.00    +0.000 NA
ATOM     20  H   UNL     1       3.059   3.646  16.150  0.00  0.00    +0.000 HD
BRANCH  19  21
ATOM     21  S   UNL     1       2.471   3.527  18.322  0.00  0.00    +0.000 S 
ATOM     22  O   UNL     1       1.258   3.015  17.718  0.00  0.00    +0.000 OA
ATOM     23  O   UNL     1       3.207   2.762  19.301  0.00  0.00    +0.000 OA
BRANCH  21  24
ATOM     24  C   UNL     1       2.098   5.119  19.016  0.00  0.00    +0.000 A 
ATOM     25  C   UNL     1       1.799   5.231  20.380  0.00  0.00    +0.000 A 
ATOM     26  C   UNL     1       1.656   6.497  20.955  0.00  0.00    +0.000 A 
ATOM     27  C   UNL     1       1.816   7.633  20.166  0.00  0.00    +0.000 A 
ATOM     28  F   UNL     1       1.709   8.845  20.727  0.00  0.00    +0.000 F 
ATOM     29  C   UNL     1       2.106   7.530  18.809  0.00  0.00    +0.000 A 
ATOM     30  C   UNL     1       2.254   6.269  18.227  0.00  0.00    +0.000 A 
ENDBRANCH  21  24
ENDBRANCH  19  21
ENDBRANCH  18  19
ENDBRANCH   4  18
TORSDOF 7
ENDMDL
MODEL 5
REMARK VINA RESULT:      -7.2      3.805      8.270
REMARK  Name = 
REMARK  7 active torsions:
REMARK  status: ('A' for Active; 'I' for Inactive)
REMARK    1  A    between atoms: C_2  and  C_11
REMARK    2  A    between atoms: N_3  and  C_4
REMARK    3  A    between atoms: C_4  and  C_5
REMARK    4  A    between atoms: C_14  and  C_15
REMARK    5  A    between atoms: C_15  and  N_16
REMARK    6  A    between atoms: N_16  and  S_17
REMARK    7  A    between atoms: S_17  and  C_20
REMARK                            x       y       z     vdW  Elec       q    Type
REMARK                         _______ _______ _______ _____ _____    ______ ____
ROOT
ATOM      1  C   UNL     1       3.113   4.591  19.916  0.00  0.00    +0.000 C 
ATOM      2  C   UNL     1       2.651   3.433  19.018  0.00  0.00    +0.000 C 
ATOM      3  C   UNL     1       2.198   3.909  17.639  0.00  0.00    +0.000 C 
ATOM      4  C   UNL     1       3.276   4.726  16.912  0.00  0.00    +0.000 C 
ATOM      5  C   UNL     1       3.699   5.912  17.795  0.00  0.00    +0.000 C 
ATOM      6  C   UNL     1       4.143   5.482  19.198  0.00  0.00    +0.000 C 
ENDROOT
BRANCH   1   8
ATOM      7  O   UNL     1       0.820   4.934  20.653  0.00  0.00    +0.000 OA
ATOM      8  C   UNL     1       1.935   5.411  20.453  0.00  0.00    +0.000 C 
ATOM      9  N   UNL     1       2.222   6.733  20.685  0.00  0.00    +0.000 N 
ATOM     10  H   UNL     1       3.091   7.132  20.356  0.00  0.00    +0.000 HD
BRANCH   9  11
ATOM     11  C   UNL     1       1.217   7.659  21.172  0.00  0.00    +0.000 C 
BRANCH  11  12
ATOM     12  C   UNL     1       1.133   8.932  20.360  0.00  0.00    +0.000 A 
ATOM     13  C   UNL     1       1.490   8.929  19.013  0.00  0.00    +0.000 A 
ATOM     14  C   UNL     1       1.357  10.102  18.274  0.00  0.00    +0.000 A 
ATOM     15  C   UNL     1       0.880  11.248  18.899  0.00  0.00    +0.000 A 
ATOM     16  C   UNL     1       0.568  11.174  20.247  0.00  0.00    +0.000 A 
ATOM     17  N   UNL     1       0.690  10.051  20.991  0.00  0.00    +0.000 NA
ENDBRANCH  11  12
ENDBRANCH   9  11
ENDBRANCH   1   8
BRANCH   4  18
ATOM     18  C   UNL     1       4.511   3.900  16.505  0.00  0.00    +0.000 C 
BRANCH  18  19
ATOM     19  N   UNL     1       4.968   4.262  15.160  0.00  0.00    +0.000 NA
ATOM     20  H   UNL     1       4.263   4.339  14.427  0.00  0.00    +0.000 HD
BRANCH  19  21
ATOM     21  S   UNL     1       6.069   5.539  15.043  0.00  0.00    +0.000 S 
ATOM     22  O   UNL     1       7.094   5.088  14.125  0.00  0.00    +0.000 OA
ATOM     23  O   UNL     1       5.332   6.759  14.812  0.00  0.00    +0.000 OA
BRANCH  21  24
ATOM     24  C   UNL     1       6.792   5.617  16.664  0.00  0.00    +0.000 A 
ATOM     25  C   UNL     1       7.266   4.447  17.271  0.00  0.00    +0.000 A 
ATOM     26  C   UNL     1       7.970   4.529  18.475  0.00  0.00    +0.000 A 
ATOM     27  C   UNL     1       8.195   5.774  19.057  0.00  0.00    +0.000 A 
ATOM     28  F   UNL     1       8.896   5.852  20.196  0.00  0.00    +0.000 F 
ATOM     29  C   UNL     1       7.720   6.940  18.465  0.00  0.00    +0.000 A 
ATOM     30  C   UNL     1       7.018   6.867  17.258  0.00  0.00    +0.000 A 
ENDBRANCH  21  24
ENDBRANCH  19  21
ENDBRANCH  18  19
ENDBRANCH   4  18
TORSDOF 7
ENDMDL
MODEL 6
REMARK VINA RESULT:      -7.2      4.636      6.713
REMARK  Name = 
REMARK  7 active torsions:
REMARK  status: ('A' for Active; 'I' for Inactive)
REMARK    1  A    between atoms: C_2  and  C_11
REMARK    2  A    between atoms: N_3  and  C_4
REMARK    3  A    between atoms: C_4  and  C_5
REMARK    4  A    between atoms: C_14  and  C_15
REMARK    5  A    between atoms: C_15  and  N_16
REMARK    6  A    between atoms: N_16  and  S_17
REMARK    7  A    between atoms: S_17  and  C_20
REMARK                            x       y       z     vdW  Elec       q    Type
REMARK                         _______ _______ _______ _____ _____    ______ ____
ROOT
ATOM      1  C   UNL     1       5.884   6.888  17.357  0.00  0.00    +0.000 C 
ATOM      2  C   UNL     1       5.303   6.427  16.012  0.00  0.00    +0.000 C 
ATOM      3  C   UNL     1       5.880   5.088  15.555  0.00  0.00    +0.000 C 
ATOM      4  C   UNL     1       5.697   3.978  16.602  0.00  0.00    +0.000 C 
ATOM      5  C   UNL     1       6.323   4.425  17.933  0.00  0.00    +0.000 C 
ATOM      6  C   UNL     1       5.788   5.777  18.420  0.00  0.00    +0.000 C 
ENDROOT
BRANCH   1   8
ATOM      7  O   UNL     1       8.129   6.949  16.423  0.00  0.00    +0.000 OA
ATOM      8  C   UNL     1       7.316   7.414  17.219  0.00  0.00    +0.000 C 
ATOM      9  N   UNL     1       7.627   8.447  18.068  0.00  0.00    +0.000 N 
ATOM     10  H   UNL     1       6.998   8.694  18.821  0.00  0.00    +0.000 HD
BRANCH   9  11
ATOM     11  C   UNL     1       8.946   9.049  18.089  0.00  0.00    +0.000 C 
BRANCH  11  12
ATOM     12  C   UNL     1       8.954  10.455  18.647  0.00  0.00    +0.000 A 
ATOM     13  C   UNL     1       9.288  10.677  19.982  0.00  0.00    +0.000 A 
ATOM     14  C   UNL     1       9.336  11.983  20.460  0.00  0.00    +0.000 A 
ATOM     15  C   UNL     1       9.043  13.033  19.597  0.00  0.00    +0.000 A 
ATOM     16  C   UNL     1       8.698  12.727  18.291  0.00  0.00    +0.000 A 
ATOM     17  N   UNL     1       8.639  11.469  17.799  0.00  0.00    +0.000 NA
ENDBRANCH  11  12
ENDBRANCH   9  11
ENDBRANCH   1   8
BRANCH   4  18
ATOM     18  C   UNL     1       4.229   3.566  16.818  0.00  0.00    +0.000 C 
BRANCH  18  19
ATOM     19  N   UNL     1       4.033   2.993  18.153  0.00  0.00    +0.000 NA
ATOM     20  H   UNL     1       4.696   3.257  18.881  0.00  0.00    +0.000 HD
BRANCH  19  21
ATOM     21  S   UNL     1       2.459   3.007  18.769  0.00  0.00    +0.000 S 
ATOM     22  O   UNL     1       1.605   2.614  17.667  0.00  0.00    +0.000 OA
ATOM     23  O   UNL     1       2.451   2.291  20.023  0.00  0.00    +0.000 OA
BRANCH  21  24
ATOM     24  C   UNL     1       2.155   4.726  19.100  0.00  0.00    +0.000 A 
ATOM     25  C   UNL     1       1.992   5.162  20.421  0.00  0.00    +0.000 A 
ATOM     26  C   UNL     1       1.906   6.531  20.692  0.00  0.00    +0.000 A 
ATOM     27  C   UNL     1       1.987   7.446  19.645  0.00  0.00    +0.000 A 
ATOM     28  F   UNL     1       1.934   8.757  19.911  0.00  0.00    +0.000 F 
ATOM     29  C   UNL     1       2.140   7.020  18.329  0.00  0.00    +0.000 A 
ATOM     30  C   UNL     1       2.232   5.654  18.050  0.00  0.00    +0.000 A 
ENDBRANCH  21  24
ENDBRANCH  19  21
ENDBRANCH  18  19
ENDBRANCH   4  18
TORSDOF 7
ENDMDL
MODEL 7
REMARK VINA RESULT:      -7.2      4.776      6.698
REMARK  Name = 
REMARK  7 active torsions:
REMARK  status: ('A' for Active; 'I' for Inactive)
REMARK    1  A    between atoms: C_2  and  C_11
REMARK    2  A    between atoms: N_3  and  C_4
REMARK    3  A    between atoms: C_4  and  C_5
REMARK    4  A    between atoms: C_14  and  C_15
REMARK    5  A    between atoms: C_15  and  N_16
REMARK    6  A    between atoms: N_16  and  S_17
REMARK    7  A    between atoms: S_17  and  C_20
REMARK                            x       y       z     vdW  Elec       q    Type
REMARK                         _______ _______ _______ _____ _____    ______ ____
ROOT
ATOM      1  C   UNL     1       6.758   6.519  18.240  0.00  0.00    +0.000 C 
ATOM      2  C   UNL     1       5.314   6.623  17.725  0.00  0.00    +0.000 C 
ATOM      3  C   UNL     1       5.134   5.973  16.355  0.00  0.00    +0.000 C 
ATOM      4  C   UNL     1       5.584   4.504  16.333  0.00  0.00    +0.000 C 
ATOM      5  C   UNL     1       7.046   4.412  16.803  0.00  0.00    +0.000 C 
ATOM      6  C   UNL     1       7.277   5.071  18.167  0.00  0.00    +0.000 C 
ENDROOT
BRANCH   1   8
ATOM      7  O   UNL     1       8.278   7.215  16.474  0.00  0.00    +0.000 OA
ATOM      8  C   UNL     1       7.699   7.492  17.521  0.00  0.00    +0.000 C 
ATOM      9  N   UNL     1       7.854   8.703  18.150  0.00  0.00    +0.000 N 
ATOM     10  H   UNL     1       7.501   8.838  19.088  0.00  0.00    +0.000 HD
BRANCH   9  11
ATOM     11  C   UNL     1       8.727   9.733  17.621  0.00  0.00    +0.000 C 
BRANCH  11  12
ATOM     12  C   UNL     1       9.070  10.804  18.631  0.00  0.00    +0.000 A 
ATOM     13  C   UNL     1       9.349  10.458  19.952  0.00  0.00    +0.000 A 
ATOM     14  C   UNL     1       9.710  11.457  20.852  0.00  0.00    +0.000 A 
ATOM     15  C   UNL     1       9.776  12.774  20.414  0.00  0.00    +0.000 A 
ATOM     16  C   UNL     1       9.462  13.038  19.091  0.00  0.00    +0.000 A 
ATOM     17  N   UNL     1       9.104  12.090  18.195  0.00  0.00    +0.000 NA
ENDBRANCH  11  12
ENDBRANCH   9  11
ENDBRANCH   1   8
BRANCH   4  18
ATOM     18  C   UNL     1       4.696   3.572  17.178  0.00  0.00    +0.000 C 
BRANCH  18  19
ATOM     19  N   UNL     1       3.286   3.970  17.097  0.00  0.00    +0.000 NA
ATOM     20  H   UNL     1       2.765   3.692  16.265  0.00  0.00    +0.000 HD
BRANCH  19  21
ATOM     21  S   UNL     1       2.343   3.734  18.479  0.00  0.00    +0.000 S 
ATOM     22  O   UNL     1       1.039   3.326  17.997  0.00  0.00    +0.000 OA
ATOM     23  O   UNL     1       3.091   2.922  19.410  0.00  0.00    +0.000 OA
BRANCH  21  24
ATOM     24  C   UNL     1       2.181   5.367  19.158  0.00  0.00    +0.000 A 
ATOM     25  C   UNL     1       2.281   6.483  18.317  0.00  0.00    +0.000 A 
ATOM     26  C   UNL     1       2.003   7.756  18.823  0.00  0.00    +0.000 A 
ATOM     27  C   UNL     1       1.627   7.901  20.156  0.00  0.00    +0.000 A 
ATOM     28  F   UNL     1       1.332   9.119  20.628  0.00  0.00    +0.000 F 
ATOM     29  C   UNL     1       1.534   6.798  20.999  0.00  0.00    +0.000 A 
ATOM     30  C   UNL     1       1.806   5.521  20.501  0.00  0.00    +0.000 A 
ENDBRANCH  21  24
ENDBRANCH  19  21
ENDBRANCH  18  19
ENDBRANCH   4  18
TORSDOF 7
ENDMDL
MODEL 8
REMARK VINA RESULT:      -7.2      0.884      1.290
REMARK  Name = 
REMARK  7 active torsions:
REMARK  status: ('A' for Active; 'I' for Inactive)
REMARK    1  A    between atoms: C_2  and  C_11
REMARK    2  A    between atoms: N_3  and  C_4
REMARK    3  A    between atoms: C_4  and  C_5
REMARK    4  A    between atoms: C_14  and  C_15
REMARK    5  A    between atoms: C_15  and  N_16
REMARK    6  A    between atoms: N_16  and  S_17
REMARK    7  A    between atoms: S_17  and  C_20
REMARK                            x       y       z     vdW  Elec       q    Type
REMARK                         _______ _______ _______ _____ _____    ______ ____
ROOT
ATOM      1  C   UNL     1       2.568   5.007  17.609  0.00  0.00    +0.000 C 
ATOM      2  C   UNL     1       1.696   4.410  18.723  0.00  0.00    +0.000 C 
ATOM      3  C   UNL     1       2.323   4.573  20.107  0.00  0.00    +0.000 C 
ATOM      4  C   UNL     1       2.650   6.037  20.439  0.00  0.00    +0.000 C 
ATOM      5  C   UNL     1       3.563   6.615  19.345  0.00  0.00    +0.000 C 
ATOM      6  C   UNL     1       2.983   6.454  17.936  0.00  0.00    +0.000 C 
ENDROOT
BRANCH   1   8
ATOM      7  O   UNL     1       3.843   2.936  17.575  0.00  0.00    +0.000 OA
ATOM      8  C   UNL     1       3.785   4.131  17.294  0.00  0.00    +0.000 C 
ATOM      9  N   UNL     1       4.819   4.792  16.678  0.00  0.00    +0.000 N 
ATOM     10  H   UNL     1       4.810   5.801  16.613  0.00  0.00    +0.000 HD
BRANCH   9  11
ATOM     11  C   UNL     1       6.056   4.120  16.330  0.00  0.00    +0.000 C 
BRANCH  11  12
ATOM     12  C   UNL     1       6.397   4.218  14.860  0.00  0.00    +0.000 A 
ATOM     13  C   UNL     1       7.391   5.094  14.428  0.00  0.00    +0.000 A 
ATOM     14  C   UNL     1       7.720   5.130  13.076  0.00  0.00    +0.000 A 
ATOM     15  C   UNL     1       7.046   4.298  12.190  0.00  0.00    +0.000 A 
ATOM     16  C   UNL     1       6.057   3.472  12.696  0.00  0.00    +0.000 A 
ATOM     17  N   UNL     1       5.711   3.417  14.003  0.00  0.00    +0.000 NA
ENDBRANCH  11  12
ENDBRANCH   9  11
ENDBRANCH   1   8
BRANCH   4  18
ATOM     18  C   UNL     1       1.404   6.925  20.614  0.00  0.00    +0.000 C 
BRANCH  18  19
ATOM     19  N   UNL     1       1.710   8.107  21.427  0.00  0.00    +0.000 NA
ATOM     20  H   UNL     1       2.432   8.740  21.085  0.00  0.00    +0.000 HD
BRANCH  19  21
ATOM     21  S   UNL     1       0.396   8.991  22.017  0.00  0.00    +0.000 S 
ATOM     22  O   UNL     1      -0.754   8.120  21.880  0.00  0.00    +0.000 OA
ATOM     23  O   UNL     1       0.763   9.560  23.292  0.00  0.00    +0.000 OA
BRANCH  21  24
ATOM     24  C   UNL     1       0.217  10.310  20.841  0.00  0.00    +0.000 A 
ATOM     25  C   UNL     1       0.971  11.481  20.990  0.00  0.00    +0.000 A 
ATOM     26  C   UNL     1       0.944  12.453  19.985  0.00  0.00    +0.000 A 
ATOM     27  C   UNL     1       0.171  12.244  18.846  0.00  0.00    +0.000 A 
ATOM     28  F   UNL     1       0.171  13.163  17.872  0.00  0.00    +0.000 F 
ATOM     29  C   UNL     1      -0.587  11.087  18.695  0.00  0.00    +0.000 A 
ATOM     30  C   UNL     1      -0.563  10.108  19.692  0.00  0.00    +0.000 A 
ENDBRANCH  21  24
ENDBRANCH  19  21
ENDBRANCH  18  19
ENDBRANCH   4  18
TORSDOF 7
ENDMDL
MODEL 9
REMARK VINA RESULT:      -7.1      3.921      8.749
REMARK  Name = 
REMARK  7 active torsions:
REMARK  status: ('A' for Active; 'I' for Inactive)
REMARK    1  A    between atoms: C_2  and  C_11
REMARK    2  A    between atoms: N_3  and  C_4
REMARK    3  A    between atoms: C_4  and  C_5
REMARK    4  A    between atoms: C_14  and  C_15
REMARK    5  A    between atoms: C_15  and  N_16
REMARK    6  A    between atoms: N_16  and  S_17
REMARK    7  A    between atoms: S_17  and  C_20
REMARK                            x       y       z     vdW  Elec       q    Type
REMARK                         _______ _______ _______ _____ _____    ______ ____
ROOT
ATOM      1  C   UNL     1       1.415   9.783  19.888  0.00  0.00    +0.000 C 
ATOM      2  C   UNL     1       1.883   8.478  20.550  0.00  0.00    +0.000 C 
ATOM      3  C   UNL     1       1.574   7.248  19.699  0.00  0.00    +0.000 C 
ATOM      4  C   UNL     1       2.162   7.346  18.283  0.00  0.00    +0.000 C 
ATOM      5  C   UNL     1       1.651   8.630  17.607  0.00  0.00    +0.000 C 
ATOM      6  C   UNL     1       1.921   9.890  18.438  0.00  0.00    +0.000 C 
ENDROOT
BRANCH   1   8
ATOM      7  O   UNL     1      -0.827   9.257  20.673  0.00  0.00    +0.000 OA
ATOM      8  C   UNL     1      -0.105   9.959  19.969  0.00  0.00    +0.000 C 
ATOM      9  N   UNL     1      -0.604  10.965  19.178  0.00  0.00    +0.000 N 
ATOM     10  H   UNL     1      -0.013  11.411  18.489  0.00  0.00    +0.000 HD
BRANCH   9  11
ATOM     11  C   UNL     1      -2.024  11.255  19.114  0.00  0.00    +0.000 C 
BRANCH  11  12
ATOM     12  C   UNL     1      -2.632  10.969  17.760  0.00  0.00    +0.000 A 
ATOM     13  C   UNL     1      -2.033  10.047  16.903  0.00  0.00    +0.000 A 
ATOM     14  C   UNL     1      -2.639   9.764  15.682  0.00  0.00    +0.000 A 
ATOM     15  C   UNL     1      -3.821  10.413  15.344  0.00  0.00    +0.000 A 
ATOM     16  C   UNL     1      -4.340  11.332  16.241  0.00  0.00    +0.000 A 
ATOM     17  N   UNL     1      -3.773  11.630  17.432  0.00  0.00    +0.000 NA
ENDBRANCH  11  12
ENDBRANCH   9  11
ENDBRANCH   1   8
BRANCH   4  18
ATOM     18  C   UNL     1       3.701   7.304  18.247  0.00  0.00    +0.000 C 
BRANCH  18  19
ATOM     19  N   UNL     1       4.184   6.739  16.983  0.00  0.00    +0.000 NA
ATOM     20  H   UNL     1       4.649   7.371  16.331  0.00  0.00    +0.000 HD
BRANCH  19  21
ATOM     21  S   UNL     1       5.022   5.274  17.070  0.00  0.00    +0.000 S 
ATOM     22  O   UNL     1       5.072   4.772  15.712  0.00  0.00    +0.000 OA
ATOM     23  O   UNL     1       6.224   5.480  17.843  0.00  0.00    +0.000 OA
BRANCH  21  24
ATOM     24  C   UNL     1       3.930   4.222  17.995  0.00  0.00    +0.000 A 
ATOM     25  C   UNL     1       4.280   3.826  19.293  0.00  0.00    +0.000 A 
ATOM     26  C   UNL     1       3.356   3.126  20.074  0.00  0.00    +0.000 A 
ATOM     27  C   UNL     1       2.097   2.835  19.556  0.00  0.00    +0.000 A 
ATOM     28  F   UNL     1       1.204   2.191  20.319  0.00  0.00    +0.000 F 
ATOM     29  C   UNL     1       1.745   3.218  18.265  0.00  0.00    +0.000 A 
ATOM     30  C   UNL     1       2.661   3.921  17.478  0.00  0.00    +0.000 A 
ENDBRANCH  21  24
ENDBRANCH  19  21
ENDBRANCH  18  19
ENDBRANCH   4  18
TORSDOF 7
ENDMDL
