MODEL 1
REMARK VINA RESULT:      -6.2      0.000      0.000
REMARK  Name = 
REMARK  7 active torsions:
REMARK  status: ('A' for Active; 'I' for Inactive)
REMARK    1  A    between atoms: C_1  and  C_2
REMARK    2  A    between atoms: C_2  and  N_3
REMARK    3  A    between atoms: C_4  and  N_5
REMARK    4  A    between atoms: C_6  and  C_8
REMARK    5  A    between atoms: C_8  and  C_9
REMARK    6  A    between atoms: C_8  and  C_10
REMARK    7  A    between atoms: C_11  and  C_12
REMARK                            x       y       z     vdW  Elec       q    Type
REMARK                         _______ _______ _______ _____ _____    ______ ____
ROOT
ATOM      1  N   UNL     1      -5.008  12.200  18.563  0.00  0.00    +0.000 N 
ATOM      2  C   UNL     1      -4.765  12.823  19.810  0.00  0.00    +0.000 A 
ATOM      3  C   UNL     1      -3.549  12.775  20.411  0.00  0.00    +0.000 A 
ATOM      4  C   UNL     1      -2.425  12.060  19.742  0.00  0.00    +0.000 A 
ATOM      5  O   UNL     1      -1.293  12.027  20.214  0.00  0.00    +0.000 OA
ATOM      6  C   UNL     1      -2.711  11.348  18.486  0.00  0.00    +0.000 A 
ATOM      7  C   UNL     1      -1.697  10.555  17.923  0.00  0.00    +0.000 A 
ATOM      8  C   UNL     1      -1.918   9.879  16.730  0.00  0.00    +0.000 A 
ATOM      9  C   UNL     1      -3.141  10.025  16.091  0.00  0.00    +0.000 A 
ATOM     10  C   UNL     1      -4.151  10.807  16.664  0.00  0.00    +0.000 A 
ATOM     11  C   UNL     1      -3.981  11.467  17.900  0.00  0.00    +0.000 A 
ENDROOT
BRANCH   3  12
ATOM     12  C   UNL     1      -3.296  13.255  21.734  0.00  0.00    +0.000 A 
ATOM     13  C   UNL     1      -3.420  12.602  22.949  0.00  0.00    +0.000 A 
ATOM     14  C   UNL     1      -3.277  13.481  24.061  0.00  0.00    +0.000 A 
ATOM     15  C   UNL     1      -3.016  14.774  23.670  0.00  0.00    +0.000 A 
ATOM     16  S   UNL     1      -2.895  14.916  21.973  0.00  0.00    +0.000 S 
ENDBRANCH   3  12
BRANCH   2  17
ATOM     17  N   UNL     1      -5.817  13.419  20.511  0.00  0.00    +0.000 N 
ATOM     18  C   UNL     1      -6.651  12.674  21.341  0.00  0.00    +0.000 C 
ATOM     19  O   UNL     1      -6.596  11.452  21.454  0.00  0.00    +0.000 OA
ATOM     20  H   UNL     1      -5.622  14.345  20.854  0.00  0.00    +0.000 HD
BRANCH  18  21
ATOM     21  C   UNL     1      -7.679  13.489  22.143  0.00  0.00    +0.000 C 
ATOM     22  C   UNL     1      -7.916  12.966  23.558  0.00  0.00    +0.000 C 
ATOM     23  C   UNL     1      -7.309  14.968  22.169  0.00  0.00    +0.000 C 
ENDBRANCH  18  21
ENDBRANCH   2  17
BRANCH   1  25
ATOM     24  C   UNL     1      -6.571  13.426  17.114  0.00  0.00    +0.000 C 
ATOM     25  C   UNL     1      -6.351  12.175  17.957  0.00  0.00    +0.000 C 
ENDBRANCH   1  25
TORSDOF 4
ENDMDL
MODEL 2
REMARK VINA RESULT:      -6.0      8.817     11.614
REMARK  Name = 
REMARK  7 active torsions:
REMARK  status: ('A' for Active; 'I' for Inactive)
REMARK    1  A    between atoms: C_1  and  C_2
REMARK    2  A    between atoms: C_2  and  N_3
REMARK    3  A    between atoms: C_4  and  N_5
REMARK    4  A    between atoms: C_6  and  C_8
REMARK    5  A    between atoms: C_8  and  C_9
REMARK    6  A    between atoms: C_8  and  C_10
REMARK    7  A    between atoms: C_11  and  C_12
REMARK                            x       y       z     vdW  Elec       q    Type
REMARK                         _______ _______ _______ _____ _____    ______ ____
ROOT
ATOM      1  N   UNL     1       5.071   6.122  17.353  0.00  0.00    +0.000 N 
ATOM      2  C   UNL     1       4.163   5.617  18.314  0.00  0.00    +0.000 A 
ATOM      3  C   UNL     1       3.732   4.330  18.286  0.00  0.00    +0.000 A 
ATOM      4  C   UNL     1       4.231   3.409  17.225  0.00  0.00    +0.000 A 
ATOM      5  O   UNL     1       3.915   2.225  17.181  0.00  0.00    +0.000 OA
ATOM      6  C   UNL     1       5.111   3.968  16.186  0.00  0.00    +0.000 A 
ATOM      7  C   UNL     1       5.471   3.146  15.104  0.00  0.00    +0.000 A 
ATOM      8  C   UNL     1       6.313   3.625  14.110  0.00  0.00    +0.000 A 
ATOM      9  C   UNL     1       6.814   4.915  14.217  0.00  0.00    +0.000 A 
ATOM     10  C   UNL     1       6.440   5.733  15.291  0.00  0.00    +0.000 A 
ATOM     11  C   UNL     1       5.548   5.297  16.293  0.00  0.00    +0.000 A 
ENDROOT
BRANCH   3  12
ATOM     12  C   UNL     1       2.704   3.817  19.137  0.00  0.00    +0.000 A 
ATOM     13  C   UNL     1       1.328   3.905  19.011  0.00  0.00    +0.000 A 
ATOM     14  C   UNL     1       0.641   3.449  20.174  0.00  0.00    +0.000 A 
ATOM     15  C   UNL     1       1.506   2.996  21.142  0.00  0.00    +0.000 A 
ATOM     16  S   UNL     1       3.134   3.074  20.634  0.00  0.00    +0.000 S 
ENDBRANCH   3  12
BRANCH   2  17
ATOM     17  N   UNL     1       3.601   6.474  19.263  0.00  0.00    +0.000 N 
ATOM     18  C   UNL     1       2.508   7.280  18.957  0.00  0.00    +0.000 C 
ATOM     19  O   UNL     1       2.016   7.375  17.835  0.00  0.00    +0.000 OA
ATOM     20  H   UNL     1       3.590   6.111  20.203  0.00  0.00    +0.000 HD
BRANCH  18  21
ATOM     21  C   UNL     1       1.921   8.071  20.138  0.00  0.00    +0.000 C 
ATOM     22  C   UNL     1       1.037   9.243  19.720  0.00  0.00    +0.000 C 
ATOM     23  C   UNL     1       1.179   7.150  21.101  0.00  0.00    +0.000 C 
ENDBRANCH  18  21
ENDBRANCH   2  17
BRANCH   1  25
ATOM     24  C   UNL     1       6.947   7.681  17.666  0.00  0.00    +0.000 C 
ATOM     25  C   UNL     1       5.467   7.542  17.332  0.00  0.00    +0.000 C 
ENDBRANCH   1  25
TORSDOF 4
ENDMDL
MODEL 3
REMARK VINA RESULT:      -5.8      2.565      5.734
REMARK  Name = 
REMARK  7 active torsions:
REMARK  status: ('A' for Active; 'I' for Inactive)
REMARK    1  A    between atoms: C_1  and  C_2
REMARK    2  A    between atoms: C_2  and  N_3
REMARK    3  A    between atoms: C_4  and  N_5
REMARK    4  A    between atoms: C_6  and  C_8
REMARK    5  A    between atoms: C_8  and  C_9
REMARK    6  A    between atoms: C_8  and  C_10
REMARK    7  A    between atoms: C_11  and  C_12
REMARK                            x       y       z     vdW  Elec       q    Type
REMARK                         _______ _______ _______ _____ _____    ______ ____
ROOT
ATOM      1  N   UNL     1      -3.191  11.001  18.085  0.00  0.00    +0.000 N 
ATOM      2  C   UNL     1      -2.051  11.610  18.662  0.00  0.00    +0.000 A 
ATOM      3  C   UNL     1      -2.155  12.549  19.636  0.00  0.00    +0.000 A 
ATOM      4  C   UNL     1      -3.503  12.951  20.131  0.00  0.00    +0.000 A 
ATOM      5  O   UNL     1      -3.655  13.756  21.043  0.00  0.00    +0.000 OA
ATOM      6  C   UNL     1      -4.681  12.370  19.468  0.00  0.00    +0.000 A 
ATOM      7  C   UNL     1      -5.953  12.847  19.830  0.00  0.00    +0.000 A 
ATOM      8  C   UNL     1      -7.094  12.316  19.243  0.00  0.00    +0.000 A 
ATOM      9  C   UNL     1      -6.959  11.290  18.318  0.00  0.00    +0.000 A 
ATOM     10  C   UNL     1      -5.687  10.828  17.953  0.00  0.00    +0.000 A 
ATOM     11  C   UNL     1      -4.504  11.378  18.491  0.00  0.00    +0.000 A 
ENDROOT
BRANCH   3  12
ATOM     12  C   UNL     1      -1.047  13.300  20.139  0.00  0.00    +0.000 A 
ATOM     13  C   UNL     1      -0.401  14.396  19.591  0.00  0.00    +0.000 A 
ATOM     14  C   UNL     1       0.794  14.733  20.290  0.00  0.00    +0.000 A 
ATOM     15  C   UNL     1       1.014  13.909  21.370  0.00  0.00    +0.000 A 
ATOM     16  S   UNL     1      -0.239  12.767  21.568  0.00  0.00    +0.000 S 
ENDBRANCH   3  12
BRANCH   2  17
ATOM     17  N   UNL     1      -0.778  11.331  18.156  0.00  0.00    +0.000 N 
ATOM     18  C   UNL     1       0.004  10.308  18.685  0.00  0.00    +0.000 C 
ATOM     19  O   UNL     1      -0.306   9.645  19.672  0.00  0.00    +0.000 OA
ATOM     20  H   UNL     1      -0.690  11.438  17.159  0.00  0.00    +0.000 HD
BRANCH  18  21
ATOM     21  C   UNL     1       1.323  10.037  17.943  0.00  0.00    +0.000 C 
ATOM     22  C   UNL     1       2.338  11.172  18.048  0.00  0.00    +0.000 C 
ATOM     23  C   UNL     1       1.942   8.716  18.387  0.00  0.00    +0.000 C 
ENDBRANCH  18  21
ENDBRANCH   2  17
BRANCH   1  25
ATOM     24  C   UNL     1      -2.973  10.803  15.644  0.00  0.00    +0.000 C 
ATOM     25  C   UNL     1      -3.079  10.050  16.965  0.00  0.00    +0.000 C 
ENDBRANCH   1  25
TORSDOF 4
ENDMDL
MODEL 4
REMARK VINA RESULT:      -5.7      8.426     11.919
REMARK  Name = 
REMARK  7 active torsions:
REMARK  status: ('A' for Active; 'I' for Inactive)
REMARK    1  A    between atoms: C_1  and  C_2
REMARK    2  A    between atoms: C_2  and  N_3
REMARK    3  A    between atoms: C_4  and  N_5
REMARK    4  A    between atoms: C_6  and  C_8
REMARK    5  A    between atoms: C_8  and  C_9
REMARK    6  A    between atoms: C_8  and  C_10
REMARK    7  A    between atoms: C_11  and  C_12
REMARK                            x       y       z     vdW  Elec       q    Type
REMARK                         _______ _______ _______ _____ _____    ______ ____
ROOT
ATOM      1  N   UNL     1       2.597   6.225  19.833  0.00  0.00    +0.000 N 
ATOM      2  C   UNL     1       3.548   5.529  19.049  0.00  0.00    +0.000 A 
ATOM      3  C   UNL     1       4.086   6.071  17.927  0.00  0.00    +0.000 A 
ATOM      4  C   UNL     1       3.682   7.442  17.504  0.00  0.00    +0.000 A 
ATOM      5  O   UNL     1       4.172   8.000  16.528  0.00  0.00    +0.000 OA
ATOM      6  C   UNL     1       2.633   8.121  18.281  0.00  0.00    +0.000 A 
ATOM      7  C   UNL     1       2.144   9.352  17.809  0.00  0.00    +0.000 A 
ATOM      8  C   UNL     1       1.167  10.036  18.520  0.00  0.00    +0.000 A 
ATOM      9  C   UNL     1       0.705   9.502  19.714  0.00  0.00    +0.000 A 
ATOM     10  C   UNL     1       1.187   8.269  20.172  0.00  0.00    +0.000 A 
ATOM     11  C   UNL     1       2.143   7.521  19.452  0.00  0.00    +0.000 A 
ENDROOT
BRANCH   3  12
ATOM     12  C   UNL     1       4.930   5.353  17.024  0.00  0.00    +0.000 A 
ATOM     13  C   UNL     1       4.593   4.458  16.023  0.00  0.00    +0.000 A 
ATOM     14  C   UNL     1       5.728   3.791  15.478  0.00  0.00    +0.000 A 
ATOM     15  C   UNL     1       6.904   4.216  16.052  0.00  0.00    +0.000 A 
ATOM     16  S   UNL     1       6.643   5.446  17.206  0.00  0.00    +0.000 S 
ENDBRANCH   3  12
BRANCH   2  17
ATOM     17  N   UNL     1       3.878   4.207  19.361  0.00  0.00    +0.000 N 
ATOM     18  C   UNL     1       3.140   3.138  18.862  0.00  0.00    +0.000 C 
ATOM     19  O   UNL     1       2.110   3.261  18.203  0.00  0.00    +0.000 OA
ATOM     20  H   UNL     1       4.867   4.026  19.426  0.00  0.00    +0.000 HD
BRANCH  18  21
ATOM     21  C   UNL     1       3.700   1.743  19.185  0.00  0.00    +0.000 C 
ATOM     22  C   UNL     1       4.229   0.990  17.967  0.00  0.00    +0.000 C 
ATOM     23  C   UNL     1       4.763   1.818  20.277  0.00  0.00    +0.000 C 
ENDBRANCH  18  21
ENDBRANCH   2  17
BRANCH   1  25
ATOM     24  C   UNL     1       0.755   4.762  20.550  0.00  0.00    +0.000 C 
ATOM     25  C   UNL     1       1.946   5.600  20.999  0.00  0.00    +0.000 C 
ENDBRANCH   1  25
TORSDOF 4
ENDMDL
MODEL 5
REMARK VINA RESULT:      -5.7      1.935      4.017
REMARK  Name = 
REMARK  7 active torsions:
REMARK  status: ('A' for Active; 'I' for Inactive)
REMARK    1  A    between atoms: C_1  and  C_2
REMARK    2  A    between atoms: C_2  and  N_3
REMARK    3  A    between atoms: C_4  and  N_5
REMARK    4  A    between atoms: C_6  and  C_8
REMARK    5  A    between atoms: C_8  and  C_9
REMARK    6  A    between atoms: C_8  and  C_10
REMARK    7  A    between atoms: C_11  and  C_12
REMARK                            x       y       z     vdW  Elec       q    Type
REMARK                         _______ _______ _______ _____ _____    ______ ____
ROOT
ATOM      1  N   UNL     1      -2.359  12.138  20.115  0.00  0.00    +0.000 N 
ATOM      2  C   UNL     1      -3.439  12.873  20.658  0.00  0.00    +0.000 A 
ATOM      3  C   UNL     1      -4.670  12.867  20.086  0.00  0.00    +0.000 A 
ATOM      4  C   UNL     1      -4.907  12.057  18.857  0.00  0.00    +0.000 A 
ATOM      5  O   UNL     1      -6.010  11.974  18.328  0.00  0.00    +0.000 OA
ATOM      6  C   UNL     1      -3.756  11.362  18.258  0.00  0.00    +0.000 A 
ATOM      7  C   UNL     1      -3.938  10.714  17.024  0.00  0.00    +0.000 A 
ATOM      8  C   UNL     1      -2.884  10.032  16.430  0.00  0.00    +0.000 A 
ATOM      9  C   UNL     1      -1.663   9.976  17.086  0.00  0.00    +0.000 A 
ATOM     10  C   UNL     1      -1.486  10.635  18.310  0.00  0.00    +0.000 A 
ATOM     11  C   UNL     1      -2.518  11.380  18.919  0.00  0.00    +0.000 A 
ENDROOT
BRANCH   3  12
ATOM     12  C   UNL     1      -5.746  13.709  20.507  0.00  0.00    +0.000 A 
ATOM     13  C   UNL     1      -5.990  15.041  20.218  0.00  0.00    +0.000 A 
ATOM     14  C   UNL     1      -7.053  15.585  20.996  0.00  0.00    +0.000 A 
ATOM     15  C   UNL     1      -7.615  14.648  21.832  0.00  0.00    +0.000 A 
ATOM     16  S   UNL     1      -6.896  13.111  21.646  0.00  0.00    +0.000 S 
ENDBRANCH   3  12
BRANCH   2  17
ATOM     17  N   UNL     1      -3.230  13.718  21.751  0.00  0.00    +0.000 N 
ATOM     18  C   UNL     1      -3.373  13.264  23.059  0.00  0.00    +0.000 C 
ATOM     19  O   UNL     1      -3.775  12.142  23.357  0.00  0.00    +0.000 OA
ATOM     20  H   UNL     1      -2.484  14.384  21.630  0.00  0.00    +0.000 HD
BRANCH  18  21
ATOM     21  C   UNL     1      -2.985  14.272  24.153  0.00  0.00    +0.000 C 
ATOM     22  C   UNL     1      -1.501  14.625  24.172  0.00  0.00    +0.000 C 
ATOM     23  C   UNL     1      -3.840  15.532  24.067  0.00  0.00    +0.000 C 
ENDBRANCH  18  21
ENDBRANCH   2  17
BRANCH   1  25
ATOM     24  C   UNL     1      -0.797  11.113  21.714  0.00  0.00    +0.000 C 
ATOM     25  C   UNL     1      -1.001  12.218  20.685  0.00  0.00    +0.000 C 
ENDBRANCH   1  25
TORSDOF 4
ENDMDL
MODEL 6
REMARK VINA RESULT:      -5.6      1.300      1.589
REMARK  Name = 
REMARK  7 active torsions:
REMARK  status: ('A' for Active; 'I' for Inactive)
REMARK    1  A    between atoms: C_1  and  C_2
REMARK    2  A    between atoms: C_2  and  N_3
REMARK    3  A    between atoms: C_4  and  N_5
REMARK    4  A    between atoms: C_6  and  C_8
REMARK    5  A    between atoms: C_8  and  C_9
REMARK    6  A    between atoms: C_8  and  C_10
REMARK    7  A    between atoms: C_11  and  C_12
REMARK                            x       y       z     vdW  Elec       q    Type
REMARK                         _______ _______ _______ _____ _____    ______ ____
ROOT
ATOM      1  N   UNL     1      -4.745  12.417  19.270  0.00  0.00    +0.000 N 
ATOM      2  C   UNL     1      -4.313  13.246  20.332  0.00  0.00    +0.000 A 
ATOM      3  C   UNL     1      -3.004  13.345  20.677  0.00  0.00    +0.000 A 
ATOM      4  C   UNL     1      -1.981  12.573  19.915  0.00  0.00    +0.000 A 
ATOM      5  O   UNL     1      -0.781  12.663  20.150  0.00  0.00    +0.000 OA
ATOM      6  C   UNL     1      -2.452  11.654  18.867  0.00  0.00    +0.000 A 
ATOM      7  C   UNL     1      -1.511  10.818  18.241  0.00  0.00    +0.000 A 
ATOM      8  C   UNL     1      -1.907   9.947  17.235  0.00  0.00    +0.000 A 
ATOM      9  C   UNL     1      -3.237   9.938  16.838  0.00  0.00    +0.000 A 
ATOM     10  C   UNL     1      -4.172  10.765  17.475  0.00  0.00    +0.000 A 
ATOM     11  C   UNL     1      -3.815  11.626  18.535  0.00  0.00    +0.000 A 
ENDROOT
BRANCH   3  12
ATOM     12  C   UNL     1      -2.537  14.046  21.833  0.00  0.00    +0.000 A 
ATOM     13  C   UNL     1      -2.244  15.390  21.991  0.00  0.00    +0.000 A 
ATOM     14  C   UNL     1      -1.604  15.669  23.234  0.00  0.00    +0.000 A 
ATOM     15  C   UNL     1      -1.454  14.539  24.004  0.00  0.00    +0.000 A 
ATOM     16  S   UNL     1      -2.126  13.160  23.255  0.00  0.00    +0.000 S 
ENDBRANCH   3  12
BRANCH   2  17
ATOM     17  N   UNL     1      -5.251  13.908  21.129  0.00  0.00    +0.000 N 
ATOM     18  C   UNL     1      -5.762  13.326  22.285  0.00  0.00    +0.000 C 
ATOM     19  O   UNL     1      -5.513  12.178  22.644  0.00  0.00    +0.000 OA
ATOM     20  H   UNL     1      -5.113  14.904  21.200  0.00  0.00    +0.000 HD
BRANCH  18  21
ATOM     21  C   UNL     1      -6.685  14.226  23.124  0.00  0.00    +0.000 C 
ATOM     22  C   UNL     1      -7.503  13.472  24.168  0.00  0.00    +0.000 C 
ATOM     23  C   UNL     1      -5.902  15.364  23.770  0.00  0.00    +0.000 C 
ENDBRANCH  18  21
ENDBRANCH   2  17
BRANCH   1  25
ATOM     24  C   UNL     1      -6.714  10.993  19.644  0.00  0.00    +0.000 C 
ATOM     25  C   UNL     1      -6.175  12.241  18.956  0.00  0.00    +0.000 C 
ENDBRANCH   1  25
TORSDOF 4
ENDMDL
MODEL 7
REMARK VINA RESULT:      -5.6      0.755      1.091
REMARK  Name = 
REMARK  7 active torsions:
REMARK  status: ('A' for Active; 'I' for Inactive)
REMARK    1  A    between atoms: C_1  and  C_2
REMARK    2  A    between atoms: C_2  and  N_3
REMARK    3  A    between atoms: C_4  and  N_5
REMARK    4  A    between atoms: C_6  and  C_8
REMARK    5  A    between atoms: C_8  and  C_9
REMARK    6  A    between atoms: C_8  and  C_10
REMARK    7  A    between atoms: C_11  and  C_12
REMARK                            x       y       z     vdW  Elec       q    Type
REMARK                         _______ _______ _______ _____ _____    ______ ____
ROOT
ATOM      1  N   UNL     1      -4.740  12.391  18.556  0.00  0.00    +0.000 N 
ATOM      2  C   UNL     1      -4.275  12.889  19.797  0.00  0.00    +0.000 A 
ATOM      3  C   UNL     1      -3.022  12.631  20.249  0.00  0.00    +0.000 A 
ATOM      4  C   UNL     1      -2.093  11.811  19.419  0.00  0.00    +0.000 A 
ATOM      5  O   UNL     1      -0.935  11.589  19.754  0.00  0.00    +0.000 OA
ATOM      6  C   UNL     1      -2.615  11.233  18.170  0.00  0.00    +0.000 A 
ATOM      7  C   UNL     1      -1.795  10.344  17.453  0.00  0.00    +0.000 A 
ATOM      8  C   UNL     1      -2.239   9.788  16.261  0.00  0.00    +0.000 A 
ATOM      9  C   UNL     1      -3.489  10.146  15.776  0.00  0.00    +0.000 A 
ATOM     10  C   UNL     1      -4.306  11.022  16.503  0.00  0.00    +0.000 A 
ATOM     11  C   UNL     1      -3.909  11.568  17.742  0.00  0.00    +0.000 A 
ENDROOT
BRANCH   3  12
ATOM     12  C   UNL     1      -2.561  12.981  21.557  0.00  0.00    +0.000 A 
ATOM     13  C   UNL     1      -2.695  12.296  22.752  0.00  0.00    +0.000 A 
ATOM     14  C   UNL     1      -2.284  13.070  23.876  0.00  0.00    +0.000 A 
ATOM     15  C   UNL     1      -1.816  14.310  23.508  0.00  0.00    +0.000 A 
ATOM     16  S   UNL     1      -1.828  14.521  21.814  0.00  0.00    +0.000 S 
ENDBRANCH   3  12
BRANCH   2  17
ATOM     17  N   UNL     1      -5.147  13.578  20.644  0.00  0.00    +0.000 N 
ATOM     18  C   UNL     1      -5.972  12.904  21.542  0.00  0.00    +0.000 C 
ATOM     19  O   UNL     1      -6.071  11.681  21.599  0.00  0.00    +0.000 OA
ATOM     20  H   UNL     1      -4.788  14.451  20.996  0.00  0.00    +0.000 HD
BRANCH  18  21
ATOM     21  C   UNL     1      -6.778  13.801  22.495  0.00  0.00    +0.000 C 
ATOM     22  C   UNL     1      -7.911  14.566  21.816  0.00  0.00    +0.000 C 
ATOM     23  C   UNL     1      -7.302  13.005  23.686  0.00  0.00    +0.000 C 
ENDBRANCH  18  21
ENDBRANCH   2  17
BRANCH   1  25
ATOM     24  C   UNL     1      -6.955  11.341  18.368  0.00  0.00    +0.000 C 
ATOM     25  C   UNL     1      -6.130  12.595  18.110  0.00  0.00    +0.000 C 
ENDBRANCH   1  25
TORSDOF 4
ENDMDL
MODEL 8
REMARK VINA RESULT:      -5.6      2.282      6.423
REMARK  Name = 
REMARK  7 active torsions:
REMARK  status: ('A' for Active; 'I' for Inactive)
REMARK    1  A    between atoms: C_1  and  C_2
REMARK    2  A    between atoms: C_2  and  N_3
REMARK    3  A    between atoms: C_4  and  N_5
REMARK    4  A    between atoms: C_6  and  C_8
REMARK    5  A    between atoms: C_8  and  C_9
REMARK    6  A    between atoms: C_8  and  C_10
REMARK    7  A    between atoms: C_11  and  C_12
REMARK                            x       y       z     vdW  Elec       q    Type
REMARK                         _______ _______ _______ _____ _____    ______ ____
ROOT
ATOM      1  N   UNL     1      -4.079  12.998  20.732  0.00  0.00    +0.000 N 
ATOM      2  C   UNL     1      -3.567  12.566  19.485  0.00  0.00    +0.000 A 
ATOM      3  C   UNL     1      -4.293  11.787  18.644  0.00  0.00    +0.000 A 
ATOM      4  C   UNL     1      -5.675  11.378  19.026  0.00  0.00    +0.000 A 
ATOM      5  O   UNL     1      -6.394  10.718  18.284  0.00  0.00    +0.000 OA
ATOM      6  C   UNL     1      -6.165  11.767  20.358  0.00  0.00    +0.000 A 
ATOM      7  C   UNL     1      -7.408  11.268  20.784  0.00  0.00    +0.000 A 
ATOM      8  C   UNL     1      -7.916  11.622  22.026  0.00  0.00    +0.000 A 
ATOM      9  C   UNL     1      -7.194  12.497  22.825  0.00  0.00    +0.000 A 
ATOM     10  C   UNL     1      -5.949  12.980  22.399  0.00  0.00    +0.000 A 
ATOM     11  C   UNL     1      -5.378  12.603  21.166  0.00  0.00    +0.000 A 
ENDROOT
BRANCH   3  12
ATOM     12  C   UNL     1      -3.767  11.201  17.450  0.00  0.00    +0.000 A 
ATOM     13  C   UNL     1      -3.905  11.607  16.133  0.00  0.00    +0.000 A 
ATOM     14  C   UNL     1      -3.409  10.643  15.208  0.00  0.00    +0.000 A 
ATOM     15  C   UNL     1      -2.875   9.544  15.841  0.00  0.00    +0.000 A 
ATOM     16  S   UNL     1      -2.929   9.696  17.540  0.00  0.00    +0.000 S 
ENDBRANCH   3  12
BRANCH   2  17
ATOM     17  N   UNL     1      -2.243  12.848  19.137  0.00  0.00    +0.000 N 
ATOM     18  C   UNL     1      -1.186  12.086  19.626  0.00  0.00    +0.000 C 
ATOM     19  O   UNL     1      -1.311  11.187  20.453  0.00  0.00    +0.000 OA
ATOM     20  H   UNL     1      -2.117  13.161  18.188  0.00  0.00    +0.000 HD
BRANCH  18  21
ATOM     21  C   UNL     1       0.198  12.435  19.053  0.00  0.00    +0.000 C 
ATOM     22  C   UNL     1       0.977  13.446  19.890  0.00  0.00    +0.000 C 
ATOM     23  C   UNL     1       1.027  11.178  18.813  0.00  0.00    +0.000 C 
ENDBRANCH  18  21
ENDBRANCH   2  17
BRANCH   1  25
ATOM     24  C   UNL     1      -3.333  15.255  21.362  0.00  0.00    +0.000 C 
ATOM     25  C   UNL     1      -3.256  13.767  21.683  0.00  0.00    +0.000 C 
ENDBRANCH   1  25
TORSDOF 4
ENDMDL
MODEL 9
REMARK VINA RESULT:      -5.6      2.283      5.801
REMARK  Name = 
REMARK  7 active torsions:
REMARK  status: ('A' for Active; 'I' for Inactive)
REMARK    1  A    between atoms: C_1  and  C_2
REMARK    2  A    between atoms: C_2  and  N_3
REMARK    3  A    between atoms: C_4  and  N_5
REMARK    4  A    between atoms: C_6  and  C_8
REMARK    5  A    between atoms: C_8  and  C_9
REMARK    6  A    between atoms: C_8  and  C_10
REMARK    7  A    between atoms: C_11  and  C_12
REMARK                            x       y       z     vdW  Elec       q    Type
REMARK                         _______ _______ _______ _____ _____    ______ ____
ROOT
ATOM      1  N   UNL     1      -3.862  12.497  20.209  0.00  0.00    +0.000 N 
ATOM      2  C   UNL     1      -2.673  12.222  19.493  0.00  0.00    +0.000 A 
ATOM      3  C   UNL     1      -1.466  12.146  20.108  0.00  0.00    +0.000 A 
ATOM      4  C   UNL     1      -1.378  12.343  21.584  0.00  0.00    +0.000 A 
ATOM      5  O   UNL     1      -0.323  12.236  22.199  0.00  0.00    +0.000 OA
ATOM      6  C   UNL     1      -2.608  12.708  22.304  0.00  0.00    +0.000 A 
ATOM      7  C   UNL     1      -2.510  13.034  23.668  0.00  0.00    +0.000 A 
ATOM      8  C   UNL     1      -3.647  13.368  24.392  0.00  0.00    +0.000 A 
ATOM      9  C   UNL     1      -4.880  13.344  23.756  0.00  0.00    +0.000 A 
ATOM     10  C   UNL     1      -4.969  13.030  22.393  0.00  0.00    +0.000 A 
ATOM     11  C   UNL     1      -3.830  12.735  21.614  0.00  0.00    +0.000 A 
ENDROOT
BRANCH   3  12
ATOM     12  C   UNL     1      -0.224  12.023  19.411  0.00  0.00    +0.000 A 
ATOM     13  C   UNL     1       0.507  10.888  19.103  0.00  0.00    +0.000 A 
ATOM     14  C   UNL     1       1.799  11.192  18.583  0.00  0.00    +0.000 A 
ATOM     15  C   UNL     1       2.008  12.547  18.475  0.00  0.00    +0.000 A 
ATOM     16  S   UNL     1       0.638  13.446  18.953  0.00  0.00    +0.000 S 
ENDBRANCH   3  12
BRANCH   2  17
ATOM     17  N   UNL     1      -2.703  12.127  18.099  0.00  0.00    +0.000 N 
ATOM     18  C   UNL     1      -2.780  10.895  17.456  0.00  0.00    +0.000 C 
ATOM     19  O   UNL     1      -2.735   9.813  18.035  0.00  0.00    +0.000 OA
ATOM     20  H   UNL     1      -3.219  12.860  17.639  0.00  0.00    +0.000 HD
BRANCH  18  21
ATOM     21  C   UNL     1      -2.935  10.958  15.927  0.00  0.00    +0.000 C 
ATOM     22  C   UNL     1      -2.569   9.660  15.213  0.00  0.00    +0.000 C 
ATOM     23  C   UNL     1      -4.337  11.413  15.536  0.00  0.00    +0.000 C 
ENDBRANCH  18  21
ENDBRANCH   2  17
BRANCH   1  25
ATOM     24  C   UNL     1      -5.870  11.328  19.405  0.00  0.00    +0.000 C 
ATOM     25  C   UNL     1      -5.157  12.669  19.527  0.00  0.00    +0.000 C 
ENDBRANCH   1  25
TORSDOF 4
ENDMDL
