MODEL 1
REMARK VINA RESULT:      -7.6      0.000      0.000
REMARK  Name = 
REMARK  7 active torsions:
REMARK  status: ('A' for Active; 'I' for Inactive)
REMARK    1  A    between atoms: C_1  and  C_2
REMARK    2  A    between atoms: C_2  and  O_3
REMARK    3  A    between atoms: C_2  and  C_4
REMARK    4  A    between atoms: C_2  and  C_15
REMARK    5  A    between atoms: C_4  and  N_5
REMARK    6  A    between atoms: N_5  and  S_6
REMARK    7  A    between atoms: S_6  and  C_9
REMARK                            x       y       z     vdW  Elec       q    Type
REMARK                         _______ _______ _______ _____ _____    ______ ____
ROOT
ATOM      1  C   UNL     1       5.083   5.313  18.174  0.00  0.00    +0.000 C 
ENDROOT
BRANCH   1   3
ATOM      2  C   UNL     1       4.247   3.112  17.137  0.00  0.00    +0.000 C 
ATOM      3  C   UNL     1       4.527   3.884  18.438  0.00  0.00    +0.000 C 
BRANCH   3   4
ATOM      4  C   UNL     1       3.245   3.954  19.270  0.00  0.00    +0.000 A 
ATOM      5  C   UNL     1       2.434   2.827  19.474  0.00  0.00    +0.000 A 
ATOM      6  C   UNL     1       1.231   2.924  20.182  0.00  0.00    +0.000 A 
ATOM      7  C   UNL     1       0.820   4.150  20.700  0.00  0.00    +0.000 A 
ATOM      8  C   UNL     1       1.619   5.275  20.529  0.00  0.00    +0.000 A 
ATOM      9  C   UNL     1       2.823   5.178  19.828  0.00  0.00    +0.000 A 
ENDBRANCH   3   4
BRANCH   3  10
ATOM     10  O   UNL     1       5.541   3.139  19.135  0.00  0.00    +0.000 OA
ATOM     11  H   UNL     1       5.713   3.628  19.962  0.00  0.00    +0.000 HD
ENDBRANCH   3  10
ENDBRANCH   1   3
BRANCH   1  12
ATOM     12  N   UNL     1       5.394   5.510  16.732  0.00  0.00    +0.000 NA
ATOM     13  H   UNL     1       5.017   6.349  16.286  0.00  0.00    +0.000 HD
BRANCH  12  14
ATOM     14  S   UNL     1       7.022   5.375  16.292  0.00  0.00    +0.000 S 
ATOM     15  O   UNL     1       7.550   6.723  16.341  0.00  0.00    +0.000 OA
ATOM     16  O   UNL     1       7.607   4.305  17.068  0.00  0.00    +0.000 OA
BRANCH  14  17
ATOM     17  C   UNL     1       6.943   4.895  14.591  0.00  0.00    +0.000 A 
ATOM     18  C   UNL     1       7.824   5.480  13.675  0.00  0.00    +0.000 A 
ATOM     19  C   UNL     1       7.802   5.066  12.343  0.00  0.00    +0.000 A 
ATOM     20  C   UNL     1       6.913   4.070  11.935  0.00  0.00    +0.000 A 
ATOM     21  C   UNL     1       6.041   3.484  12.855  0.00  0.00    +0.000 A 
ATOM     22  C   UNL     1       6.053   3.895  14.189  0.00  0.00    +0.000 A 
ENDBRANCH  14  17
ENDBRANCH  12  14
ENDBRANCH   1  12
TORSDOF 6
ENDMDL
MODEL 2
REMARK VINA RESULT:      -7.5      0.945      1.015
REMARK  Name = 
REMARK  7 active torsions:
REMARK  status: ('A' for Active; 'I' for Inactive)
REMARK    1  A    between atoms: C_1  and  C_2
REMARK    2  A    between atoms: C_2  and  O_3
REMARK    3  A    between atoms: C_2  and  C_4
REMARK    4  A    between atoms: C_2  and  C_15
REMARK    5  A    between atoms: C_4  and  N_5
REMARK    6  A    between atoms: N_5  and  S_6
REMARK    7  A    between atoms: S_6  and  C_9
REMARK                            x       y       z     vdW  Elec       q    Type
REMARK                         _______ _______ _______ _____ _____    ______ ____
ROOT
ATOM      1  C   UNL     1       5.126   4.573  18.193  0.00  0.00    +0.000 C 
ENDROOT
BRANCH   1   3
ATOM      2  C   UNL     1       3.068   4.015  16.754  0.00  0.00    +0.000 C 
ATOM      3  C   UNL     1       3.943   3.593  17.947  0.00  0.00    +0.000 C 
BRANCH   3   4
ATOM      4  C   UNL     1       3.070   3.483  19.199  0.00  0.00    +0.000 A 
ATOM      5  C   UNL     1       3.488   2.761  20.329  0.00  0.00    +0.000 A 
ATOM      6  C   UNL     1       2.650   2.616  21.440  0.00  0.00    +0.000 A 
ATOM      7  C   UNL     1       1.382   3.192  21.441  0.00  0.00    +0.000 A 
ATOM      8  C   UNL     1       0.957   3.931  20.342  0.00  0.00    +0.000 A 
ATOM      9  C   UNL     1       1.795   4.081  19.236  0.00  0.00    +0.000 A 
ENDBRANCH   3   4
BRANCH   3  10
ATOM     10  O   UNL     1       4.496   2.311  17.603  0.00  0.00    +0.000 OA
ATOM     11  H   UNL     1       4.494   2.270  16.628  0.00  0.00    +0.000 HD
ENDBRANCH   3  10
ENDBRANCH   1   3
BRANCH   1  12
ATOM     12  N   UNL     1       5.423   5.373  16.974  0.00  0.00    +0.000 NA
ATOM     13  H   UNL     1       5.108   6.346  16.969  0.00  0.00    +0.000 HD
BRANCH  12  14
ATOM     14  S   UNL     1       7.026   5.344  16.431  0.00  0.00    +0.000 S 
ATOM     15  O   UNL     1       7.464   6.724  16.442  0.00  0.00    +0.000 OA
ATOM     16  O   UNL     1       7.729   4.321  17.172  0.00  0.00    +0.000 OA
BRANCH  14  17
ATOM     17  C   UNL     1       6.870   4.846  14.740  0.00  0.00    +0.000 A 
ATOM     18  C   UNL     1       7.744   5.381  13.789  0.00  0.00    +0.000 A 
ATOM     19  C   UNL     1       7.661   4.952  12.464  0.00  0.00    +0.000 A 
ATOM     20  C   UNL     1       6.717   3.989  12.099  0.00  0.00    +0.000 A 
ATOM     21  C   UNL     1       5.853   3.452  13.055  0.00  0.00    +0.000 A 
ATOM     22  C   UNL     1       5.926   3.879  14.381  0.00  0.00    +0.000 A 
ENDBRANCH  14  17
ENDBRANCH  12  14
ENDBRANCH   1  12
TORSDOF 6
ENDMDL
MODEL 3
REMARK VINA RESULT:      -7.4      0.734      1.518
REMARK  Name = 
REMARK  7 active torsions:
REMARK  status: ('A' for Active; 'I' for Inactive)
REMARK    1  A    between atoms: C_1  and  C_2
REMARK    2  A    between atoms: C_2  and  O_3
REMARK    3  A    between atoms: C_2  and  C_4
REMARK    4  A    between atoms: C_2  and  C_15
REMARK    5  A    between atoms: C_4  and  N_5
REMARK    6  A    between atoms: N_5  and  S_6
REMARK    7  A    between atoms: S_6  and  C_9
REMARK                            x       y       z     vdW  Elec       q    Type
REMARK                         _______ _______ _______ _____ _____    ______ ____
ROOT
ATOM      1  C   UNL     1       4.602   5.132  18.155  0.00  0.00    +0.000 C 
ENDROOT
BRANCH   1   3
ATOM      2  C   UNL     1       4.108   2.774  17.253  0.00  0.00    +0.000 C 
ATOM      3  C   UNL     1       4.378   3.631  18.502  0.00  0.00    +0.000 C 
BRANCH   3   4
ATOM      4  C   UNL     1       3.214   3.478  19.483  0.00  0.00    +0.000 A 
ATOM      5  C   UNL     1       1.991   4.140  19.288  0.00  0.00    +0.000 A 
ATOM      6  C   UNL     1       0.961   4.041  20.229  0.00  0.00    +0.000 A 
ATOM      7  C   UNL     1       1.135   3.277  21.380  0.00  0.00    +0.000 A 
ATOM      8  C   UNL     1       2.329   2.594  21.582  0.00  0.00    +0.000 A 
ATOM      9  C   UNL     1       3.356   2.687  20.641  0.00  0.00    +0.000 A 
ENDBRANCH   3   4
BRANCH   3  10
ATOM     10  O   UNL     1       5.595   3.126  19.078  0.00  0.00    +0.000 OA
ATOM     11  H   UNL     1       6.134   3.909  19.298  0.00  0.00    +0.000 HD
ENDBRANCH   3  10
ENDBRANCH   1   3
BRANCH   1  12
ATOM     12  N   UNL     1       4.967   5.303  16.723  0.00  0.00    +0.000 NA
ATOM     13  H   UNL     1       4.470   6.027  16.200  0.00  0.00    +0.000 HD
BRANCH  12  14
ATOM     14  S   UNL     1       6.618   5.461  16.385  0.00  0.00    +0.000 S 
ATOM     15  O   UNL     1       6.878   6.886  16.379  0.00  0.00    +0.000 OA
ATOM     16  O   UNL     1       7.340   4.563  17.258  0.00  0.00    +0.000 OA
BRANCH  14  17
ATOM     17  C   UNL     1       6.745   4.889  14.715  0.00  0.00    +0.000 A 
ATOM     18  C   UNL     1       5.828   3.942  14.247  0.00  0.00    +0.000 A 
ATOM     19  C   UNL     1       5.890   3.527  12.916  0.00  0.00    +0.000 A 
ATOM     20  C   UNL     1       6.856   4.063  12.061  0.00  0.00    +0.000 A 
ATOM     21  C   UNL     1       7.764   5.013  12.532  0.00  0.00    +0.000 A 
ATOM     22  C   UNL     1       7.712   5.430  13.863  0.00  0.00    +0.000 A 
ENDBRANCH  14  17
ENDBRANCH  12  14
ENDBRANCH   1  12
TORSDOF 6
ENDMDL
MODEL 4
REMARK VINA RESULT:      -7.4      0.175      1.077
REMARK  Name = 
REMARK  7 active torsions:
REMARK  status: ('A' for Active; 'I' for Inactive)
REMARK    1  A    between atoms: C_1  and  C_2
REMARK    2  A    between atoms: C_2  and  O_3
REMARK    3  A    between atoms: C_2  and  C_4
REMARK    4  A    between atoms: C_2  and  C_15
REMARK    5  A    between atoms: C_4  and  N_5
REMARK    6  A    between atoms: N_5  and  S_6
REMARK    7  A    between atoms: S_6  and  C_9
REMARK                            x       y       z     vdW  Elec       q    Type
REMARK                         _______ _______ _______ _____ _____    ______ ____
ROOT
ATOM      1  C   UNL     1       4.975   5.417  18.065  0.00  0.00    +0.000 C 
ENDROOT
BRANCH   1   3
ATOM      2  C   UNL     1       4.223   3.180  17.041  0.00  0.00    +0.000 C 
ATOM      3  C   UNL     1       4.478   3.967  18.338  0.00  0.00    +0.000 C 
BRANCH   3   4
ATOM      4  C   UNL     1       3.197   3.991  19.176  0.00  0.00    +0.000 A 
ATOM      5  C   UNL     1       2.880   5.074  20.010  0.00  0.00    +0.000 A 
ATOM      6  C   UNL     1       1.739   5.050  20.819  0.00  0.00    +0.000 A 
ATOM      7  C   UNL     1       0.895   3.943  20.806  0.00  0.00    +0.000 A 
ATOM      8  C   UNL     1       1.177   2.868  19.970  0.00  0.00    +0.000 A 
ATOM      9  C   UNL     1       2.313   2.894  19.158  0.00  0.00    +0.000 A 
ENDBRANCH   3   4
BRANCH   3  10
ATOM     10  O   UNL     1       5.523   3.266  19.033  0.00  0.00    +0.000 OA
ATOM     11  H   UNL     1       5.674   2.443  18.531  0.00  0.00    +0.000 HD
ENDBRANCH   3  10
ENDBRANCH   1   3
BRANCH   1  12
ATOM     12  N   UNL     1       5.347   5.597  16.636  0.00  0.00    +0.000 NA
ATOM     13  H   UNL     1       5.026   6.451  16.176  0.00  0.00    +0.000 HD
BRANCH  12  14
ATOM     14  S   UNL     1       6.982   5.386  16.256  0.00  0.00    +0.000 S 
ATOM     15  O   UNL     1       7.570   6.707  16.328  0.00  0.00    +0.000 OA
ATOM     16  O   UNL     1       7.487   4.288  17.049  0.00  0.00    +0.000 OA
BRANCH  14  17
ATOM     17  C   UNL     1       6.943   4.912  14.551  0.00  0.00    +0.000 A 
ATOM     18  C   UNL     1       7.802   5.544  13.647  0.00  0.00    +0.000 A 
ATOM     19  C   UNL     1       7.814   5.137  12.312  0.00  0.00    +0.000 A 
ATOM     20  C   UNL     1       6.979   4.100  11.891  0.00  0.00    +0.000 A 
ATOM     21  C   UNL     1       6.128   3.467  12.799  0.00  0.00    +0.000 A 
ATOM     22  C   UNL     1       6.107   3.871  14.135  0.00  0.00    +0.000 A 
ENDBRANCH  14  17
ENDBRANCH  12  14
ENDBRANCH   1  12
TORSDOF 6
ENDMDL
MODEL 5
REMARK VINA RESULT:      -7.4      1.014      1.564
REMARK  Name = 
REMARK  7 active torsions:
REMARK  status: ('A' for Active; 'I' for Inactive)
REMARK    1  A    between atoms: C_1  and  C_2
REMARK    2  A    between atoms: C_2  and  O_3
REMARK    3  A    between atoms: C_2  and  C_4
REMARK    4  A    between atoms: C_2  and  C_15
REMARK    5  A    between atoms: C_4  and  N_5
REMARK    6  A    between atoms: N_5  and  S_6
REMARK    7  A    between atoms: S_6  and  C_9
REMARK                            x       y       z     vdW  Elec       q    Type
REMARK                         _______ _______ _______ _____ _____    ______ ____
ROOT
ATOM      1  C   UNL     1       4.988   4.216  18.011  0.00  0.00    +0.000 C 
ENDROOT
BRANCH   1   3
ATOM      2  C   UNL     1       2.828   3.569  16.774  0.00  0.00    +0.000 C 
ATOM      3  C   UNL     1       3.785   3.232  17.930  0.00  0.00    +0.000 C 
BRANCH   3   4
ATOM      4  C   UNL     1       3.007   3.232  19.247  0.00  0.00    +0.000 A 
ATOM      5  C   UNL     1       3.466   2.534  20.376  0.00  0.00    +0.000 A 
ATOM      6  C   UNL     1       2.709   2.490  21.552  0.00  0.00    +0.000 A 
ATOM      7  C   UNL     1       1.481   3.144  21.620  0.00  0.00    +0.000 A 
ATOM      8  C   UNL     1       1.018   3.860  20.521  0.00  0.00    +0.000 A 
ATOM      9  C   UNL     1       1.776   3.909  19.350  0.00  0.00    +0.000 A 
ENDBRANCH   3   4
BRANCH   3  10
ATOM     10  O   UNL     1       4.305   1.921  17.650  0.00  0.00    +0.000 OA
ATOM     11  H   UNL     1       3.528   1.342  17.539  0.00  0.00    +0.000 HD
ENDBRANCH   3  10
ENDBRANCH   1   3
BRANCH   1  12
ATOM     12  N   UNL     1       5.189   4.926  16.719  0.00  0.00    +0.000 NA
ATOM     13  H   UNL     1       4.636   5.772  16.563  0.00  0.00    +0.000 HD
BRANCH  12  14
ATOM     14  S   UNL     1       6.791   5.268  16.293  0.00  0.00    +0.000 S 
ATOM     15  O   UNL     1       6.905   6.711  16.341  0.00  0.00    +0.000 OA
ATOM     16  O   UNL     1       7.653   4.414  17.077  0.00  0.00    +0.000 OA
BRANCH  14  17
ATOM     17  C   UNL     1       6.869   4.783  14.592  0.00  0.00    +0.000 A 
ATOM     18  C   UNL     1       5.981   3.812  14.119  0.00  0.00    +0.000 A 
ATOM     19  C   UNL     1       6.003   3.465  12.767  0.00  0.00    +0.000 A 
ATOM     20  C   UNL     1       6.899   4.092  11.899  0.00  0.00    +0.000 A 
ATOM     21  C   UNL     1       7.778   5.066  12.376  0.00  0.00    +0.000 A 
ATOM     22  C   UNL     1       7.766   5.416  13.727  0.00  0.00    +0.000 A 
ENDBRANCH  14  17
ENDBRANCH  12  14
ENDBRANCH   1  12
TORSDOF 6
ENDMDL
MODEL 6
REMARK VINA RESULT:      -7.4      1.316      1.754
REMARK  Name = 
REMARK  7 active torsions:
REMARK  status: ('A' for Active; 'I' for Inactive)
REMARK    1  A    between atoms: C_1  and  C_2
REMARK    2  A    between atoms: C_2  and  O_3
REMARK    3  A    between atoms: C_2  and  C_4
REMARK    4  A    between atoms: C_2  and  C_15
REMARK    5  A    between atoms: C_4  and  N_5
REMARK    6  A    between atoms: N_5  and  S_6
REMARK    7  A    between atoms: S_6  and  C_9
REMARK                            x       y       z     vdW  Elec       q    Type
REMARK                         _______ _______ _______ _____ _____    ______ ____
ROOT
ATOM      1  C   UNL     1       4.245   5.112  16.919  0.00  0.00    +0.000 C 
ENDROOT
BRANCH   1   3
ATOM      2  C   UNL     1       5.108   5.334  19.332  0.00  0.00    +0.000 C 
ATOM      3  C   UNL     1       3.902   5.491  18.389  0.00  0.00    +0.000 C 
BRANCH   3   4
ATOM      4  C   UNL     1       2.742   4.637  18.904  0.00  0.00    +0.000 A 
ATOM      5  C   UNL     1       2.317   4.698  20.241  0.00  0.00    +0.000 A 
ATOM      6  C   UNL     1       1.298   3.863  20.711  0.00  0.00    +0.000 A 
ATOM      7  C   UNL     1       0.686   2.954  19.852  0.00  0.00    +0.000 A 
ATOM      8  C   UNL     1       1.075   2.892  18.519  0.00  0.00    +0.000 A 
ATOM      9  C   UNL     1       2.088   3.730  18.047  0.00  0.00    +0.000 A 
ENDBRANCH   3   4
BRANCH   3  10
ATOM     10  O   UNL     1       3.553   6.886  18.414  0.00  0.00    +0.000 OA
ATOM     11  H   UNL     1       2.806   6.965  19.037  0.00  0.00    +0.000 HD
ENDBRANCH   3  10
ENDBRANCH   1   3
BRANCH   1  12
ATOM     12  N   UNL     1       5.491   4.302  16.850  0.00  0.00    +0.000 NA
ATOM     13  H   UNL     1       5.426   3.387  16.400  0.00  0.00    +0.000 HD
BRANCH  12  14
ATOM     14  S   UNL     1       6.860   5.085  16.236  0.00  0.00    +0.000 S 
ATOM     15  O   UNL     1       6.589   6.501  16.369  0.00  0.00    +0.000 OA
ATOM     16  O   UNL     1       8.027   4.478  16.835  0.00  0.00    +0.000 OA
BRANCH  14  17
ATOM     17  C   UNL     1       6.811   4.691  14.511  0.00  0.00    +0.000 A 
ATOM     18  C   UNL     1       7.709   5.320  13.642  0.00  0.00    +0.000 A 
ATOM     19  C   UNL     1       7.710   4.974  12.290  0.00  0.00    +0.000 A 
ATOM     20  C   UNL     1       6.827   4.002  11.816  0.00  0.00    +0.000 A 
ATOM     21  C   UNL     1       5.938   3.373  12.690  0.00  0.00    +0.000 A 
ATOM     22  C   UNL     1       5.926   3.715  14.042  0.00  0.00    +0.000 A 
ENDBRANCH  14  17
ENDBRANCH  12  14
ENDBRANCH   1  12
TORSDOF 6
ENDMDL
MODEL 7
REMARK VINA RESULT:      -7.4      1.320      2.069
REMARK  Name = 
REMARK  7 active torsions:
REMARK  status: ('A' for Active; 'I' for Inactive)
REMARK    1  A    between atoms: C_1  and  C_2
REMARK    2  A    between atoms: C_2  and  O_3
REMARK    3  A    between atoms: C_2  and  C_4
REMARK    4  A    between atoms: C_2  and  C_15
REMARK    5  A    between atoms: C_4  and  N_5
REMARK    6  A    between atoms: N_5  and  S_6
REMARK    7  A    between atoms: S_6  and  C_9
REMARK                            x       y       z     vdW  Elec       q    Type
REMARK                         _______ _______ _______ _____ _____    ______ ____
ROOT
ATOM      1  C   UNL     1       4.237   5.083  16.888  0.00  0.00    +0.000 C 
ENDROOT
BRANCH   1   3
ATOM      2  C   UNL     1       5.084   5.336  19.303  0.00  0.00    +0.000 C 
ATOM      3  C   UNL     1       3.883   5.475  18.352  0.00  0.00    +0.000 C 
BRANCH   3   4
ATOM      4  C   UNL     1       2.726   4.620  18.870  0.00  0.00    +0.000 A 
ATOM      5  C   UNL     1       2.277   4.709  20.197  0.00  0.00    +0.000 A 
ATOM      6  C   UNL     1       1.262   3.872  20.672  0.00  0.00    +0.000 A 
ATOM      7  C   UNL     1       0.676   2.933  19.827  0.00  0.00    +0.000 A 
ATOM      8  C   UNL     1       1.088   2.843  18.501  0.00  0.00    +0.000 A 
ATOM      9  C   UNL     1       2.098   3.682  18.026  0.00  0.00    +0.000 A 
ENDBRANCH   3   4
BRANCH   3  10
ATOM     10  O   UNL     1       3.525   6.868  18.360  0.00  0.00    +0.000 OA
ATOM     11  H   UNL     1       3.671   7.189  17.450  0.00  0.00    +0.000 HD
ENDBRANCH   3  10
ENDBRANCH   1   3
BRANCH   1  12
ATOM     12  N   UNL     1       5.484   4.273  16.835  0.00  0.00    +0.000 NA
ATOM     13  H   UNL     1       5.428   3.363  16.372  0.00  0.00    +0.000 HD
BRANCH  12  14
ATOM     14  S   UNL     1       6.866   5.063  16.261  0.00  0.00    +0.000 S 
ATOM     15  O   UNL     1       6.577   6.478  16.370  0.00  0.00    +0.000 OA
ATOM     16  O   UNL     1       8.017   4.473  16.905  0.00  0.00    +0.000 OA
BRANCH  14  17
ATOM     17  C   UNL     1       6.879   4.653  14.539  0.00  0.00    +0.000 A 
ATOM     18  C   UNL     1       5.977   3.699  14.058  0.00  0.00    +0.000 A 
ATOM     19  C   UNL     1       5.948   3.411  12.693  0.00  0.00    +0.000 A 
ATOM     20  C   UNL     1       6.807   4.079  11.819  0.00  0.00    +0.000 A 
ATOM     21  C   UNL     1       7.700   5.037  12.303  0.00  0.00    +0.000 A 
ATOM     22  C   UNL     1       7.740   5.328  13.668  0.00  0.00    +0.000 A 
ENDBRANCH  14  17
ENDBRANCH  12  14
ENDBRANCH   1  12
TORSDOF 6
ENDMDL
MODEL 8
REMARK VINA RESULT:      -7.4      1.301      1.557
REMARK  Name = 
REMARK  7 active torsions:
REMARK  status: ('A' for Active; 'I' for Inactive)
REMARK    1  A    between atoms: C_1  and  C_2
REMARK    2  A    between atoms: C_2  and  O_3
REMARK    3  A    between atoms: C_2  and  C_4
REMARK    4  A    between atoms: C_2  and  C_15
REMARK    5  A    between atoms: C_4  and  N_5
REMARK    6  A    between atoms: N_5  and  S_6
REMARK    7  A    between atoms: S_6  and  C_9
REMARK                            x       y       z     vdW  Elec       q    Type
REMARK                         _______ _______ _______ _____ _____    ______ ____
ROOT
ATOM      1  C   UNL     1       4.264   5.175  16.926  0.00  0.00    +0.000 C 
ENDROOT
BRANCH   1   3
ATOM      2  C   UNL     1       5.129   5.346  19.343  0.00  0.00    +0.000 C 
ATOM      3  C   UNL     1       3.913   5.482  18.411  0.00  0.00    +0.000 C 
BRANCH   3   4
ATOM      4  C   UNL     1       2.795   4.557  18.897  0.00  0.00    +0.000 A 
ATOM      5  C   UNL     1       2.198   3.611  18.049  0.00  0.00    +0.000 A 
ATOM      6  C   UNL     1       1.133   2.818  18.491  0.00  0.00    +0.000 A 
ATOM      7  C   UNL     1       0.649   2.957  19.789  0.00  0.00    +0.000 A 
ATOM      8  C   UNL     1       1.241   3.872  20.654  0.00  0.00    +0.000 A 
ATOM      9  C   UNL     1       2.307   4.659  20.215  0.00  0.00    +0.000 A 
ENDBRANCH   3   4
BRANCH   3  10
ATOM     10  O   UNL     1       3.500   6.858  18.491  0.00  0.00    +0.000 OA
ATOM     11  H   UNL     1       4.247   7.383  18.148  0.00  0.00    +0.000 HD
ENDBRANCH   3  10
ENDBRANCH   1   3
BRANCH   1  12
ATOM     12  N   UNL     1       5.469   4.308  16.828  0.00  0.00    +0.000 NA
ATOM     13  H   UNL     1       5.360   3.415  16.342  0.00  0.00    +0.000 HD
BRANCH  12  14
ATOM     14  S   UNL     1       6.878   5.045  16.249  0.00  0.00    +0.000 S 
ATOM     15  O   UNL     1       6.665   6.468  16.410  0.00  0.00    +0.000 OA
ATOM     16  O   UNL     1       8.010   4.377  16.850  0.00  0.00    +0.000 OA
BRANCH  14  17
ATOM     17  C   UNL     1       6.836   4.691  14.516  0.00  0.00    +0.000 A 
ATOM     18  C   UNL     1       7.735   5.343  13.665  0.00  0.00    +0.000 A 
ATOM     19  C   UNL     1       7.742   5.029  12.306  0.00  0.00    +0.000 A 
ATOM     20  C   UNL     1       6.864   4.064  11.806  0.00  0.00    +0.000 A 
ATOM     21  C   UNL     1       5.975   3.411  12.662  0.00  0.00    +0.000 A 
ATOM     22  C   UNL     1       5.958   3.723  14.022  0.00  0.00    +0.000 A 
ENDBRANCH  14  17
ENDBRANCH  12  14
ENDBRANCH   1  12
TORSDOF 6
ENDMDL
MODEL 9
REMARK VINA RESULT:      -7.4      1.466      7.009
REMARK  Name = 
REMARK  7 active torsions:
REMARK  status: ('A' for Active; 'I' for Inactive)
REMARK    1  A    between atoms: C_1  and  C_2
REMARK    2  A    between atoms: C_2  and  O_3
REMARK    3  A    between atoms: C_2  and  C_4
REMARK    4  A    between atoms: C_2  and  C_15
REMARK    5  A    between atoms: C_4  and  N_5
REMARK    6  A    between atoms: N_5  and  S_6
REMARK    7  A    between atoms: S_6  and  C_9
REMARK                            x       y       z     vdW  Elec       q    Type
REMARK                         _______ _______ _______ _____ _____    ______ ____
ROOT
ATOM      1  C   UNL     1       6.458   4.313  16.948  0.00  0.00    +0.000 C 
ENDROOT
BRANCH   1   3
ATOM      2  C   UNL     1       5.138   6.278  15.941  0.00  0.00    +0.000 C 
ATOM      3  C   UNL     1       6.435   5.453  15.888  0.00  0.00    +0.000 C 
BRANCH   3   4
ATOM      4  C   UNL     1       6.612   4.877  14.481  0.00  0.00    +0.000 A 
ATOM      5  C   UNL     1       7.631   5.321  13.624  0.00  0.00    +0.000 A 
ATOM      6  C   UNL     1       7.738   4.831  12.318  0.00  0.00    +0.000 A 
ATOM      7  C   UNL     1       6.828   3.887  11.848  0.00  0.00    +0.000 A 
ATOM      8  C   UNL     1       5.824   3.416  12.687  0.00  0.00    +0.000 A 
ATOM      9  C   UNL     1       5.721   3.900  13.993  0.00  0.00    +0.000 A 
ENDBRANCH   3   4
BRANCH   3  10
ATOM     10  O   UNL     1       7.503   6.365  16.198  0.00  0.00    +0.000 OA
ATOM     11  H   UNL     1       7.966   5.985  16.968  0.00  0.00    +0.000 HD
ENDBRANCH   3  10
ENDBRANCH   1   3
BRANCH   1  12
ATOM     12  N   UNL     1       5.084   3.991  17.420  0.00  0.00    +0.000 NA
ATOM     13  H   UNL     1       4.693   3.092  17.132  0.00  0.00    +0.000 HD
BRANCH  12  14
ATOM     14  S   UNL     1       4.799   4.175  19.078  0.00  0.00    +0.000 S 
ATOM     15  O   UNL     1       5.572   3.133  19.721  0.00  0.00    +0.000 OA
ATOM     16  O   UNL     1       4.984   5.569  19.410  0.00  0.00    +0.000 OA
BRANCH  14  17
ATOM     17  C   UNL     1       3.089   3.751  19.243  0.00  0.00    +0.000 A 
ATOM     18  C   UNL     1       2.541   2.783  18.396  0.00  0.00    +0.000 A 
ATOM     19  C   UNL     1       1.207   2.406  18.558  0.00  0.00    +0.000 A 
ATOM     20  C   UNL     1       0.434   2.988  19.564  0.00  0.00    +0.000 A 
ATOM     21  C   UNL     1       0.988   3.949  20.412  0.00  0.00    +0.000 A 
ATOM     22  C   UNL     1       2.320   4.335  20.254  0.00  0.00    +0.000 A 
ENDBRANCH  14  17
ENDBRANCH  12  14
ENDBRANCH   1  12
TORSDOF 6
ENDMDL
