MODEL 1
REMARK VINA RESULT:      -6.3      0.000      0.000
REMARK  Name = 
REMARK  10 active torsions:
REMARK  status: ('A' for Active; 'I' for Inactive)
REMARK    1  A    between atoms: C_1  and  C_2
REMARK    2  A    between atoms: C_2  and  C_3
REMARK    3  A    between atoms: C_2  and  C_9
REMARK    4  A    between atoms: C_3  and  C_4
REMARK    5  A    between atoms: C_4  and  C_5
REMARK    6  A    between atoms: C_5  and  N_6
REMARK    7  A    between atoms: C_17  and  C_18
REMARK    8  A    between atoms: C_19  and  C_20
REMARK    9  A    between atoms: C_23  and  O_24
REMARK   10  A    between atoms: C_28  and  O_29
REMARK                            x       y       z     vdW  Elec       q    Type
REMARK                         _______ _______ _______ _____ _____    ______ ____
ROOT
ATOM      1  C   UNL     1       0.485   9.605  19.208  0.00  0.00    +0.000 C 
ATOM      2  C   UNL     1       1.298   9.433  20.516  0.00  0.00    +0.000 C 
ATOM      3  C   UNL     1       0.771  10.480  21.495  0.00  0.00    +0.000 C 
ATOM      4  C   UNL     1      -0.601  10.827  20.938  0.00  0.00    +0.000 C 
ATOM      5  C   UNL     1      -1.267  12.097  21.453  0.00  0.00    +0.000 C 
ATOM      6  C   UNL     1      -2.643  12.296  20.737  0.00  0.00    +0.000 C 
ATOM      7  C   UNL     1      -2.614  12.045  19.199  0.00  0.00    +0.000 C 
ATOM      8  C   UNL     1      -1.766  10.835  18.766  0.00  0.00    +0.000 C 
ATOM      9  C   UNL     1      -0.370  10.887  19.410  0.00  0.00    +0.000 C 
ATOM     10  C   UNL     1       0.345  12.166  18.935  0.00  0.00    +0.000 C 
ATOM     11  C   UNL     1      -3.265  13.682  21.148  0.00  0.00    +0.000 C 
ATOM     12  C   UNL     1      -2.355  14.865  20.707  0.00  0.00    +0.000 C 
ATOM     13  C   UNL     1      -4.643  13.939  20.472  0.00  0.00    +0.000 C 
ATOM     14  C   UNL     1      -5.759  13.038  20.980  0.00  0.00    +0.000 C 
ATOM     15  C   UNL     1      -5.904  13.164  22.491  0.00  0.00    +0.000 C 
ATOM     16  C   UNL     1      -4.594  12.824  23.194  0.00  0.00    +0.000 C 
ATOM     17  C   UNL     1      -3.435  13.715  22.705  0.00  0.00    +0.000 C 
ATOM     18  C   UNL     1      -2.132  13.390  23.466  0.00  0.00    +0.000 C 
ATOM     19  C   UNL     1      -1.382  12.147  22.985  0.00  0.00    +0.000 C 
ENDROOT
BRANCH   1  21
ATOM     20  C   UNL     1       2.563  10.298  17.736  0.00  0.00    +0.000 C 
ATOM     21  C   UNL     1       1.320   9.404  17.912  0.00  0.00    +0.000 C 
BRANCH  21  22
ATOM     22  C   UNL     1       1.820   7.938  17.799  0.00  0.00    +0.000 C 
BRANCH  22  23
ATOM     23  C   UNL     1       3.337   7.748  17.801  0.00  0.00    +0.000 C 
BRANCH  23  24
ATOM     24  C   UNL     1       3.761   6.283  17.738  0.00  0.00    +0.000 C 
BRANCH  24  25
ATOM     25  N   UNL     1       4.813   6.174  16.718  0.00  0.00    +0.000 NA
ATOM     26  C   UNL     1       5.859   6.569  17.051  0.00  0.00    +0.000 C 
ATOM     27  S   UNL     1       7.293   7.106  17.495  0.00  0.00    +0.000 S 
ENDBRANCH  24  25
ENDBRANCH  23  24
ENDBRANCH  22  23
ENDBRANCH  21  22
ENDBRANCH   1  21
BRANCH  15  28
ATOM     28  O   UNL     1      -6.934  12.295  22.947  0.00  0.00    +0.000 OA
ATOM     29  H   UNL     1      -7.783  12.628  22.611  0.00  0.00    +0.000 HD
ENDBRANCH  15  28
BRANCH  19  30
ATOM     30  O   UNL     1      -1.966  10.971  23.534  0.00  0.00    +0.000 OA
ATOM     31  H   UNL     1      -1.305  10.263  23.558  0.00  0.00    +0.000 HD
ENDBRANCH  19  30
TORSDOF 7
ENDMDL
MODEL 2
REMARK VINA RESULT:      -6.2      1.144      1.298
REMARK  Name = 
REMARK  10 active torsions:
REMARK  status: ('A' for Active; 'I' for Inactive)
REMARK    1  A    between atoms: C_1  and  C_2
REMARK    2  A    between atoms: C_2  and  C_3
REMARK    3  A    between atoms: C_2  and  C_9
REMARK    4  A    between atoms: C_3  and  C_4
REMARK    5  A    between atoms: C_4  and  C_5
REMARK    6  A    between atoms: C_5  and  N_6
REMARK    7  A    between atoms: C_17  and  C_18
REMARK    8  A    between atoms: C_19  and  C_20
REMARK    9  A    between atoms: C_23  and  O_24
REMARK   10  A    between atoms: C_28  and  O_29
REMARK                            x       y       z     vdW  Elec       q    Type
REMARK                         _______ _______ _______ _____ _____    ______ ____
ROOT
ATOM      1  C   UNL     1       0.031  10.538  19.378  0.00  0.00    +0.000 C 
ATOM      2  C   UNL     1       0.841  10.574  20.698  0.00  0.00    +0.000 C 
ATOM      3  C   UNL     1       0.091  11.509  21.643  0.00  0.00    +0.000 C 
ATOM      4  C   UNL     1      -1.315  11.544  21.064  0.00  0.00    +0.000 C 
ATOM      5  C   UNL     1      -2.242  12.657  21.539  0.00  0.00    +0.000 C 
ATOM      6  C   UNL     1      -3.618  12.542  20.806  0.00  0.00    +0.000 C 
ATOM      7  C   UNL     1      -3.514  12.265  19.274  0.00  0.00    +0.000 C 
ATOM      8  C   UNL     1      -2.424  11.253  18.882  0.00  0.00    +0.000 C 
ATOM      9  C   UNL     1      -1.079  11.614  19.537  0.00  0.00    +0.000 C 
ATOM     10  C   UNL     1      -0.644  13.003  19.035  0.00  0.00    +0.000 C 
ATOM     11  C   UNL     1      -4.525  13.775  21.173  0.00  0.00    +0.000 C 
ATOM     12  C   UNL     1      -3.879  15.112  20.709  0.00  0.00    +0.000 C 
ATOM     13  C   UNL     1      -5.916  13.718  20.477  0.00  0.00    +0.000 C 
ATOM     14  C   UNL     1      -6.824  12.614  20.999  0.00  0.00    +0.000 C 
ATOM     15  C   UNL     1      -7.015  12.742  22.505  0.00  0.00    +0.000 C 
ATOM     16  C   UNL     1      -5.673  12.705  23.229  0.00  0.00    +0.000 C 
ATOM     17  C   UNL     1      -4.721  13.809  22.727  0.00  0.00    +0.000 C 
ATOM     18  C   UNL     1      -3.391  13.786  23.509  0.00  0.00    +0.000 C 
ATOM     19  C   UNL     1      -2.387  12.718  23.068  0.00  0.00    +0.000 C 
ENDROOT
BRANCH   1  21
ATOM     20  C   UNL     1       2.295  11.154  18.172  0.00  0.00    +0.000 C 
ATOM     21  C   UNL     1       0.908  10.487  18.096  0.00  0.00    +0.000 C 
BRANCH  21  22
ATOM     22  C   UNL     1       1.156   9.019  17.654  0.00  0.00    +0.000 C 
BRANCH  22  23
ATOM     23  C   UNL     1       2.502   8.418  18.059  0.00  0.00    +0.000 C 
BRANCH  23  24
ATOM     24  C   UNL     1       2.447   6.908  18.276  0.00  0.00    +0.000 C 
BRANCH  24  25
ATOM     25  N   UNL     1       3.831   6.432  18.406  0.00  0.00    +0.000 NA
ATOM     26  C   UNL     1       4.420   6.362  17.401  0.00  0.00    +0.000 C 
ATOM     27  S   UNL     1       5.234   6.265  16.034  0.00  0.00    +0.000 S 
ENDBRANCH  24  25
ENDBRANCH  23  24
ENDBRANCH  22  23
ENDBRANCH  21  22
ENDBRANCH   1  21
BRANCH  15  28
ATOM     28  O   UNL     1      -7.845  11.687  22.974  0.00  0.00    +0.000 OA
ATOM     29  H   UNL     1      -8.771  11.937  22.822  0.00  0.00    +0.000 HD
ENDBRANCH  15  28
BRANCH  19  30
ATOM     30  O   UNL     1      -2.718  11.459  23.643  0.00  0.00    +0.000 OA
ATOM     31  H   UNL     1      -3.649  11.258  23.468  0.00  0.00    +0.000 HD
ENDBRANCH  19  30
TORSDOF 7
ENDMDL
MODEL 3
REMARK VINA RESULT:      -6.2      1.340      1.563
REMARK  Name = 
REMARK  10 active torsions:
REMARK  status: ('A' for Active; 'I' for Inactive)
REMARK    1  A    between atoms: C_1  and  C_2
REMARK    2  A    between atoms: C_2  and  C_3
REMARK    3  A    between atoms: C_2  and  C_9
REMARK    4  A    between atoms: C_3  and  C_4
REMARK    5  A    between atoms: C_4  and  C_5
REMARK    6  A    between atoms: C_5  and  N_6
REMARK    7  A    between atoms: C_17  and  C_18
REMARK    8  A    between atoms: C_19  and  C_20
REMARK    9  A    between atoms: C_23  and  O_24
REMARK   10  A    between atoms: C_28  and  O_29
REMARK                            x       y       z     vdW  Elec       q    Type
REMARK                         _______ _______ _______ _____ _____    ______ ____
ROOT
ATOM      1  C   UNL     1       1.062   8.274  19.219  0.00  0.00    +0.000 C 
ATOM      2  C   UNL     1       1.763   8.058  20.583  0.00  0.00    +0.000 C 
ATOM      3  C   UNL     1       1.350   9.227  21.474  0.00  0.00    +0.000 C 
ATOM      4  C   UNL     1       0.081   9.744  20.814  0.00  0.00    +0.000 C 
ATOM      5  C   UNL     1      -0.408  11.128  21.222  0.00  0.00    +0.000 C 
ATOM      6  C   UNL     1      -1.695  11.491  20.410  0.00  0.00    +0.000 C 
ATOM      7  C   UNL     1      -1.618  11.149  18.891  0.00  0.00    +0.000 C 
ATOM      8  C   UNL     1      -0.944   9.803  18.573  0.00  0.00    +0.000 C 
ATOM      9  C   UNL     1       0.405   9.680  19.303  0.00  0.00    +0.000 C 
ATOM     10  C   UNL     1       1.334  10.807  18.814  0.00  0.00    +0.000 C 
ATOM     11  C   UNL     1      -2.117  12.977  20.712  0.00  0.00    +0.000 C 
ATOM     12  C   UNL     1      -1.013  13.981  20.274  0.00  0.00    +0.000 C 
ATOM     13  C   UNL     1      -3.399  13.399  19.937  0.00  0.00    +0.000 C 
ATOM     14  C   UNL     1      -4.668  12.708  20.414  0.00  0.00    +0.000 C 
ATOM     15  C   UNL     1      -4.877  12.941  21.905  0.00  0.00    +0.000 C 
ATOM     16  C   UNL     1      -3.676  12.449  22.708  0.00  0.00    +0.000 C 
ATOM     17  C   UNL     1      -2.368  13.125  22.252  0.00  0.00    +0.000 C 
ATOM     18  C   UNL     1      -1.176  12.651  23.110  0.00  0.00    +0.000 C 
ATOM     19  C   UNL     1      -0.601  11.283  22.740  0.00  0.00    +0.000 C 
ENDROOT
BRANCH   1  21
ATOM     20  C   UNL     1       3.249   8.642  17.789  0.00  0.00    +0.000 C 
ATOM     21  C   UNL     1       1.928   7.875  17.991  0.00  0.00    +0.000 C 
BRANCH  21  22
ATOM     22  C   UNL     1       2.305   6.369  18.047  0.00  0.00    +0.000 C 
BRANCH  22  23
ATOM     23  C   UNL     1       3.796   6.058  18.177  0.00  0.00    +0.000 C 
BRANCH  23  24
ATOM     24  C   UNL     1       4.150   5.344  19.479  0.00  0.00    +0.000 C 
BRANCH  24  25
ATOM     25  N   UNL     1       5.383   4.580  19.239  0.00  0.00    +0.000 NA
ATOM     26  C   UNL     1       6.314   5.229  18.969  0.00  0.00    +0.000 C 
ATOM     27  S   UNL     1       7.594   6.106  18.600  0.00  0.00    +0.000 S 
ENDBRANCH  24  25
ENDBRANCH  23  24
ENDBRANCH  22  23
ENDBRANCH  21  22
ENDBRANCH   1  21
BRANCH  15  28
ATOM     28  O   UNL     1      -6.053  12.266  22.335  0.00  0.00    +0.000 OA
ATOM     29  H   UNL     1      -5.862  11.833  23.183  0.00  0.00    +0.000 HD
ENDBRANCH  15  28
BRANCH  19  30
ATOM     30  O   UNL     1      -1.389  10.243  23.306  0.00  0.00    +0.000 OA
ATOM     31  H   UNL     1      -0.818   9.496  23.540  0.00  0.00    +0.000 HD
ENDBRANCH  19  30
TORSDOF 7
ENDMDL
MODEL 4
REMARK VINA RESULT:      -6.2      1.971      2.161
REMARK  Name = 
REMARK  10 active torsions:
REMARK  status: ('A' for Active; 'I' for Inactive)
REMARK    1  A    between atoms: C_1  and  C_2
REMARK    2  A    between atoms: C_2  and  C_3
REMARK    3  A    between atoms: C_2  and  C_9
REMARK    4  A    between atoms: C_3  and  C_4
REMARK    5  A    between atoms: C_4  and  C_5
REMARK    6  A    between atoms: C_5  and  N_6
REMARK    7  A    between atoms: C_17  and  C_18
REMARK    8  A    between atoms: C_19  and  C_20
REMARK    9  A    between atoms: C_23  and  O_24
REMARK   10  A    between atoms: C_28  and  O_29
REMARK                            x       y       z     vdW  Elec       q    Type
REMARK                         _______ _______ _______ _____ _____    ______ ____
ROOT
ATOM      1  C   UNL     1       0.918   8.530  19.188  0.00  0.00    +0.000 C 
ATOM      2  C   UNL     1       1.647   8.293  20.534  0.00  0.00    +0.000 C 
ATOM      3  C   UNL     1       1.228   9.431  21.462  0.00  0.00    +0.000 C 
ATOM      4  C   UNL     1      -0.062   9.940  20.836  0.00  0.00    +0.000 C 
ATOM      5  C   UNL     1      -0.570  11.304  21.288  0.00  0.00    +0.000 C 
ATOM      6  C   UNL     1      -1.877  11.662  20.509  0.00  0.00    +0.000 C 
ATOM      7  C   UNL     1      -1.821  11.361  18.980  0.00  0.00    +0.000 C 
ATOM      8  C   UNL     1      -1.128  10.036  18.616  0.00  0.00    +0.000 C 
ATOM      9  C   UNL     1       0.237   9.921  19.319  0.00  0.00    +0.000 C 
ATOM     10  C   UNL     1       1.135  11.077  18.843  0.00  0.00    +0.000 C 
ATOM     11  C   UNL     1      -2.322  13.132  20.855  0.00  0.00    +0.000 C 
ATOM     12  C   UNL     1      -1.244  14.168  20.424  0.00  0.00    +0.000 C 
ATOM     13  C   UNL     1      -3.624  13.549  20.113  0.00  0.00    +0.000 C 
ATOM     14  C   UNL     1      -4.872  12.822  20.595  0.00  0.00    +0.000 C 
ATOM     15  C   UNL     1      -5.058  13.014  22.095  0.00  0.00    +0.000 C 
ATOM     16  C   UNL     1      -3.835  12.524  22.863  0.00  0.00    +0.000 C 
ATOM     17  C   UNL     1      -2.548  13.237  22.402  0.00  0.00    +0.000 C 
ATOM     18  C   UNL     1      -1.332  12.765  23.228  0.00  0.00    +0.000 C 
ATOM     19  C   UNL     1      -0.738  11.417  22.813  0.00  0.00    +0.000 C 
ENDROOT
BRANCH   1  21
ATOM     20  C   UNL     1       3.086   8.956  17.745  0.00  0.00    +0.000 C 
ATOM     21  C   UNL     1       1.769   8.178  17.936  0.00  0.00    +0.000 C 
BRANCH  21  22
ATOM     22  C   UNL     1       2.150   6.672  17.932  0.00  0.00    +0.000 C 
BRANCH  22  23
ATOM     23  C   UNL     1       3.625   6.355  18.182  0.00  0.00    +0.000 C 
BRANCH  23  24
ATOM     24  C   UNL     1       3.850   5.460  19.397  0.00  0.00    +0.000 C 
BRANCH  24  25
ATOM     25  N   UNL     1       3.034   4.252  19.209  0.00  0.00    +0.000 NA
ATOM     26  C   UNL     1       2.673   3.748  20.197  0.00  0.00    +0.000 C 
ATOM     27  S   UNL     1       2.173   3.052  21.542  0.00  0.00    +0.000 S 
ENDBRANCH  24  25
ENDBRANCH  23  24
ENDBRANCH  22  23
ENDBRANCH  21  22
ENDBRANCH   1  21
BRANCH  15  28
ATOM     28  O   UNL     1      -6.214  12.306  22.527  0.00  0.00    +0.000 OA
ATOM     29  H   UNL     1      -6.980  12.899  22.452  0.00  0.00    +0.000 HD
ENDBRANCH  15  28
BRANCH  19  30
ATOM     30  O   UNL     1      -1.496  10.348  23.366  0.00  0.00    +0.000 OA
ATOM     31  H   UNL     1      -1.162   9.505  23.026  0.00  0.00    +0.000 HD
ENDBRANCH  19  30
TORSDOF 7
ENDMDL
MODEL 5
REMARK VINA RESULT:      -6.2      3.129      4.591
REMARK  Name = 
REMARK  10 active torsions:
REMARK  status: ('A' for Active; 'I' for Inactive)
REMARK    1  A    between atoms: C_1  and  C_2
REMARK    2  A    between atoms: C_2  and  C_3
REMARK    3  A    between atoms: C_2  and  C_9
REMARK    4  A    between atoms: C_3  and  C_4
REMARK    5  A    between atoms: C_4  and  C_5
REMARK    6  A    between atoms: C_5  and  N_6
REMARK    7  A    between atoms: C_17  and  C_18
REMARK    8  A    between atoms: C_19  and  C_20
REMARK    9  A    between atoms: C_23  and  O_24
REMARK   10  A    between atoms: C_28  and  O_29
REMARK                            x       y       z     vdW  Elec       q    Type
REMARK                         _______ _______ _______ _____ _____    ______ ____
ROOT
ATOM      1  C   UNL     1      -0.051  11.953  18.955  0.00  0.00    +0.000 C 
ATOM      2  C   UNL     1      -1.147  11.426  17.995  0.00  0.00    +0.000 C 
ATOM      3  C   UNL     1      -2.470  11.521  18.750  0.00  0.00    +0.000 C 
ATOM      4  C   UNL     1      -2.181  12.540  19.842  0.00  0.00    +0.000 C 
ATOM      5  C   UNL     1      -3.161  12.617  21.007  0.00  0.00    +0.000 C 
ATOM      6  C   UNL     1      -2.673  13.690  22.034  0.00  0.00    +0.000 C 
ATOM      7  C   UNL     1      -1.147  13.633  22.351  0.00  0.00    +0.000 C 
ATOM      8  C   UNL     1      -0.250  13.374  21.128  0.00  0.00    +0.000 C 
ATOM      9  C   UNL     1      -0.759  12.166  20.322  0.00  0.00    +0.000 C 
ATOM     10  C   UNL     1      -0.711  10.918  21.223  0.00  0.00    +0.000 C 
ATOM     11  C   UNL     1      -3.593  13.667  23.311  0.00  0.00    +0.000 C 
ATOM     12  C   UNL     1      -3.528  12.291  24.033  0.00  0.00    +0.000 C 
ATOM     13  C   UNL     1      -3.162  14.720  24.373  0.00  0.00    +0.000 C 
ATOM     14  C   UNL     1      -3.406  16.162  23.951  0.00  0.00    +0.000 C 
ATOM     15  C   UNL     1      -4.871  16.375  23.592  0.00  0.00    +0.000 C 
ATOM     16  C   UNL     1      -5.304  15.422  22.481  0.00  0.00    +0.000 C 
ATOM     17  C   UNL     1      -5.070  13.948  22.870  0.00  0.00    +0.000 C 
ATOM     18  C   UNL     1      -5.563  13.001  21.755  0.00  0.00    +0.000 C 
ATOM     19  C   UNL     1      -4.617  12.840  20.563  0.00  0.00    +0.000 C 
ENDROOT
BRANCH   1  21
ATOM     20  C   UNL     1       1.273   9.823  18.138  0.00  0.00    +0.000 C 
ATOM     21  C   UNL     1       1.293  11.178  18.870  0.00  0.00    +0.000 C 
BRANCH  21  22
ATOM     22  C   UNL     1       2.381  12.035  18.167  0.00  0.00    +0.000 C 
BRANCH  22  23
ATOM     23  C   UNL     1       2.178  13.550  18.222  0.00  0.00    +0.000 C 
BRANCH  23  24
ATOM     24  C   UNL     1       3.323  14.286  18.912  0.00  0.00    +0.000 C 
BRANCH  24  25
ATOM     25  N   UNL     1       4.053  15.031  17.876  0.00  0.00    +0.000 NA
ATOM     26  C   UNL     1       5.206  14.851  17.867  0.00  0.00    +0.000 C 
ATOM     27  S   UNL     1       6.782  14.613  17.844  0.00  0.00    +0.000 S 
ENDBRANCH  24  25
ENDBRANCH  23  24
ENDBRANCH  22  23
ENDBRANCH  21  22
ENDBRANCH   1  21
BRANCH  15  28
ATOM     28  O   UNL     1      -5.070  17.720  23.176  0.00  0.00    +0.000 OA
ATOM     29  H   UNL     1      -4.261  18.221  23.368  0.00  0.00    +0.000 HD
ENDBRANCH  15  28
BRANCH  19  30
ATOM     30  O   UNL     1      -4.760  13.932  19.663  0.00  0.00    +0.000 OA
ATOM     31  H   UNL     1      -5.660  14.284  19.724  0.00  0.00    +0.000 HD
ENDBRANCH  19  30
TORSDOF 7
ENDMDL
MODEL 6
REMARK VINA RESULT:      -6.2      3.395      5.120
REMARK  Name = 
REMARK  10 active torsions:
REMARK  status: ('A' for Active; 'I' for Inactive)
REMARK    1  A    between atoms: C_1  and  C_2
REMARK    2  A    between atoms: C_2  and  C_3
REMARK    3  A    between atoms: C_2  and  C_9
REMARK    4  A    between atoms: C_3  and  C_4
REMARK    5  A    between atoms: C_4  and  C_5
REMARK    6  A    between atoms: C_5  and  N_6
REMARK    7  A    between atoms: C_17  and  C_18
REMARK    8  A    between atoms: C_19  and  C_20
REMARK    9  A    between atoms: C_23  and  O_24
REMARK   10  A    between atoms: C_28  and  O_29
REMARK                            x       y       z     vdW  Elec       q    Type
REMARK                         _______ _______ _______ _____ _____    ______ ____
ROOT
ATOM      1  C   UNL     1      -0.909  14.056  22.064  0.00  0.00    +0.000 C 
ATOM      2  C   UNL     1      -1.098  14.460  23.547  0.00  0.00    +0.000 C 
ATOM      3  C   UNL     1      -2.603  14.462  23.808  0.00  0.00    +0.000 C 
ATOM      4  C   UNL     1      -3.156  13.588  22.693  0.00  0.00    +0.000 C 
ATOM      5  C   UNL     1      -4.655  13.658  22.425  0.00  0.00    +0.000 C 
ATOM      6  C   UNL     1      -5.019  12.721  21.227  0.00  0.00    +0.000 C 
ATOM      7  C   UNL     1      -4.043  12.815  20.014  0.00  0.00    +0.000 C 
ATOM      8  C   UNL     1      -2.556  12.918  20.399  0.00  0.00    +0.000 C 
ATOM      9  C   UNL     1      -2.338  14.017  21.453  0.00  0.00    +0.000 C 
ATOM     10  C   UNL     1      -2.771  15.367  20.854  0.00  0.00    +0.000 C 
ATOM     11  C   UNL     1      -6.534  12.905  20.844  0.00  0.00    +0.000 C 
ATOM     12  C   UNL     1      -6.831  14.361  20.382  0.00  0.00    +0.000 C 
ATOM     13  C   UNL     1      -6.962  11.993  19.658  0.00  0.00    +0.000 C 
ATOM     14  C   UNL     1      -6.999  10.511  19.998  0.00  0.00    +0.000 C 
ATOM     15  C   UNL     1      -7.914  10.256  21.190  0.00  0.00    +0.000 C 
ATOM     16  C   UNL     1      -7.465  11.063  22.404  0.00  0.00    +0.000 C 
ATOM     17  C   UNL     1      -7.413  12.574  22.099  0.00  0.00    +0.000 C 
ATOM     18  C   UNL     1      -7.007  13.374  23.355  0.00  0.00    +0.000 C 
ATOM     19  C   UNL     1      -5.511  13.385  23.673  0.00  0.00    +0.000 C 
ENDROOT
BRANCH   1  21
ATOM     20  C   UNL     1       1.266  15.540  22.234  0.00  0.00    +0.000 C 
ATOM     21  C   UNL     1       0.242  14.812  21.342  0.00  0.00    +0.000 C 
BRANCH  21  22
ATOM     22  C   UNL     1       1.059  13.845  20.442  0.00  0.00    +0.000 C 
BRANCH  22  23
ATOM     23  C   UNL     1       1.002  12.366  20.826  0.00  0.00    +0.000 C 
BRANCH  23  24
ATOM     24  C   UNL     1       1.024  11.430  19.621  0.00  0.00    +0.000 C 
BRANCH  24  25
ATOM     25  N   UNL     1      -0.065  10.460  19.798  0.00  0.00    +0.000 NA
ATOM     26  C   UNL     1      -0.095   9.945  20.844  0.00  0.00    +0.000 C 
ATOM     27  S   UNL     1      -0.147   9.235  22.271  0.00  0.00    +0.000 S 
ENDBRANCH  24  25
ENDBRANCH  23  24
ENDBRANCH  22  23
ENDBRANCH  21  22
ENDBRANCH   1  21
BRANCH  15  28
ATOM     28  O   UNL     1      -7.914   8.870  21.506  0.00  0.00    +0.000 OA
ATOM     29  H   UNL     1      -8.364   8.752  22.359  0.00  0.00    +0.000 HD
ENDBRANCH  15  28
BRANCH  19  30
ATOM     30  O   UNL     1      -5.138  12.188  24.347  0.00  0.00    +0.000 OA
ATOM     31  H   UNL     1      -4.294  12.323  24.802  0.00  0.00    +0.000 HD
ENDBRANCH  19  30
TORSDOF 7
ENDMDL
MODEL 7
REMARK VINA RESULT:      -6.2      3.682      4.538
REMARK  Name = 
REMARK  10 active torsions:
REMARK  status: ('A' for Active; 'I' for Inactive)
REMARK    1  A    between atoms: C_1  and  C_2
REMARK    2  A    between atoms: C_2  and  C_3
REMARK    3  A    between atoms: C_2  and  C_9
REMARK    4  A    between atoms: C_3  and  C_4
REMARK    5  A    between atoms: C_4  and  C_5
REMARK    6  A    between atoms: C_5  and  N_6
REMARK    7  A    between atoms: C_17  and  C_18
REMARK    8  A    between atoms: C_19  and  C_20
REMARK    9  A    between atoms: C_23  and  O_24
REMARK   10  A    between atoms: C_28  and  O_29
REMARK                            x       y       z     vdW  Elec       q    Type
REMARK                         _______ _______ _______ _____ _____    ______ ____
ROOT
ATOM      1  C   UNL     1      -0.579  10.505  20.741  0.00  0.00    +0.000 C 
ATOM      2  C   UNL     1      -0.546   9.765  22.102  0.00  0.00    +0.000 C 
ATOM      3  C   UNL     1      -1.090  10.743  23.141  0.00  0.00    +0.000 C 
ATOM      4  C   UNL     1      -1.872  11.746  22.307  0.00  0.00    +0.000 C 
ATOM      5  C   UNL     1      -2.251  13.065  22.970  0.00  0.00    +0.000 C 
ATOM      6  C   UNL     1      -3.013  13.968  21.945  0.00  0.00    +0.000 C 
ATOM      7  C   UNL     1      -2.376  14.009  20.522  0.00  0.00    +0.000 C 
ATOM      8  C   UNL     1      -1.863  12.651  20.014  0.00  0.00    +0.000 C 
ATOM      9  C   UNL     1      -0.972  11.972  21.070  0.00  0.00    +0.000 C 
ATOM     10  C   UNL     1       0.247  12.874  21.339  0.00  0.00    +0.000 C 
ATOM     11  C   UNL     1      -3.271  15.389  22.572  0.00  0.00    +0.000 C 
ATOM     12  C   UNL     1      -1.936  16.114  22.904  0.00  0.00    +0.000 C 
ATOM     13  C   UNL     1      -4.033  16.337  21.601  0.00  0.00    +0.000 C 
ATOM     14  C   UNL     1      -5.481  15.938  21.355  0.00  0.00    +0.000 C 
ATOM     15  C   UNL     1      -6.242  15.841  22.671  0.00  0.00    +0.000 C 
ATOM     16  C   UNL     1      -5.575  14.845  23.614  0.00  0.00    +0.000 C 
ATOM     17  C   UNL     1      -4.103  15.213  23.888  0.00  0.00    +0.000 C 
ATOM     18  C   UNL     1      -3.465  14.223  24.884  0.00  0.00    +0.000 C 
ATOM     19  C   UNL     1      -3.021  12.885  24.289  0.00  0.00    +0.000 C 
ENDROOT
BRANCH   1  21
ATOM     20  C   UNL     1       1.344   8.844  20.032  0.00  0.00    +0.000 C 
ATOM     21  C   UNL     1       0.635  10.196  19.822  0.00  0.00    +0.000 C 
BRANCH  21  22
ATOM     22  C   UNL     1       0.221  10.241  18.325  0.00  0.00    +0.000 C 
BRANCH  22  23
ATOM     23  C   UNL     1      -1.165   9.686  17.999  0.00  0.00    +0.000 C 
BRANCH  23  24
ATOM     24  C   UNL     1      -1.927  10.530  16.981  0.00  0.00    +0.000 C 
BRANCH  24  25
ATOM     25  N   UNL     1      -3.301  10.011  16.921  0.00  0.00    +0.000 NA
ATOM     26  C   UNL     1      -4.133  10.809  17.103  0.00  0.00    +0.000 C 
ATOM     27  S   UNL     1      -5.278  11.891  17.350  0.00  0.00    +0.000 S 
ENDBRANCH  24  25
ENDBRANCH  23  24
ENDBRANCH  22  23
ENDBRANCH  21  22
ENDBRANCH   1  21
BRANCH  15  28
ATOM     28  O   UNL     1      -7.584  15.443  22.420  0.00  0.00    +0.000 OA
ATOM     29  H   UNL     1      -7.719  15.417  21.458  0.00  0.00    +0.000 HD
ENDBRANCH  15  28
BRANCH  19  30
ATOM     30  O   UNL     1      -4.132  12.004  24.165  0.00  0.00    +0.000 OA
ATOM     31  H   UNL     1      -4.863  12.327  24.712  0.00  0.00    +0.000 HD
ENDBRANCH  19  30
TORSDOF 7
ENDMDL
MODEL 8
REMARK VINA RESULT:      -6.2      1.499      1.600
REMARK  Name = 
REMARK  10 active torsions:
REMARK  status: ('A' for Active; 'I' for Inactive)
REMARK    1  A    between atoms: C_1  and  C_2
REMARK    2  A    between atoms: C_2  and  C_3
REMARK    3  A    between atoms: C_2  and  C_9
REMARK    4  A    between atoms: C_3  and  C_4
REMARK    5  A    between atoms: C_4  and  C_5
REMARK    6  A    between atoms: C_5  and  N_6
REMARK    7  A    between atoms: C_17  and  C_18
REMARK    8  A    between atoms: C_19  and  C_20
REMARK    9  A    between atoms: C_23  and  O_24
REMARK   10  A    between atoms: C_28  and  O_29
REMARK                            x       y       z     vdW  Elec       q    Type
REMARK                         _______ _______ _______ _____ _____    ______ ____
ROOT
ATOM      1  C   UNL     1       0.076  10.098  19.359  0.00  0.00    +0.000 C 
ATOM      2  C   UNL     1       0.835   9.930  20.699  0.00  0.00    +0.000 C 
ATOM      3  C   UNL     1       0.226  10.936  21.673  0.00  0.00    +0.000 C 
ATOM      4  C   UNL     1      -1.132  11.243  21.060  0.00  0.00    +0.000 C 
ATOM      5  C   UNL     1      -1.868  12.477  21.568  0.00  0.00    +0.000 C 
ATOM      6  C   UNL     1      -3.218  12.640  20.795  0.00  0.00    +0.000 C 
ATOM      7  C   UNL     1      -3.110  12.421  19.255  0.00  0.00    +0.000 C 
ATOM      8  C   UNL     1      -2.198  11.254  18.838  0.00  0.00    +0.000 C 
ATOM      9  C   UNL     1      -0.835  11.343  19.546  0.00  0.00    +0.000 C 
ATOM     10  C   UNL     1      -0.149  12.657  19.129  0.00  0.00    +0.000 C 
ATOM     11  C   UNL     1      -3.909  13.993  21.202  0.00  0.00    +0.000 C 
ATOM     12  C   UNL     1      -3.026  15.218  20.827  0.00  0.00    +0.000 C 
ATOM     13  C   UNL     1      -5.264  14.213  20.469  0.00  0.00    +0.000 C 
ATOM     14  C   UNL     1      -6.367  13.261  20.908  0.00  0.00    +0.000 C 
ATOM     15  C   UNL     1      -6.585  13.350  22.414  0.00  0.00    +0.000 C 
ATOM     16  C   UNL     1      -5.295  13.044  23.170  0.00  0.00    +0.000 C 
ATOM     17  C   UNL     1      -4.150  13.988  22.751  0.00  0.00    +0.000 C 
ATOM     18  C   UNL     1      -2.872  13.696  23.565  0.00  0.00    +0.000 C 
ATOM     19  C   UNL     1      -2.054  12.491  23.095  0.00  0.00    +0.000 C 
ENDROOT
BRANCH   1  21
ATOM     20  C   UNL     1       2.227  10.852  18.029  0.00  0.00    +0.000 C 
ATOM     21  C   UNL     1       0.976   9.956  18.099  0.00  0.00    +0.000 C 
BRANCH  21  22
ATOM     22  C   UNL     1       1.478   8.494  17.942  0.00  0.00    +0.000 C 
BRANCH  22  23
ATOM     23  C   UNL     1       2.985   8.324  17.745  0.00  0.00    +0.000 C 
BRANCH  23  24
ATOM     24  C   UNL     1       3.450   6.876  17.879  0.00  0.00    +0.000 C 
BRANCH  24  25
ATOM     25  N   UNL     1       2.271   6.066  18.215  0.00  0.00    +0.000 NA
ATOM     26  C   UNL     1       2.364   4.934  17.949  0.00  0.00    +0.000 C 
ATOM     27  S   UNL     1       2.480   3.385  17.589  0.00  0.00    +0.000 S 
ENDBRANCH  24  25
ENDBRANCH  23  24
ENDBRANCH  22  23
ENDBRANCH  21  22
ENDBRANCH   1  21
BRANCH  15  28
ATOM     28  O   UNL     1      -7.601  12.435  22.805  0.00  0.00    +0.000 OA
ATOM     29  H   UNL     1      -8.143  12.230  22.026  0.00  0.00    +0.000 HD
ENDBRANCH  15  28
BRANCH  19  30
ATOM     30  O   UNL     1      -2.617  11.283  23.594  0.00  0.00    +0.000 OA
ATOM     31  H   UNL     1      -1.996  10.554  23.449  0.00  0.00    +0.000 HD
ENDBRANCH  19  30
TORSDOF 7
ENDMDL
MODEL 9
REMARK VINA RESULT:      -6.2      1.142      1.147
REMARK  Name = 
REMARK  10 active torsions:
REMARK  status: ('A' for Active; 'I' for Inactive)
REMARK    1  A    between atoms: C_1  and  C_2
REMARK    2  A    between atoms: C_2  and  C_3
REMARK    3  A    between atoms: C_2  and  C_9
REMARK    4  A    between atoms: C_3  and  C_4
REMARK    5  A    between atoms: C_4  and  C_5
REMARK    6  A    between atoms: C_5  and  N_6
REMARK    7  A    between atoms: C_17  and  C_18
REMARK    8  A    between atoms: C_19  and  C_20
REMARK    9  A    between atoms: C_23  and  O_24
REMARK   10  A    between atoms: C_28  and  O_29
REMARK                            x       y       z     vdW  Elec       q    Type
REMARK                         _______ _______ _______ _____ _____    ______ ____
ROOT
ATOM      1  C   UNL     1       0.811   8.878  19.254  0.00  0.00    +0.000 C 
ATOM      2  C   UNL     1       1.554   8.655  20.595  0.00  0.00    +0.000 C 
ATOM      3  C   UNL     1       1.089   9.761  21.539  0.00  0.00    +0.000 C 
ATOM      4  C   UNL     1      -0.224  10.222  20.924  0.00  0.00    +0.000 C 
ATOM      5  C   UNL     1      -0.789  11.556  21.397  0.00  0.00    +0.000 C 
ATOM      6  C   UNL     1      -2.114  11.868  20.626  0.00  0.00    +0.000 C 
ATOM      7  C   UNL     1      -2.050  11.589  19.093  0.00  0.00    +0.000 C 
ATOM      8  C   UNL     1      -1.301  10.301  18.709  0.00  0.00    +0.000 C 
ATOM      9  C   UNL     1       0.070  10.236  19.406  0.00  0.00    +0.000 C 
ATOM     10  C   UNL     1       0.915  11.436  18.943  0.00  0.00    +0.000 C 
ATOM     11  C   UNL     1      -2.620  13.311  20.994  0.00  0.00    +0.000 C 
ATOM     12  C   UNL     1      -1.591  14.399  20.574  0.00  0.00    +0.000 C 
ATOM     13  C   UNL     1      -3.943  13.681  20.262  0.00  0.00    +0.000 C 
ATOM     14  C   UNL     1      -5.156  12.894  20.737  0.00  0.00    +0.000 C 
ATOM     15  C   UNL     1      -5.345  13.057  22.240  0.00  0.00    +0.000 C 
ATOM     16  C   UNL     1      -4.099  12.611  22.998  0.00  0.00    +0.000 C 
ATOM     17  C   UNL     1      -2.845  13.385  22.543  0.00  0.00    +0.000 C 
ATOM     18  C   UNL     1      -1.607  12.955  23.359  0.00  0.00    +0.000 C 
ATOM     19  C   UNL     1      -0.956  11.641  22.923  0.00  0.00    +0.000 C 
ENDROOT
BRANCH   1  21
ATOM     20  C   UNL     1       2.803   9.576  17.672  0.00  0.00    +0.000 C 
ATOM     21  C   UNL     1       1.672   8.581  17.994  0.00  0.00    +0.000 C 
BRANCH  21  22
ATOM     22  C   UNL     1       2.339   7.183  18.099  0.00  0.00    +0.000 C 
BRANCH  22  23
ATOM     23  C   UNL     1       3.761   7.078  17.546  0.00  0.00    +0.000 C 
BRANCH  23  24
ATOM     24  C   UNL     1       4.500   5.829  18.018  0.00  0.00    +0.000 C 
BRANCH  24  25
ATOM     25  N   UNL     1       4.173   4.745  17.080  0.00  0.00    +0.000 NA
ATOM     26  C   UNL     1       5.007   4.504  16.302  0.00  0.00    +0.000 C 
ATOM     27  S   UNL     1       6.142   4.165  15.234  0.00  0.00    +0.000 S 
ENDBRANCH  24  25
ENDBRANCH  23  24
ENDBRANCH  22  23
ENDBRANCH  21  22
ENDBRANCH   1  21
BRANCH  15  28
ATOM     28  O   UNL     1      -6.467  12.294  22.666  0.00  0.00    +0.000 OA
ATOM     29  H   UNL     1      -6.279  11.947  23.555  0.00  0.00    +0.000 HD
ENDBRANCH  15  28
BRANCH  19  30
ATOM     30  O   UNL     1      -1.666  10.532  23.464  0.00  0.00    +0.000 OA
ATOM     31  H   UNL     1      -1.125   9.733  23.384  0.00  0.00    +0.000 HD
ENDBRANCH  19  30
TORSDOF 7
ENDMDL
