MODEL 1
REMARK VINA RESULT:      -7.9      0.000      0.000
REMARK  Name = 
REMARK  7 active torsions:
REMARK  status: ('A' for Active; 'I' for Inactive)
REMARK    1  A    between atoms: C_1  and  C_2
REMARK    2  A    between atoms: C_2  and  N_3
REMARK    3  A    between atoms: C_5  and  C_6
REMARK    4  A    between atoms: C_9  and  S_10
REMARK    5  A    between atoms: N_11  and  N_12
REMARK    6  A    between atoms: C_13  and  C_14
REMARK    7  A    between atoms: C_27  and  C_28
REMARK                            x       y       z     vdW  Elec       q    Type
REMARK                         _______ _______ _______ _____ _____    ______ ____
ROOT
ATOM      1  C   UNL     1       4.519   3.233  19.400  0.00  0.00    +0.000 A 
ATOM      2  N   UNL     1       4.758   2.240  20.239  0.00  0.00    +0.000 NA
ATOM      3  N   UNL     1       3.703   2.145  21.112  0.00  0.00    +0.000 NA
ATOM      4  C   UNL     1       2.854   3.091  20.797  0.00  0.00    +0.000 A 
ATOM      5  N   UNL     1       3.294   3.826  19.712  0.00  0.00    +0.000 N 
ENDROOT
BRANCH   1   8
ATOM      6  N   UNL     1       6.944   5.346  17.563  0.00  0.00    +0.000 N 
ATOM      7  C   UNL     1       6.196   4.736  18.556  0.00  0.00    +0.000 A 
ATOM      8  C   UNL     1       5.329   3.735  18.362  0.00  0.00    +0.000 A 
ATOM      9  C   UNL     1       5.208   3.187  16.985  0.00  0.00    +0.000 A 
ATOM     10  O   UNL     1       4.439   2.266  16.728  0.00  0.00    +0.000 OA
ATOM     11  C   UNL     1       5.964   3.857  15.915  0.00  0.00    +0.000 A 
ATOM     12  C   UNL     1       5.780   3.461  14.587  0.00  0.00    +0.000 A 
ATOM     13  C   UNL     1       6.455   4.139  13.584  0.00  0.00    +0.000 A 
ATOM     14  C   UNL     1       7.298   5.183  13.942  0.00  0.00    +0.000 A 
ATOM     15  C   UNL     1       8.087   5.918  12.901  0.00  0.00    +0.000 C 
ATOM     16  N   UNL     1       7.481   5.572  15.230  0.00  0.00    +0.000 NA
ATOM     17  C   UNL     1       6.814   4.926  16.217  0.00  0.00    +0.000 A 
BRANCH   6  19
ATOM     18  C   UNL     1       7.207   7.793  17.568  0.00  0.00    +0.000 C 
ATOM     19  C   UNL     1       7.875   6.449  17.819  0.00  0.00    +0.000 C 
ENDBRANCH   6  19
ENDBRANCH   1   8
BRANCH   4  20
ATOM     20  S   UNL     1       1.359   3.406  21.609  0.00  0.00    +0.000 S 
ATOM     21  H   UNL     1       0.559   3.179  20.557  0.00  0.00    +0.000 HD
ENDBRANCH   4  20
BRANCH   5  22
ATOM     22  N   UNL     1       2.707   5.000  19.293  0.00  0.00    +0.000 NA
ATOM     23  C   UNL     1       3.004   6.101  19.902  0.00  0.00    +0.000 C 
BRANCH  23  24
ATOM     24  C   UNL     1       2.349   7.370  19.499  0.00  0.00    +0.000 A 
ATOM     25  C   UNL     1       1.476   7.981  20.412  0.00  0.00    +0.000 A 
ATOM     26  C   UNL     1       0.840   9.179  20.092  0.00  0.00    +0.000 A 
ATOM     27  C   UNL     1       1.078   9.777  18.857  0.00  0.00    +0.000 A 
ATOM     28 CL   UNL     1       0.308  11.264  18.469  0.00  0.00    +0.000 Cl
ATOM     29  C   UNL     1       1.938   9.180  17.936  0.00  0.00    +0.000 A 
ATOM     30  C   UNL     1       2.571   7.972  18.252  0.00  0.00    +0.000 A 
ATOM     31 CL   UNL     1       3.619   7.299  17.058  0.00  0.00    +0.000 Cl
ENDBRANCH  23  24
ENDBRANCH   5  22
TORSDOF 5
ENDMDL
MODEL 2
REMARK VINA RESULT:      -7.3      4.342      6.720
REMARK  Name = 
REMARK  7 active torsions:
REMARK  status: ('A' for Active; 'I' for Inactive)
REMARK    1  A    between atoms: C_1  and  C_2
REMARK    2  A    between atoms: C_2  and  N_3
REMARK    3  A    between atoms: C_5  and  C_6
REMARK    4  A    between atoms: C_9  and  S_10
REMARK    5  A    between atoms: N_11  and  N_12
REMARK    6  A    between atoms: C_13  and  C_14
REMARK    7  A    between atoms: C_27  and  C_28
REMARK                            x       y       z     vdW  Elec       q    Type
REMARK                         _______ _______ _______ _____ _____    ______ ____
ROOT
ATOM      1  C   UNL     1       0.877   9.212  21.106  0.00  0.00    +0.000 A 
ATOM      2  N   UNL     1       1.192   9.688  22.299  0.00  0.00    +0.000 NA
ATOM      3  N   UNL     1       0.385  10.766  22.563  0.00  0.00    +0.000 NA
ATOM      4  C   UNL     1      -0.389  10.936  21.520  0.00  0.00    +0.000 A 
ATOM      5  N   UNL     1      -0.145   9.982  20.549  0.00  0.00    +0.000 N 
ENDROOT
BRANCH   1   8
ATOM      6  N   UNL     1       2.087   5.814  20.265  0.00  0.00    +0.000 N 
ATOM      7  C   UNL     1       1.448   6.888  20.859  0.00  0.00    +0.000 A 
ATOM      8  C   UNL     1       1.458   8.144  20.393  0.00  0.00    +0.000 A 
ATOM      9  C   UNL     1       2.151   8.393  19.103  0.00  0.00    +0.000 A 
ATOM     10  O   UNL     1       2.199   9.515  18.608  0.00  0.00    +0.000 OA
ATOM     11  C   UNL     1       2.872   7.268  18.486  0.00  0.00    +0.000 A 
ATOM     12  C   UNL     1       3.645   7.487  17.343  0.00  0.00    +0.000 A 
ATOM     13  C   UNL     1       4.365   6.430  16.806  0.00  0.00    +0.000 A 
ATOM     14  C   UNL     1       4.279   5.190  17.424  0.00  0.00    +0.000 A 
ATOM     15  C   UNL     1       5.000   4.004  16.858  0.00  0.00    +0.000 C 
ATOM     16  N   UNL     1       3.529   4.970  18.535  0.00  0.00    +0.000 NA
ATOM     17  C   UNL     1       2.834   6.000  19.076  0.00  0.00    +0.000 A 
BRANCH   6  19
ATOM     18  C   UNL     1       0.811   3.712  20.370  0.00  0.00    +0.000 C 
ATOM     19  C   UNL     1       2.061   4.455  20.816  0.00  0.00    +0.000 C 
ENDBRANCH   6  19
ENDBRANCH   1   8
BRANCH   4  20
ATOM     20  S   UNL     1      -1.581  12.177  21.348  0.00  0.00    +0.000 S 
ATOM     21  H   UNL     1      -0.870  12.965  20.530  0.00  0.00    +0.000 HD
ENDBRANCH   4  20
BRANCH   5  22
ATOM     22  N   UNL     1      -0.666  10.036  19.274  0.00  0.00    +0.000 NA
ATOM     23  C   UNL     1      -1.913  10.340  19.119  0.00  0.00    +0.000 C 
BRANCH  23  24
ATOM     24  C   UNL     1      -2.506  10.357  17.759  0.00  0.00    +0.000 A 
ATOM     25  C   UNL     1      -1.852   9.642  16.744  0.00  0.00    +0.000 A 
ATOM     26  C   UNL     1      -2.369   9.615  15.450  0.00  0.00    +0.000 A 
ATOM     27  C   UNL     1      -3.549  10.298  15.165  0.00  0.00    +0.000 A 
ATOM     28 CL   UNL     1      -4.197  10.248  13.573  0.00  0.00    +0.000 Cl
ATOM     29  C   UNL     1      -4.209  11.017  16.160  0.00  0.00    +0.000 A 
ATOM     30  C   UNL     1      -3.686  11.053  17.459  0.00  0.00    +0.000 A 
ATOM     31 CL   UNL     1      -4.562  11.967  18.632  0.00  0.00    +0.000 Cl
ENDBRANCH  23  24
ENDBRANCH   5  22
TORSDOF 5
ENDMDL
MODEL 3
REMARK VINA RESULT:      -7.3      1.087      1.433
REMARK  Name = 
REMARK  7 active torsions:
REMARK  status: ('A' for Active; 'I' for Inactive)
REMARK    1  A    between atoms: C_1  and  C_2
REMARK    2  A    between atoms: C_2  and  N_3
REMARK    3  A    between atoms: C_5  and  C_6
REMARK    4  A    between atoms: C_9  and  S_10
REMARK    5  A    between atoms: N_11  and  N_12
REMARK    6  A    between atoms: C_13  and  C_14
REMARK    7  A    between atoms: C_27  and  C_28
REMARK                            x       y       z     vdW  Elec       q    Type
REMARK                         _______ _______ _______ _____ _____    ______ ____
ROOT
ATOM      1  C   UNL     1       4.372   3.451  19.048  0.00  0.00    +0.000 A 
ATOM      2  N   UNL     1       4.557   2.428  19.865  0.00  0.00    +0.000 NA
ATOM      3  N   UNL     1       3.499   2.371  20.737  0.00  0.00    +0.000 NA
ATOM      4  C   UNL     1       2.703   3.370  20.446  0.00  0.00    +0.000 A 
ATOM      5  N   UNL     1       3.181   4.103  19.376  0.00  0.00    +0.000 N 
ENDROOT
BRANCH   1   8
ATOM      6  N   UNL     1       6.749   5.593  17.184  0.00  0.00    +0.000 N 
ATOM      7  C   UNL     1       5.987   5.008  18.180  0.00  0.00    +0.000 A 
ATOM      8  C   UNL     1       5.207   3.931  18.019  0.00  0.00    +0.000 A 
ATOM      9  C   UNL     1       5.211   3.271  16.688  0.00  0.00    +0.000 A 
ATOM     10  O   UNL     1       4.527   2.276  16.464  0.00  0.00    +0.000 OA
ATOM     11  C   UNL     1       5.982   3.911  15.610  0.00  0.00    +0.000 A 
ATOM     12  C   UNL     1       5.910   3.400  14.311  0.00  0.00    +0.000 A 
ATOM     13  C   UNL     1       6.596   4.047  13.295  0.00  0.00    +0.000 A 
ATOM     14  C   UNL     1       7.338   5.177  13.614  0.00  0.00    +0.000 A 
ATOM     15  C   UNL     1       8.136   5.887  12.562  0.00  0.00    +0.000 C 
ATOM     16  N   UNL     1       7.413   5.678  14.874  0.00  0.00    +0.000 NA
ATOM     17  C   UNL     1       6.734   5.061  15.872  0.00  0.00    +0.000 A 
BRANCH   6  19
ATOM     18  C   UNL     1       8.142   6.802  18.814  0.00  0.00    +0.000 C 
ATOM     19  C   UNL     1       7.581   6.781  17.399  0.00  0.00    +0.000 C 
ENDBRANCH   6  19
ENDBRANCH   1   8
BRANCH   4  20
ATOM     20  S   UNL     1       1.228   3.747  21.267  0.00  0.00    +0.000 S 
ATOM     21  H   UNL     1       0.470   3.889  20.171  0.00  0.00    +0.000 HD
ENDBRANCH   4  20
BRANCH   5  22
ATOM     22  N   UNL     1       2.659   5.317  18.984  0.00  0.00    +0.000 NA
ATOM     23  C   UNL     1       2.809   6.342  19.757  0.00  0.00    +0.000 C 
BRANCH  23  24
ATOM     24  C   UNL     1       2.214   7.648  19.379  0.00  0.00    +0.000 A 
ATOM     25  C   UNL     1       2.449   8.129  18.082  0.00  0.00    +0.000 A 
ATOM     26  C   UNL     1       1.907   9.345  17.668  0.00  0.00    +0.000 A 
ATOM     27  C   UNL     1       1.120  10.084  18.548  0.00  0.00    +0.000 A 
ATOM     28 CL   UNL     1       0.436  11.574  18.031  0.00  0.00    +0.000 Cl
ATOM     29  C   UNL     1       0.882   9.622  19.842  0.00  0.00    +0.000 A 
ATOM     30  C   UNL     1       1.432   8.406  20.263  0.00  0.00    +0.000 A 
ATOM     31 CL   UNL     1       1.090   7.907  21.879  0.00  0.00    +0.000 Cl
ENDBRANCH  23  24
ENDBRANCH   5  22
TORSDOF 5
ENDMDL
MODEL 4
REMARK VINA RESULT:      -7.2      5.630      8.734
REMARK  Name = 
REMARK  7 active torsions:
REMARK  status: ('A' for Active; 'I' for Inactive)
REMARK    1  A    between atoms: C_1  and  C_2
REMARK    2  A    between atoms: C_2  and  N_3
REMARK    3  A    between atoms: C_5  and  C_6
REMARK    4  A    between atoms: C_9  and  S_10
REMARK    5  A    between atoms: N_11  and  N_12
REMARK    6  A    between atoms: C_13  and  C_14
REMARK    7  A    between atoms: C_27  and  C_28
REMARK                            x       y       z     vdW  Elec       q    Type
REMARK                         _______ _______ _______ _____ _____    ______ ____
ROOT
ATOM      1  C   UNL     1       1.406  12.393  19.171  0.00  0.00    +0.000 A 
ATOM      2  N   UNL     1       2.423  13.067  18.662  0.00  0.00    +0.000 NA
ATOM      3  N   UNL     1       2.012  14.353  18.415  0.00  0.00    +0.000 NA
ATOM      4  C   UNL     1       0.751  14.430  18.761  0.00  0.00    +0.000 A 
ATOM      5  N   UNL     1       0.290  13.226  19.260  0.00  0.00    +0.000 N 
ENDROOT
BRANCH   1   8
ATOM      6  N   UNL     1       0.933   9.344  21.220  0.00  0.00    +0.000 N 
ATOM      7  C   UNL     1       0.928  10.649  20.756  0.00  0.00    +0.000 A 
ATOM      8  C   UNL     1       1.335  11.035  19.540  0.00  0.00    +0.000 A 
ATOM      9  C   UNL     1       1.762   9.976  18.589  0.00  0.00    +0.000 A 
ATOM     10  O   UNL     1       2.144  10.250  17.455  0.00  0.00    +0.000 OA
ATOM     11  C   UNL     1       1.815   8.592  19.086  0.00  0.00    +0.000 A 
ATOM     12  C   UNL     1       2.334   7.584  18.270  0.00  0.00    +0.000 A 
ATOM     13  C   UNL     1       2.431   6.295  18.772  0.00  0.00    +0.000 A 
ATOM     14  C   UNL     1       1.996   6.057  20.069  0.00  0.00    +0.000 A 
ATOM     15  C   UNL     1       2.035   4.673  20.644  0.00  0.00    +0.000 C 
ATOM     16  N   UNL     1       1.490   7.031  20.868  0.00  0.00    +0.000 NA
ATOM     17  C   UNL     1       1.405   8.298  20.391  0.00  0.00    +0.000 A 
BRANCH   6  19
ATOM     18  C   UNL     1      -0.519   9.969  23.107  0.00  0.00    +0.000 C 
ATOM     19  C   UNL     1       0.489   8.966  22.565  0.00  0.00    +0.000 C 
ENDBRANCH   6  19
ENDBRANCH   1   8
BRANCH   4  20
ATOM     20  S   UNL     1      -0.239  15.843  18.633  0.00  0.00    +0.000 S 
ATOM     21  H   UNL     1       0.215  16.244  17.437  0.00  0.00    +0.000 HD
ENDBRANCH   4  20
BRANCH   5  22
ATOM     22  N   UNL     1      -1.039  12.960  19.511  0.00  0.00    +0.000 NA
ATOM     23  C   UNL     1      -1.707  12.251  18.660  0.00  0.00    +0.000 C 
BRANCH  23  24
ATOM     24  C   UNL     1      -3.151  11.992  18.884  0.00  0.00    +0.000 A 
ATOM     25  C   UNL     1      -3.774  12.625  19.970  0.00  0.00    +0.000 A 
ATOM     26  C   UNL     1      -5.130  12.426  20.224  0.00  0.00    +0.000 A 
ATOM     27  C   UNL     1      -5.873  11.596  19.387  0.00  0.00    +0.000 A 
ATOM     28 CL   UNL     1      -7.550  11.366  19.689  0.00  0.00    +0.000 Cl
ATOM     29  C   UNL     1      -5.268  10.956  18.307  0.00  0.00    +0.000 A 
ATOM     30  C   UNL     1      -3.904  11.147  18.056  0.00  0.00    +0.000 A 
ATOM     31 CL   UNL     1      -3.231  10.318  16.700  0.00  0.00    +0.000 Cl
ENDBRANCH  23  24
ENDBRANCH   5  22
TORSDOF 5
ENDMDL
MODEL 5
REMARK VINA RESULT:      -6.9      6.007      9.234
REMARK  Name = 
REMARK  7 active torsions:
REMARK  status: ('A' for Active; 'I' for Inactive)
REMARK    1  A    between atoms: C_1  and  C_2
REMARK    2  A    between atoms: C_2  and  N_3
REMARK    3  A    between atoms: C_5  and  C_6
REMARK    4  A    between atoms: C_9  and  S_10
REMARK    5  A    between atoms: N_11  and  N_12
REMARK    6  A    between atoms: C_13  and  C_14
REMARK    7  A    between atoms: C_27  and  C_28
REMARK                            x       y       z     vdW  Elec       q    Type
REMARK                         _______ _______ _______ _____ _____    ______ ____
ROOT
ATOM      1  C   UNL     1       1.290  12.830  19.411  0.00  0.00    +0.000 A 
ATOM      2  N   UNL     1       2.334  13.593  19.135  0.00  0.00    +0.000 NA
ATOM      3  N   UNL     1       1.885  14.858  18.850  0.00  0.00    +0.000 NA
ATOM      4  C   UNL     1       0.578  14.834  18.941  0.00  0.00    +0.000 A 
ATOM      5  N   UNL     1       0.119  13.582  19.303  0.00  0.00    +0.000 N 
ENDROOT
BRANCH   1   8
ATOM      6  N   UNL     1       0.903   9.681  21.323  0.00  0.00    +0.000 N 
ATOM      7  C   UNL     1       0.867  11.006  20.921  0.00  0.00    +0.000 A 
ATOM      8  C   UNL     1       1.249  11.455  19.718  0.00  0.00    +0.000 A 
ATOM      9  C   UNL     1       1.682  10.449  18.713  0.00  0.00    +0.000 A 
ATOM     10  O   UNL     1       2.042  10.783  17.588  0.00  0.00    +0.000 OA
ATOM     11  C   UNL     1       1.767   9.045  19.145  0.00  0.00    +0.000 A 
ATOM     12  C   UNL     1       2.293   8.086  18.276  0.00  0.00    +0.000 A 
ATOM     13  C   UNL     1       2.421   6.777  18.716  0.00  0.00    +0.000 A 
ATOM     14  C   UNL     1       2.009   6.471  20.007  0.00  0.00    +0.000 A 
ATOM     15  C   UNL     1       2.082   5.063  20.516  0.00  0.00    +0.000 C 
ATOM     16  N   UNL     1       1.497   7.398  20.857  0.00  0.00    +0.000 NA
ATOM     17  C   UNL     1       1.382   8.683  20.441  0.00  0.00    +0.000 A 
BRANCH   6  19
ATOM     18  C   UNL     1      -0.682  10.063  23.167  0.00  0.00    +0.000 C 
ATOM     19  C   UNL     1       0.486   9.233  22.655  0.00  0.00    +0.000 C 
ENDBRANCH   6  19
ENDBRANCH   1   8
BRANCH   4  20
ATOM     20  S   UNL     1      -0.470  16.182  18.661  0.00  0.00    +0.000 S 
ATOM     21  H   UNL     1      -0.439  16.129  17.323  0.00  0.00    +0.000 HD
ENDBRANCH   4  20
BRANCH   5  22
ATOM     22  N   UNL     1      -1.210  13.216  19.276  0.00  0.00    +0.000 NA
ATOM     23  C   UNL     1      -1.903  13.295  20.365  0.00  0.00    +0.000 C 
BRANCH  23  24
ATOM     24  C   UNL     1      -3.322  12.861  20.372  0.00  0.00    +0.000 A 
ATOM     25  C   UNL     1      -3.843  12.289  19.201  0.00  0.00    +0.000 A 
ATOM     26  C   UNL     1      -5.167  11.854  19.153  0.00  0.00    +0.000 A 
ATOM     27  C   UNL     1      -5.975  11.983  20.280  0.00  0.00    +0.000 A 
ATOM     28 CL   UNL     1      -7.602  11.429  20.227  0.00  0.00    +0.000 Cl
ATOM     29  C   UNL     1      -5.474  12.553  21.449  0.00  0.00    +0.000 A 
ATOM     30  C   UNL     1      -4.148  12.999  21.497  0.00  0.00    +0.000 A 
ATOM     31 CL   UNL     1      -3.606  13.694  22.981  0.00  0.00    +0.000 Cl
ENDBRANCH  23  24
ENDBRANCH   5  22
TORSDOF 5
ENDMDL
MODEL 6
REMARK VINA RESULT:      -6.5      5.522      8.497
REMARK  Name = 
REMARK  7 active torsions:
REMARK  status: ('A' for Active; 'I' for Inactive)
REMARK    1  A    between atoms: C_1  and  C_2
REMARK    2  A    between atoms: C_2  and  N_3
REMARK    3  A    between atoms: C_5  and  C_6
REMARK    4  A    between atoms: C_9  and  S_10
REMARK    5  A    between atoms: N_11  and  N_12
REMARK    6  A    between atoms: C_13  and  C_14
REMARK    7  A    between atoms: C_27  and  C_28
REMARK                            x       y       z     vdW  Elec       q    Type
REMARK                         _______ _______ _______ _____ _____    ______ ____
ROOT
ATOM      1  C   UNL     1      -0.703  11.575  21.653  0.00  0.00    +0.000 A 
ATOM      2  N   UNL     1      -0.600  12.137  22.845  0.00  0.00    +0.000 NA
ATOM      3  N   UNL     1      -1.636  13.024  22.998  0.00  0.00    +0.000 NA
ATOM      4  C   UNL     1      -2.337  12.996  21.891  0.00  0.00    +0.000 A 
ATOM      5  N   UNL     1      -1.814  12.093  20.985  0.00  0.00    +0.000 N 
ENDROOT
BRANCH   1   8
ATOM      6  N   UNL     1       1.582  10.016  19.191  0.00  0.00    +0.000 N 
ATOM      7  C   UNL     1       0.813  10.918  19.906  0.00  0.00    +0.000 A 
ATOM      8  C   UNL     1       0.149  10.638  21.035  0.00  0.00    +0.000 A 
ATOM      9  C   UNL     1       0.302   9.274  21.602  0.00  0.00    +0.000 A 
ATOM     10  O   UNL     1      -0.271   8.943  22.636  0.00  0.00    +0.000 OA
ATOM     11  C   UNL     1       1.079   8.294  20.827  0.00  0.00    +0.000 A 
ATOM     12  C   UNL     1       1.140   6.965  21.255  0.00  0.00    +0.000 A 
ATOM     13  C   UNL     1       1.827   6.041  20.484  0.00  0.00    +0.000 A 
ATOM     14  C   UNL     1       2.439   6.478  19.316  0.00  0.00    +0.000 A 
ATOM     15  C   UNL     1       3.235   5.530  18.471  0.00  0.00    +0.000 C 
ATOM     16  N   UNL     1       2.385   7.768  18.895  0.00  0.00    +0.000 NA
ATOM     17  C   UNL     1       1.702   8.676  19.634  0.00  0.00    +0.000 A 
BRANCH   6  19
ATOM     18  C   UNL     1       2.548  11.857  17.874  0.00  0.00    +0.000 C 
ATOM     19  C   UNL     1       2.284  10.361  17.951  0.00  0.00    +0.000 C 
ENDBRANCH   6  19
ENDBRANCH   1   8
BRANCH   4  20
ATOM     20  S   UNL     1      -3.745  13.949  21.573  0.00  0.00    +0.000 S 
ATOM     21  H   UNL     1      -3.103  15.027  21.105  0.00  0.00    +0.000 HD
ENDBRANCH   4  20
BRANCH   5  22
ATOM     22  N   UNL     1      -2.223  12.002  19.672  0.00  0.00    +0.000 NA
ATOM     23  C   UNL     1      -2.584  10.851  19.207  0.00  0.00    +0.000 C 
BRANCH  23  24
ATOM     24  C   UNL     1      -2.982  10.719  17.783  0.00  0.00    +0.000 A 
ATOM     25  C   UNL     1      -2.145   9.985  16.930  0.00  0.00    +0.000 A 
ATOM     26  C   UNL     1      -2.473   9.821  15.584  0.00  0.00    +0.000 A 
ATOM     27  C   UNL     1      -3.646  10.385  15.087  0.00  0.00    +0.000 A 
ATOM     28 CL   UNL     1      -4.060  10.165  13.433  0.00  0.00    +0.000 Cl
ATOM     29  C   UNL     1      -4.485  11.121  15.921  0.00  0.00    +0.000 A 
ATOM     30  C   UNL     1      -4.153  11.296  17.270  0.00  0.00    +0.000 A 
ATOM     31 CL   UNL     1      -5.245  12.221  18.234  0.00  0.00    +0.000 Cl
ENDBRANCH  23  24
ENDBRANCH   5  22
TORSDOF 5
ENDMDL
MODEL 7
REMARK VINA RESULT:      -6.5      7.112     10.309
REMARK  Name = 
REMARK  7 active torsions:
REMARK  status: ('A' for Active; 'I' for Inactive)
REMARK    1  A    between atoms: C_1  and  C_2
REMARK    2  A    between atoms: C_2  and  N_3
REMARK    3  A    between atoms: C_5  and  C_6
REMARK    4  A    between atoms: C_9  and  S_10
REMARK    5  A    between atoms: N_11  and  N_12
REMARK    6  A    between atoms: C_13  and  C_14
REMARK    7  A    between atoms: C_27  and  C_28
REMARK                            x       y       z     vdW  Elec       q    Type
REMARK                         _______ _______ _______ _____ _____    ______ ____
ROOT
ATOM      1  C   UNL     1      -2.211  12.425  22.892  0.00  0.00    +0.000 A 
ATOM      2  N   UNL     1      -3.369  12.026  23.389  0.00  0.00    +0.000 NA
ATOM      3  N   UNL     1      -3.780  12.944  24.323  0.00  0.00    +0.000 NA
ATOM      4  C   UNL     1      -2.857  13.871  24.387  0.00  0.00    +0.000 A 
ATOM      5  N   UNL     1      -1.826  13.621  23.502  0.00  0.00    +0.000 N 
ENDROOT
BRANCH   1   8
ATOM      6  N   UNL     1      -0.736  11.439  19.640  0.00  0.00    +0.000 N 
ATOM      7  C   UNL     1      -1.440  12.092  20.638  0.00  0.00    +0.000 A 
ATOM      8  C   UNL     1      -1.385  11.792  21.942  0.00  0.00    +0.000 A 
ATOM      9  C   UNL     1      -0.445  10.719  22.361  0.00  0.00    +0.000 A 
ATOM     10  O   UNL     1      -0.335  10.390  23.539  0.00  0.00    +0.000 OA
ATOM     11  C   UNL     1       0.273   9.988  21.305  0.00  0.00    +0.000 A 
ATOM     12  C   UNL     1       1.065   8.888  21.643  0.00  0.00    +0.000 A 
ATOM     13  C   UNL     1       1.690   8.173  20.632  0.00  0.00    +0.000 A 
ATOM     14  C   UNL     1       1.509   8.590  19.320  0.00  0.00    +0.000 A 
ATOM     15  C   UNL     1       2.200   7.882  18.193  0.00  0.00    +0.000 C 
ATOM     16  N   UNL     1       0.742   9.659  18.984  0.00  0.00    +0.000 NA
ATOM     17  C   UNL     1       0.114  10.354  19.964  0.00  0.00    +0.000 A 
BRANCH   6  19
ATOM     18  C   UNL     1      -2.256  11.608  17.712  0.00  0.00    +0.000 C 
ATOM     19  C   UNL     1      -0.835  11.793  18.221  0.00  0.00    +0.000 C 
ENDBRANCH   6  19
ENDBRANCH   1   8
BRANCH   4  20
ATOM     20  S   UNL     1      -2.895  15.252  25.429  0.00  0.00    +0.000 S 
ATOM     21  H   UNL     1      -4.138  15.647  25.120  0.00  0.00    +0.000 HD
ENDBRANCH   4  20
BRANCH   5  22
ATOM     22  N   UNL     1      -0.635  14.314  23.497  0.00  0.00    +0.000 NA
ATOM     23  C   UNL     1      -0.390  15.131  22.526  0.00  0.00    +0.000 C 
BRANCH  23  24
ATOM     24  C   UNL     1       0.906  15.852  22.474  0.00  0.00    +0.000 A 
ATOM     25  C   UNL     1       0.989  17.107  23.094  0.00  0.00    +0.000 A 
ATOM     26  C   UNL     1       2.184  17.826  23.086  0.00  0.00    +0.000 A 
ATOM     27  C   UNL     1       3.307  17.287  22.461  0.00  0.00    +0.000 A 
ATOM     28 CL   UNL     1       4.785  18.165  22.467  0.00  0.00    +0.000 Cl
ATOM     29  C   UNL     1       3.240  16.044  21.835  0.00  0.00    +0.000 A 
ATOM     30  C   UNL     1       2.038  15.325  21.835  0.00  0.00    +0.000 A 
ATOM     31 CL   UNL     1       2.039  13.794  21.037  0.00  0.00    +0.000 Cl
ENDBRANCH  23  24
ENDBRANCH   5  22
TORSDOF 5
ENDMDL
MODEL 8
REMARK VINA RESULT:      -6.4      6.426      9.594
REMARK  Name = 
REMARK  7 active torsions:
REMARK  status: ('A' for Active; 'I' for Inactive)
REMARK    1  A    between atoms: C_1  and  C_2
REMARK    2  A    between atoms: C_2  and  N_3
REMARK    3  A    between atoms: C_5  and  C_6
REMARK    4  A    between atoms: C_9  and  S_10
REMARK    5  A    between atoms: N_11  and  N_12
REMARK    6  A    between atoms: C_13  and  C_14
REMARK    7  A    between atoms: C_27  and  C_28
REMARK                            x       y       z     vdW  Elec       q    Type
REMARK                         _______ _______ _______ _____ _____    ______ ____
ROOT
ATOM      1  C   UNL     1      -1.952  12.801  20.558  0.00  0.00    +0.000 A 
ATOM      2  N   UNL     1      -3.232  12.874  20.881  0.00  0.00    +0.000 NA
ATOM      3  N   UNL     1      -3.582  14.198  20.971  0.00  0.00    +0.000 NA
ATOM      4  C   UNL     1      -2.506  14.901  20.719  0.00  0.00    +0.000 A 
ATOM      5  N   UNL     1      -1.424  14.088  20.438  0.00  0.00    +0.000 N 
ENDROOT
BRANCH   1   8
ATOM      6  N   UNL     1       0.272   9.947  21.351  0.00  0.00    +0.000 N 
ATOM      7  C   UNL     1      -0.615  11.006  21.440  0.00  0.00    +0.000 A 
ATOM      8  C   UNL     1      -1.140  11.661  20.395  0.00  0.00    +0.000 A 
ATOM      9  C   UNL     1      -0.797  11.171  19.035  0.00  0.00    +0.000 A 
ATOM     10  O   UNL     1      -1.242  11.715  18.028  0.00  0.00    +0.000 OA
ATOM     11  C   UNL     1       0.180  10.076  18.928  0.00  0.00    +0.000 A 
ATOM     12  C   UNL     1       0.630   9.672  17.668  0.00  0.00    +0.000 A 
ATOM     13  C   UNL     1       1.594   8.679  17.585  0.00  0.00    +0.000 A 
ATOM     14  C   UNL     1       2.067   8.117  18.764  0.00  0.00    +0.000 A 
ATOM     15  C   UNL     1       3.074   7.007  18.729  0.00  0.00    +0.000 C 
ATOM     16  N   UNL     1       1.633   8.504  19.992  0.00  0.00    +0.000 NA
ATOM     17  C   UNL     1       0.702   9.485  20.083  0.00  0.00    +0.000 A 
BRANCH   6  19
ATOM     18  C   UNL     1      -0.067   9.443  23.736  0.00  0.00    +0.000 C 
ATOM     19  C   UNL     1       0.833   9.266  22.522  0.00  0.00    +0.000 C 
ENDBRANCH   6  19
ENDBRANCH   1   8
BRANCH   4  20
ATOM     20  S   UNL     1      -2.415  16.629  20.721  0.00  0.00    +0.000 S 
ATOM     21  H   UNL     1      -1.376  16.730  21.560  0.00  0.00    +0.000 HD
ENDBRANCH   4  20
BRANCH   5  22
ATOM     22  N   UNL     1      -0.128  14.544  20.336  0.00  0.00    +0.000 NA
ATOM     23  C   UNL     1       0.380  14.729  19.161  0.00  0.00    +0.000 C 
BRANCH  23  24
ATOM     24  C   UNL     1       1.789  15.174  19.026  0.00  0.00    +0.000 A 
ATOM     25  C   UNL     1       2.106  16.486  19.407  0.00  0.00    +0.000 A 
ATOM     26  C   UNL     1       3.416  16.956  19.311  0.00  0.00    +0.000 A 
ATOM     27  C   UNL     1       4.418  16.111  18.839  0.00  0.00    +0.000 A 
ATOM     28 CL   UNL     1       6.035  16.684  18.739  0.00  0.00    +0.000 Cl
ATOM     29  C   UNL     1       4.118  14.806  18.451  0.00  0.00    +0.000 A 
ATOM     30  C   UNL     1       2.802  14.336  18.538  0.00  0.00    +0.000 A 
ATOM     31 CL   UNL     1       2.515  12.709  18.037  0.00  0.00    +0.000 Cl
ENDBRANCH  23  24
ENDBRANCH   5  22
TORSDOF 5
ENDMDL
MODEL 9
REMARK VINA RESULT:      -6.3      7.276     10.509
REMARK  Name = 
REMARK  7 active torsions:
REMARK  status: ('A' for Active; 'I' for Inactive)
REMARK    1  A    between atoms: C_1  and  C_2
REMARK    2  A    between atoms: C_2  and  N_3
REMARK    3  A    between atoms: C_5  and  C_6
REMARK    4  A    between atoms: C_9  and  S_10
REMARK    5  A    between atoms: N_11  and  N_12
REMARK    6  A    between atoms: C_13  and  C_14
REMARK    7  A    between atoms: C_27  and  C_28
REMARK                            x       y       z     vdW  Elec       q    Type
REMARK                         _______ _______ _______ _____ _____    ______ ____
ROOT
ATOM      1  C   UNL     1      -2.181  12.389  22.967  0.00  0.00    +0.000 A 
ATOM      2  N   UNL     1      -3.326  11.960  23.470  0.00  0.00    +0.000 NA
ATOM      3  N   UNL     1      -3.769  12.879  24.389  0.00  0.00    +0.000 NA
ATOM      4  C   UNL     1      -2.876  13.836  24.440  0.00  0.00    +0.000 A 
ATOM      5  N   UNL     1      -1.836  13.605  23.560  0.00  0.00    +0.000 N 
ENDROOT
BRANCH   1   8
ATOM      6  N   UNL     1      -0.564  11.521  19.750  0.00  0.00    +0.000 N 
ATOM      7  C   UNL     1      -1.292  12.151  20.745  0.00  0.00    +0.000 A 
ATOM      8  C   UNL     1      -1.334  11.768  22.028  0.00  0.00    +0.000 A 
ATOM      9  C   UNL     1      -0.482  10.619  22.431  0.00  0.00    +0.000 A 
ATOM     10  O   UNL     1      -0.462  10.212  23.589  0.00  0.00    +0.000 OA
ATOM     11  C   UNL     1       0.259   9.914  21.374  0.00  0.00    +0.000 A 
ATOM     12  C   UNL     1       0.968   8.750  21.685  0.00  0.00    +0.000 A 
ATOM     13  C   UNL     1       1.614   8.064  20.668  0.00  0.00    +0.000 A 
ATOM     14  C   UNL     1       1.538   8.571  19.377  0.00  0.00    +0.000 A 
ATOM     15  C   UNL     1       2.257   7.894  18.249  0.00  0.00    +0.000 C 
ATOM     16  N   UNL     1       0.852   9.701  19.067  0.00  0.00    +0.000 NA
ATOM     17  C   UNL     1       0.204  10.370  20.052  0.00  0.00    +0.000 A 
BRANCH   6  19
ATOM     18  C   UNL     1      -0.285  13.461  18.262  0.00  0.00    +0.000 C 
ATOM     19  C   UNL     1      -0.555  11.967  18.354  0.00  0.00    +0.000 C 
ENDBRANCH   6  19
ENDBRANCH   1   8
BRANCH   4  20
ATOM     20  S   UNL     1      -2.960  15.230  25.461  0.00  0.00    +0.000 S 
ATOM     21  H   UNL     1      -1.676  15.594  25.335  0.00  0.00    +0.000 HD
ENDBRANCH   4  20
BRANCH   5  22
ATOM     22  N   UNL     1      -0.667  14.336  23.546  0.00  0.00    +0.000 NA
ATOM     23  C   UNL     1      -0.509  15.246  22.641  0.00  0.00    +0.000 C 
BRANCH  23  24
ATOM     24  C   UNL     1       0.761  16.012  22.576  0.00  0.00    +0.000 A 
ATOM     25  C   UNL     1       1.764  15.555  21.709  0.00  0.00    +0.000 A 
ATOM     26  C   UNL     1       2.973  16.240  21.600  0.00  0.00    +0.000 A 
ATOM     27  C   UNL     1       3.183  17.392  22.355  0.00  0.00    +0.000 A 
ATOM     28 CL   UNL     1       4.667  18.247  22.206  0.00  0.00    +0.000 Cl
ATOM     29  C   UNL     1       2.199  17.855  23.226  0.00  0.00    +0.000 A 
ATOM     30  C   UNL     1       0.987  17.164  23.343  0.00  0.00    +0.000 A 
ATOM     31 CL   UNL     1      -0.178  17.804  24.444  0.00  0.00    +0.000 Cl
ENDBRANCH  23  24
ENDBRANCH   5  22
TORSDOF 5
ENDMDL
