MODEL 1
REMARK VINA RESULT:      -7.0      0.000      0.000
REMARK  Name = 
REMARK  9 active torsions:
REMARK  status: ('A' for Active; 'I' for Inactive)
REMARK    1  A    between atoms: C_1  and  N_2
REMARK    2  A    between atoms: N_2  and  C_3
REMARK    3  A    between atoms: N_2  and  C_4
REMARK    4  A    between atoms: C_4  and  C_5
REMARK    5  A    between atoms: C_5  and  C_6
REMARK    6  A    between atoms: C_6  and  N_7
REMARK    7  A    between atoms: C_8  and  C_10
REMARK    8  A    between atoms: C_13  and  N_14
REMARK    9  A    between atoms: C_15  and  C_17
REMARK                            x       y       z     vdW  Elec       q    Type
REMARK                         _______ _______ _______ _____ _____    ______ ____
ROOT
ATOM      1  C   UNL     1       2.661   7.513  18.489  0.00  0.00    +0.000 A 
ATOM      2  C   UNL     1       2.267   8.590  17.694  0.00  0.00    +0.000 A 
ATOM      3  C   UNL     1       1.404   9.566  18.203  0.00  0.00    +0.000 A 
ATOM      4  C   UNL     1       0.897   9.485  19.503  0.00  0.00    +0.000 A 
ATOM      5  C   UNL     1       1.315   8.417  20.309  0.00  0.00    +0.000 A 
ATOM      6  C   UNL     1       2.177   7.428  19.800  0.00  0.00    +0.000 A 
ENDROOT
BRANCH   1   8
ATOM      7  N   UNL     1       2.969   5.203  17.781  0.00  0.00    +0.000 N 
ATOM      8  C   UNL     1       3.549   6.445  17.946  0.00  0.00    +0.000 C 
ATOM      9  O   UNL     1       4.715   6.699  17.665  0.00  0.00    +0.000 OA
ATOM     10  H   UNL     1       1.978   5.081  17.938  0.00  0.00    +0.000 HD
BRANCH   7  11
ATOM     11  C   UNL     1       3.694   4.045  17.292  0.00  0.00    +0.000 C 
BRANCH  11  12
ATOM     12  C   UNL     1       3.498   2.805  18.164  0.00  0.00    +0.000 C 
BRANCH  12  13
ATOM     13  C   UNL     1       3.106   3.105  19.621  0.00  0.00    +0.000 C 
BRANCH  13  15
ATOM     14  C   UNL     1       0.865   2.426  18.939  0.00  0.00    +0.000 C 
ATOM     15  N   UNL     1       1.657   3.240  19.865  0.00  0.00    +0.000 NA
ATOM     16  C   UNL     1       1.344   2.844  21.244  0.00  0.00    +0.000 C 
ENDBRANCH  13  15
ENDBRANCH  12  13
ENDBRANCH  11  12
ENDBRANCH   7  11
ENDBRANCH   1   8
BRANCH   4  17
ATOM     17  N   UNL     1      -0.023  10.424  20.033  0.00  0.00    +0.000 N 
ATOM     18  C   UNL     1       0.285  11.490  20.885  0.00  0.00    +0.000 C 
ATOM     19  O   UNL     1       1.431  11.741  21.244  0.00  0.00    +0.000 OA
ATOM     20  H   UNL     1      -0.972  10.383  19.687  0.00  0.00    +0.000 HD
BRANCH  18  21
ATOM     21  C   UNL     1      -0.836  12.342  21.289  0.00  0.00    +0.000 A 
ATOM     22  S   UNL     1      -1.812  11.957  22.641  0.00  0.00    +0.000 S 
ATOM     23  C   UNL     1      -2.845  13.312  22.406  0.00  0.00    +0.000 A 
ATOM     24  C   UNL     1      -3.960  13.667  23.192  0.00  0.00    +0.000 A 
ATOM     25  C   UNL     1      -4.719  14.777  22.818  0.00  0.00    +0.000 A 
ATOM     26 BR   UNL     1      -6.226  15.260  23.854  0.00  0.00    +0.000 Br
ATOM     27  C   UNL     1      -4.387  15.527  21.700  0.00  0.00    +0.000 A 
ATOM     28  C   UNL     1      -3.257  15.190  20.949  0.00  0.00    +0.000 A 
ATOM     29  C   UNL     1      -2.457  14.067  21.298  0.00  0.00    +0.000 A 
ATOM     30  C   UNL     1      -1.256  13.528  20.707  0.00  0.00    +0.000 A 
ATOM     31 CL   UNL     1      -0.499  14.328  19.381  0.00  0.00    +0.000 Cl
ENDBRANCH  18  21
ENDBRANCH   4  17
TORSDOF 7
ENDMDL
MODEL 2
REMARK VINA RESULT:      -6.9      1.520      1.537
REMARK  Name = 
REMARK  9 active torsions:
REMARK  status: ('A' for Active; 'I' for Inactive)
REMARK    1  A    between atoms: C_1  and  N_2
REMARK    2  A    between atoms: N_2  and  C_3
REMARK    3  A    between atoms: N_2  and  C_4
REMARK    4  A    between atoms: C_4  and  C_5
REMARK    5  A    between atoms: C_5  and  C_6
REMARK    6  A    between atoms: C_6  and  N_7
REMARK    7  A    between atoms: C_8  and  C_10
REMARK    8  A    between atoms: C_13  and  N_14
REMARK    9  A    between atoms: C_15  and  C_17
REMARK                            x       y       z     vdW  Elec       q    Type
REMARK                         _______ _______ _______ _____ _____    ______ ____
ROOT
ATOM      1  C   UNL     1       2.893   7.104  18.513  0.00  0.00    +0.000 A 
ATOM      2  C   UNL     1       2.610   8.215  17.718  0.00  0.00    +0.000 A 
ATOM      3  C   UNL     1       1.798   9.244  18.205  0.00  0.00    +0.000 A 
ATOM      4  C   UNL     1       1.234   9.185  19.482  0.00  0.00    +0.000 A 
ATOM      5  C   UNL     1       1.541   8.082  20.290  0.00  0.00    +0.000 A 
ATOM      6  C   UNL     1       2.351   7.038  19.801  0.00  0.00    +0.000 A 
ENDROOT
BRANCH   1   8
ATOM      7  N   UNL     1       3.038   4.842  17.620  0.00  0.00    +0.000 N 
ATOM      8  C   UNL     1       3.724   5.981  17.990  0.00  0.00    +0.000 C 
ATOM      9  O   UNL     1       4.941   6.107  17.901  0.00  0.00    +0.000 OA
ATOM     10  H   UNL     1       2.027   4.835  17.625  0.00  0.00    +0.000 HD
BRANCH   7  11
ATOM     11  C   UNL     1       3.691   3.647  17.120  0.00  0.00    +0.000 C 
BRANCH  11  12
ATOM     12  C   UNL     1       3.358   2.398  17.936  0.00  0.00    +0.000 C 
BRANCH  12  13
ATOM     13  C   UNL     1       3.063   2.666  19.422  0.00  0.00    +0.000 C 
BRANCH  13  15
ATOM     14  C   UNL     1       0.706   2.308  18.906  0.00  0.00    +0.000 C 
ATOM     15  N   UNL     1       1.671   3.047  19.726  0.00  0.00    +0.000 NA
ATOM     16  C   UNL     1       1.384   2.802  21.145  0.00  0.00    +0.000 C 
ENDBRANCH  13  15
ENDBRANCH  12  13
ENDBRANCH  11  12
ENDBRANCH   7  11
ENDBRANCH   1   8
BRANCH   4  17
ATOM     17  N   UNL     1       0.361  10.182  19.989  0.00  0.00    +0.000 N 
ATOM     18  C   UNL     1      -0.780  10.679  19.353  0.00  0.00    +0.000 C 
ATOM     19  O   UNL     1      -1.167  10.263  18.266  0.00  0.00    +0.000 OA
ATOM     20  H   UNL     1       0.520  10.491  20.939  0.00  0.00    +0.000 HD
BRANCH  18  21
ATOM     21  C   UNL     1      -1.537  11.699  20.083  0.00  0.00    +0.000 A 
ATOM     22  S   UNL     1      -0.908  12.448  21.487  0.00  0.00    +0.000 S 
ATOM     23  C   UNL     1      -2.326  13.388  21.741  0.00  0.00    +0.000 A 
ATOM     24  C   UNL     1      -2.552  14.305  22.788  0.00  0.00    +0.000 A 
ATOM     25  C   UNL     1      -3.791  14.941  22.867  0.00  0.00    +0.000 A 
ATOM     26 BR   UNL     1      -4.116  16.166  24.272  0.00  0.00    +0.000 Br
ATOM     27  C   UNL     1      -4.786  14.688  21.935  0.00  0.00    +0.000 A 
ATOM     28  C   UNL     1      -4.539  13.806  20.879  0.00  0.00    +0.000 A 
ATOM     29  C   UNL     1      -3.289  13.139  20.763  0.00  0.00    +0.000 A 
ATOM     30  C   UNL     1      -2.789  12.210  19.777  0.00  0.00    +0.000 A 
ATOM     31 CL   UNL     1      -3.738  11.805  18.397  0.00  0.00    +0.000 Cl
ENDBRANCH  18  21
ENDBRANCH   4  17
TORSDOF 7
ENDMDL
MODEL 3
REMARK VINA RESULT:      -6.9      2.632      3.751
REMARK  Name = 
REMARK  9 active torsions:
REMARK  status: ('A' for Active; 'I' for Inactive)
REMARK    1  A    between atoms: C_1  and  N_2
REMARK    2  A    between atoms: N_2  and  C_3
REMARK    3  A    between atoms: N_2  and  C_4
REMARK    4  A    between atoms: C_4  and  C_5
REMARK    5  A    between atoms: C_5  and  C_6
REMARK    6  A    between atoms: C_6  and  N_7
REMARK    7  A    between atoms: C_8  and  C_10
REMARK    8  A    between atoms: C_13  and  N_14
REMARK    9  A    between atoms: C_15  and  C_17
REMARK                            x       y       z     vdW  Elec       q    Type
REMARK                         _______ _______ _______ _____ _____    ______ ____
ROOT
ATOM      1  C   UNL     1       2.602   6.181  19.079  0.00  0.00    +0.000 A 
ATOM      2  C   UNL     1       1.996   6.223  20.335  0.00  0.00    +0.000 A 
ATOM      3  C   UNL     1       1.423   7.409  20.804  0.00  0.00    +0.000 A 
ATOM      4  C   UNL     1       1.455   8.584  20.048  0.00  0.00    +0.000 A 
ATOM      5  C   UNL     1       2.041   8.534  18.775  0.00  0.00    +0.000 A 
ATOM      6  C   UNL     1       2.627   7.345  18.301  0.00  0.00    +0.000 A 
ENDROOT
BRANCH   1   8
ATOM      7  N   UNL     1       3.665   4.948  17.267  0.00  0.00    +0.000 N 
ATOM      8  C   UNL     1       3.253   4.933  18.584  0.00  0.00    +0.000 C 
ATOM      9  O   UNL     1       3.402   3.978  19.338  0.00  0.00    +0.000 OA
ATOM     10  H   UNL     1       3.603   5.799  16.726  0.00  0.00    +0.000 HD
BRANCH   7  11
ATOM     11  C   UNL     1       4.289   3.811  16.616  0.00  0.00    +0.000 C 
BRANCH  11  12
ATOM     12  C   UNL     1       5.629   4.156  15.967  0.00  0.00    +0.000 C 
BRANCH  12  13
ATOM     13  C   UNL     1       6.067   5.619  16.143  0.00  0.00    +0.000 C 
BRANCH  13  15
ATOM     14  C   UNL     1       7.430   7.070  17.554  0.00  0.00    +0.000 C 
ATOM     15  N   UNL     1       7.369   5.808  16.811  0.00  0.00    +0.000 NA
ATOM     16  C   UNL     1       7.624   4.693  17.733  0.00  0.00    +0.000 C 
ENDBRANCH  13  15
ENDBRANCH  12  13
ENDBRANCH  11  12
ENDBRANCH   7  11
ENDBRANCH   1   8
BRANCH   4  17
ATOM     17  N   UNL     1       0.935   9.818  20.514  0.00  0.00    +0.000 N 
ATOM     18  C   UNL     1      -0.235  10.439  20.069  0.00  0.00    +0.000 C 
ATOM     19  O   UNL     1      -0.968   9.942  19.220  0.00  0.00    +0.000 OA
ATOM     20  H   UNL     1       1.395  10.239  21.310  0.00  0.00    +0.000 HD
BRANCH  18  21
ATOM     21  C   UNL     1      -0.583  11.707  20.716  0.00  0.00    +0.000 A 
ATOM     22  S   UNL     1      -0.607  13.180  19.845  0.00  0.00    +0.000 S 
ATOM     23  C   UNL     1      -1.013  14.110  21.233  0.00  0.00    +0.000 A 
ATOM     24  C   UNL     1      -1.209  15.505  21.286  0.00  0.00    +0.000 A 
ATOM     25  C   UNL     1      -1.481  16.099  22.518  0.00  0.00    +0.000 A 
ATOM     26 BR   UNL     1      -1.733  17.972  22.608  0.00  0.00    +0.000 Br
ATOM     27  C   UNL     1      -1.566  15.340  23.675  0.00  0.00    +0.000 A 
ATOM     28  C   UNL     1      -1.410  13.952  23.607  0.00  0.00    +0.000 A 
ATOM     29  C   UNL     1      -1.132  13.309  22.370  0.00  0.00    +0.000 A 
ATOM     30  C   UNL     1      -0.946  11.917  22.037  0.00  0.00    +0.000 A 
ATOM     31 CL   UNL     1      -1.141  10.697  23.239  0.00  0.00    +0.000 Cl
ENDBRANCH  18  21
ENDBRANCH   4  17
TORSDOF 7
ENDMDL
MODEL 4
REMARK VINA RESULT:      -6.9      1.135      1.556
REMARK  Name = 
REMARK  9 active torsions:
REMARK  status: ('A' for Active; 'I' for Inactive)
REMARK    1  A    between atoms: C_1  and  N_2
REMARK    2  A    between atoms: N_2  and  C_3
REMARK    3  A    between atoms: N_2  and  C_4
REMARK    4  A    between atoms: C_4  and  C_5
REMARK    5  A    between atoms: C_5  and  C_6
REMARK    6  A    between atoms: C_6  and  N_7
REMARK    7  A    between atoms: C_8  and  C_10
REMARK    8  A    between atoms: C_13  and  N_14
REMARK    9  A    between atoms: C_15  and  C_17
REMARK                            x       y       z     vdW  Elec       q    Type
REMARK                         _______ _______ _______ _____ _____    ______ ____
ROOT
ATOM      1  C   UNL     1       2.729   7.137  18.431  0.00  0.00    +0.000 A 
ATOM      2  C   UNL     1       2.283   6.984  19.744  0.00  0.00    +0.000 A 
ATOM      3  C   UNL     1       1.518   7.986  20.351  0.00  0.00    +0.000 A 
ATOM      4  C   UNL     1       1.195   9.167  19.678  0.00  0.00    +0.000 A 
ATOM      5  C   UNL     1       1.621   9.306  18.350  0.00  0.00    +0.000 A 
ATOM      6  C   UNL     1       2.398   8.306  17.736  0.00  0.00    +0.000 A 
ENDROOT
BRANCH   1   8
ATOM      7  N   UNL     1       3.029   4.832  17.701  0.00  0.00    +0.000 N 
ATOM      8  C   UNL     1       3.579   6.095  17.785  0.00  0.00    +0.000 C 
ATOM      9  O   UNL     1       4.691   6.388  17.358  0.00  0.00    +0.000 OA
ATOM     10  H   UNL     1       2.071   4.677  17.982  0.00  0.00    +0.000 HD
BRANCH   7  11
ATOM     11  C   UNL     1       3.728   3.696  17.130  0.00  0.00    +0.000 C 
BRANCH  11  12
ATOM     12  C   UNL     1       3.359   2.371  17.797  0.00  0.00    +0.000 C 
BRANCH  12  13
ATOM     13  C   UNL     1       2.145   2.446  18.738  0.00  0.00    +0.000 C 
BRANCH  13  15
ATOM     14  C   UNL     1       1.221   3.075  20.906  0.00  0.00    +0.000 C 
ATOM     15  N   UNL     1       2.389   3.130  20.022  0.00  0.00    +0.000 NA
ATOM     16  C   UNL     1       3.538   2.520  20.703  0.00  0.00    +0.000 C 
ENDBRANCH  13  15
ENDBRANCH  12  13
ENDBRANCH  11  12
ENDBRANCH   7  11
ENDBRANCH   1   8
BRANCH   4  17
ATOM     17  N   UNL     1       0.470  10.226  20.280  0.00  0.00    +0.000 N 
ATOM     18  C   UNL     1       0.544  10.619  21.619  0.00  0.00    +0.000 C 
ATOM     19  O   UNL     1       1.295  10.082  22.427  0.00  0.00    +0.000 OA
ATOM     20  H   UNL     1      -0.075  10.816  19.665  0.00  0.00    +0.000 HD
BRANCH  18  21
ATOM     21  C   UNL     1      -0.290  11.759  22.008  0.00  0.00    +0.000 A 
ATOM     22  S   UNL     1      -1.678  11.560  22.989  0.00  0.00    +0.000 S 
ATOM     23  C   UNL     1      -2.084  13.231  22.926  0.00  0.00    +0.000 A 
ATOM     24  C   UNL     1      -3.188  13.853  23.543  0.00  0.00    +0.000 A 
ATOM     25  C   UNL     1      -3.390  15.218  23.337  0.00  0.00    +0.000 A 
ATOM     26 BR   UNL     1      -4.874  16.067  24.148  0.00  0.00    +0.000 Br
ATOM     27  C   UNL     1      -2.524  15.959  22.548  0.00  0.00    +0.000 A 
ATOM     28  C   UNL     1      -1.410  15.341  21.972  0.00  0.00    +0.000 A 
ATOM     29  C   UNL     1      -1.168  13.952  22.158  0.00  0.00    +0.000 A 
ATOM     30  C   UNL     1      -0.104  13.096  21.692  0.00  0.00    +0.000 A 
ATOM     31 CL   UNL     1       1.220  13.751  20.804  0.00  0.00    +0.000 Cl
ENDBRANCH  18  21
ENDBRANCH   4  17
TORSDOF 7
ENDMDL
MODEL 5
REMARK VINA RESULT:      -6.8      0.757      1.191
REMARK  Name = 
REMARK  9 active torsions:
REMARK  status: ('A' for Active; 'I' for Inactive)
REMARK    1  A    between atoms: C_1  and  N_2
REMARK    2  A    between atoms: N_2  and  C_3
REMARK    3  A    between atoms: N_2  and  C_4
REMARK    4  A    between atoms: C_4  and  C_5
REMARK    5  A    between atoms: C_5  and  C_6
REMARK    6  A    between atoms: C_6  and  N_7
REMARK    7  A    between atoms: C_8  and  C_10
REMARK    8  A    between atoms: C_13  and  N_14
REMARK    9  A    between atoms: C_15  and  C_17
REMARK                            x       y       z     vdW  Elec       q    Type
REMARK                         _______ _______ _______ _____ _____    ______ ____
ROOT
ATOM      1  C   UNL     1       2.551   7.318  18.973  0.00  0.00    +0.000 A 
ATOM      2  C   UNL     1       2.068   7.267  20.282  0.00  0.00    +0.000 A 
ATOM      3  C   UNL     1       1.194   8.253  20.751  0.00  0.00    +0.000 A 
ATOM      4  C   UNL     1       0.795   9.320  19.941  0.00  0.00    +0.000 A 
ATOM      5  C   UNL     1       1.259   9.354  18.619  0.00  0.00    +0.000 A 
ATOM      6  C   UNL     1       2.146   8.370  18.143  0.00  0.00    +0.000 A 
ENDROOT
BRANCH   1   8
ATOM      7  N   UNL     1       3.893   5.327  19.380  0.00  0.00    +0.000 N 
ATOM      8  C   UNL     1       3.515   6.296  18.473  0.00  0.00    +0.000 C 
ATOM      9  O   UNL     1       3.915   6.344  17.315  0.00  0.00    +0.000 OA
ATOM     10  H   UNL     1       3.454   5.283  20.289  0.00  0.00    +0.000 HD
BRANCH   7  11
ATOM     11  C   UNL     1       4.844   4.275  19.071  0.00  0.00    +0.000 C 
BRANCH  11  12
ATOM     12  C   UNL     1       4.464   2.926  19.681  0.00  0.00    +0.000 C 
BRANCH  12  13
ATOM     13  C   UNL     1       3.175   2.309  19.112  0.00  0.00    +0.000 C 
BRANCH  13  15
ATOM     14  C   UNL     1       0.768   2.497  18.763  0.00  0.00    +0.000 C 
ATOM     15  N   UNL     1       1.926   2.975  19.525  0.00  0.00    +0.000 NA
ATOM     16  C   UNL     1       1.688   2.748  20.956  0.00  0.00    +0.000 C 
ENDBRANCH  13  15
ENDBRANCH  12  13
ENDBRANCH  11  12
ENDBRANCH   7  11
ENDBRANCH   1   8
BRANCH   4  17
ATOM     17  N   UNL     1      -0.045  10.366  20.400  0.00  0.00    +0.000 N 
ATOM     18  C   UNL     1       0.374  11.550  21.014  0.00  0.00    +0.000 C 
ATOM     19  O   UNL     1       1.557  11.820  21.195  0.00  0.00    +0.000 OA
ATOM     20  H   UNL     1      -1.029  10.298  20.173  0.00  0.00    +0.000 HD
BRANCH  18  21
ATOM     21  C   UNL     1      -0.681  12.496  21.386  0.00  0.00    +0.000 A 
ATOM     22  S   UNL     1      -1.585  12.308  22.827  0.00  0.00    +0.000 S 
ATOM     23  C   UNL     1      -2.571  13.680  22.506  0.00  0.00    +0.000 A 
ATOM     24  C   UNL     1      -3.617  14.173  23.311  0.00  0.00    +0.000 A 
ATOM     25  C   UNL     1      -4.350  15.272  22.862  0.00  0.00    +0.000 A 
ATOM     26 BR   UNL     1      -5.766  15.939  23.925  0.00  0.00    +0.000 Br
ATOM     27  C   UNL     1      -4.058  15.880  21.650  0.00  0.00    +0.000 A 
ATOM     28  C   UNL     1      -2.993  15.408  20.877  0.00  0.00    +0.000 A 
ATOM     29  C   UNL     1      -2.222  14.290  21.300  0.00  0.00    +0.000 A 
ATOM     30  C   UNL     1      -1.086  13.632  20.702  0.00  0.00    +0.000 A 
ATOM     31 CL   UNL     1      -0.380  14.246  19.255  0.00  0.00    +0.000 Cl
ENDBRANCH  18  21
ENDBRANCH   4  17
TORSDOF 7
ENDMDL
MODEL 6
REMARK VINA RESULT:      -6.8      1.442      1.792
REMARK  Name = 
REMARK  9 active torsions:
REMARK  status: ('A' for Active; 'I' for Inactive)
REMARK    1  A    between atoms: C_1  and  N_2
REMARK    2  A    between atoms: N_2  and  C_3
REMARK    3  A    between atoms: N_2  and  C_4
REMARK    4  A    between atoms: C_4  and  C_5
REMARK    5  A    between atoms: C_5  and  C_6
REMARK    6  A    between atoms: C_6  and  N_7
REMARK    7  A    between atoms: C_8  and  C_10
REMARK    8  A    between atoms: C_13  and  N_14
REMARK    9  A    between atoms: C_15  and  C_17
REMARK                            x       y       z     vdW  Elec       q    Type
REMARK                         _______ _______ _______ _____ _____    ______ ____
ROOT
ATOM      1  C   UNL     1       2.840   6.922  18.268  0.00  0.00    +0.000 A 
ATOM      2  C   UNL     1       2.421   6.823  19.595  0.00  0.00    +0.000 A 
ATOM      3  C   UNL     1       1.755   7.890  20.207  0.00  0.00    +0.000 A 
ATOM      4  C   UNL     1       1.508   9.084  19.524  0.00  0.00    +0.000 A 
ATOM      5  C   UNL     1       1.906   9.172  18.183  0.00  0.00    +0.000 A 
ATOM      6  C   UNL     1       2.584   8.104  17.564  0.00  0.00    +0.000 A 
ENDROOT
BRANCH   1   8
ATOM      7  N   UNL     1       3.195   4.531  17.966  0.00  0.00    +0.000 N 
ATOM      8  C   UNL     1       3.587   5.807  17.616  0.00  0.00    +0.000 C 
ATOM      9  O   UNL     1       4.481   6.053  16.814  0.00  0.00    +0.000 OA
ATOM     10  H   UNL     1       2.387   4.392  18.557  0.00  0.00    +0.000 HD
BRANCH   7  11
ATOM     11  C   UNL     1       3.832   3.333  17.450  0.00  0.00    +0.000 C 
BRANCH  11  12
ATOM     12  C   UNL     1       3.381   2.060  18.167  0.00  0.00    +0.000 C 
BRANCH  12  13
ATOM     13  C   UNL     1       1.964   2.130  18.760  0.00  0.00    +0.000 C 
BRANCH  13  15
ATOM     14  C   UNL     1       3.237   2.506  20.806  0.00  0.00    +0.000 C 
ATOM     15  N   UNL     1       1.905   2.330  20.220  0.00  0.00    +0.000 NA
ATOM     16  C   UNL     1       1.083   3.507  20.531  0.00  0.00    +0.000 C 
ENDBRANCH  13  15
ENDBRANCH  12  13
ENDBRANCH  11  12
ENDBRANCH   7  11
ENDBRANCH   1   8
BRANCH   4  17
ATOM     17  N   UNL     1       0.886  10.205  20.128  0.00  0.00    +0.000 N 
ATOM     18  C   UNL     1      -0.431  10.627  19.926  0.00  0.00    +0.000 C 
ATOM     19  O   UNL     1      -1.215  10.024  19.200  0.00  0.00    +0.000 OA
ATOM     20  H   UNL     1       1.409  10.688  20.848  0.00  0.00    +0.000 HD
BRANCH  18  21
ATOM     21  C   UNL     1      -0.858  11.809  20.679  0.00  0.00    +0.000 A 
ATOM     22  S   UNL     1      -1.306  11.707  22.327  0.00  0.00    +0.000 S 
ATOM     23  C   UNL     1      -1.699  13.379  22.427  0.00  0.00    +0.000 A 
ATOM     24  C   UNL     1      -2.177  14.066  23.561  0.00  0.00    +0.000 A 
ATOM     25  C   UNL     1      -2.497  15.418  23.441  0.00  0.00    +0.000 A 
ATOM     26 BR   UNL     1      -3.152  16.352  24.950  0.00  0.00    +0.000 Br
ATOM     27  C   UNL     1      -2.345  16.085  22.235  0.00  0.00    +0.000 A 
ATOM     28  C   UNL     1      -1.832  15.405  21.126  0.00  0.00    +0.000 A 
ATOM     29  C   UNL     1      -1.494  14.026  21.208  0.00  0.00    +0.000 A 
ATOM     30  C   UNL     1      -0.945  13.117  20.231  0.00  0.00    +0.000 A 
ATOM     31 CL   UNL     1      -0.498  13.682  18.665  0.00  0.00    +0.000 Cl
ENDBRANCH  18  21
ENDBRANCH   4  17
TORSDOF 7
ENDMDL
MODEL 7
REMARK VINA RESULT:      -6.8      1.665      2.177
REMARK  Name = 
REMARK  9 active torsions:
REMARK  status: ('A' for Active; 'I' for Inactive)
REMARK    1  A    between atoms: C_1  and  N_2
REMARK    2  A    between atoms: N_2  and  C_3
REMARK    3  A    between atoms: N_2  and  C_4
REMARK    4  A    between atoms: C_4  and  C_5
REMARK    5  A    between atoms: C_5  and  C_6
REMARK    6  A    between atoms: C_6  and  N_7
REMARK    7  A    between atoms: C_8  and  C_10
REMARK    8  A    between atoms: C_13  and  N_14
REMARK    9  A    between atoms: C_15  and  C_17
REMARK                            x       y       z     vdW  Elec       q    Type
REMARK                         _______ _______ _______ _____ _____    ______ ____
ROOT
ATOM      1  C   UNL     1       2.491   7.357  18.981  0.00  0.00    +0.000 A 
ATOM      2  C   UNL     1       1.996   7.419  20.284  0.00  0.00    +0.000 A 
ATOM      3  C   UNL     1       1.144   8.460  20.668  0.00  0.00    +0.000 A 
ATOM      4  C   UNL     1       0.781   9.472  19.775  0.00  0.00    +0.000 A 
ATOM      5  C   UNL     1       1.257   9.393  18.459  0.00  0.00    +0.000 A 
ATOM      6  C   UNL     1       2.122   8.353  18.070  0.00  0.00    +0.000 A 
ENDROOT
BRANCH   1   8
ATOM      7  N   UNL     1       4.011   5.556  19.597  0.00  0.00    +0.000 N 
ATOM      8  C   UNL     1       3.433   6.275  18.571  0.00  0.00    +0.000 C 
ATOM      9  O   UNL     1       3.644   6.063  17.382  0.00  0.00    +0.000 OA
ATOM     10  H   UNL     1       3.723   5.713  20.552  0.00  0.00    +0.000 HD
BRANCH   7  11
ATOM     11  C   UNL     1       4.971   4.490  19.379  0.00  0.00    +0.000 C 
BRANCH  11  12
ATOM     12  C   UNL     1       4.334   3.101  19.391  0.00  0.00    +0.000 C 
BRANCH  12  13
ATOM     13  C   UNL     1       3.160   2.945  20.373  0.00  0.00    +0.000 C 
BRANCH  13  15
ATOM     14  C   UNL     1       0.906   3.851  20.152  0.00  0.00    +0.000 C 
ATOM     15  N   UNL     1       1.834   2.792  19.744  0.00  0.00    +0.000 NA
ATOM     16  C   UNL     1       1.970   2.807  18.282  0.00  0.00    +0.000 C 
ENDBRANCH  13  15
ENDBRANCH  12  13
ENDBRANCH  11  12
ENDBRANCH   7  11
ENDBRANCH   1   8
BRANCH   4  17
ATOM     17  N   UNL     1      -0.035  10.571  20.143  0.00  0.00    +0.000 N 
ATOM     18  C   UNL     1       0.386  11.720  20.820  0.00  0.00    +0.000 C 
ATOM     19  O   UNL     1       1.554  11.906  21.147  0.00  0.00    +0.000 OA
ATOM     20  H   UNL     1      -0.986  10.574  19.798  0.00  0.00    +0.000 HD
BRANCH  18  21
ATOM     21  C   UNL     1      -0.639  12.735  21.076  0.00  0.00    +0.000 A 
ATOM     22  S   UNL     1      -0.774  14.136  20.103  0.00  0.00    +0.000 S 
ATOM     23  C   UNL     1      -2.070  14.779  21.034  0.00  0.00    +0.000 A 
ATOM     24  C   UNL     1      -2.742  15.998  20.814  0.00  0.00    +0.000 A 
ATOM     25  C   UNL     1      -3.739  16.386  21.709  0.00  0.00    +0.000 A 
ATOM     26 BR   UNL     1      -4.642  18.026  21.435  0.00  0.00    +0.000 Br
ATOM     27  C   UNL     1      -4.075  15.592  22.794  0.00  0.00    +0.000 A 
ATOM     28  C   UNL     1      -3.430  14.366  22.982  0.00  0.00    +0.000 A 
ATOM     29  C   UNL     1      -2.409  13.934  22.092  0.00  0.00    +0.000 A 
ATOM     30  C   UNL     1      -1.616  12.728  22.059  0.00  0.00    +0.000 A 
ATOM     31 CL   UNL     1      -1.901  11.463  23.194  0.00  0.00    +0.000 Cl
ENDBRANCH  18  21
ENDBRANCH   4  17
TORSDOF 7
ENDMDL
MODEL 8
REMARK VINA RESULT:      -6.7      2.648      3.727
REMARK  Name = 
REMARK  9 active torsions:
REMARK  status: ('A' for Active; 'I' for Inactive)
REMARK    1  A    between atoms: C_1  and  N_2
REMARK    2  A    between atoms: N_2  and  C_3
REMARK    3  A    between atoms: N_2  and  C_4
REMARK    4  A    between atoms: C_4  and  C_5
REMARK    5  A    between atoms: C_5  and  C_6
REMARK    6  A    between atoms: C_6  and  N_7
REMARK    7  A    between atoms: C_8  and  C_10
REMARK    8  A    between atoms: C_13  and  N_14
REMARK    9  A    between atoms: C_15  and  C_17
REMARK                            x       y       z     vdW  Elec       q    Type
REMARK                         _______ _______ _______ _____ _____    ______ ____
ROOT
ATOM      1  C   UNL     1       2.923   6.463  18.413  0.00  0.00    +0.000 A 
ATOM      2  C   UNL     1       2.397   6.477  19.705  0.00  0.00    +0.000 A 
ATOM      3  C   UNL     1       1.745   7.616  20.190  0.00  0.00    +0.000 A 
ATOM      4  C   UNL     1       1.619   8.771  19.413  0.00  0.00    +0.000 A 
ATOM      5  C   UNL     1       2.124   8.746  18.106  0.00  0.00    +0.000 A 
ATOM      6  C   UNL     1       2.789   7.606  17.616  0.00  0.00    +0.000 A 
ENDROOT
BRANCH   1   8
ATOM      7  N   UNL     1       4.410   5.469  16.759  0.00  0.00    +0.000 N 
ATOM      8  C   UNL     1       3.656   5.270  17.898  0.00  0.00    +0.000 C 
ATOM      9  O   UNL     1       3.575   4.198  18.488  0.00  0.00    +0.000 OA
ATOM     10  H   UNL     1       4.515   6.398  16.376  0.00  0.00    +0.000 HD
BRANCH   7  11
ATOM     11  C   UNL     1       5.161   4.412  16.108  0.00  0.00    +0.000 C 
BRANCH  11  12
ATOM     12  C   UNL     1       6.660   4.706  16.029  0.00  0.00    +0.000 C 
BRANCH  12  13
ATOM     13  C   UNL     1       7.389   4.670  17.383  0.00  0.00    +0.000 C 
BRANCH  13  15
ATOM     14  C   UNL     1       7.893   5.745  19.514  0.00  0.00    +0.000 C 
ATOM     15  N   UNL     1       7.141   5.832  18.258  0.00  0.00    +0.000 NA
ATOM     16  C   UNL     1       7.509   7.071  17.561  0.00  0.00    +0.000 C 
ENDBRANCH  13  15
ENDBRANCH  12  13
ENDBRANCH  11  12
ENDBRANCH   7  11
ENDBRANCH   1   8
BRANCH   4  17
ATOM     17  N   UNL     1       1.014   9.961  19.891  0.00  0.00    +0.000 N 
ATOM     18  C   UNL     1       0.985  10.395  21.219  0.00  0.00    +0.000 C 
ATOM     19  O   UNL     1       1.527   9.778  22.131  0.00  0.00    +0.000 OA
ATOM     20  H   UNL     1       0.659  10.606  19.197  0.00  0.00    +0.000 HD
BRANCH  18  21
ATOM     21  C   UNL     1       0.315  11.674  21.470  0.00  0.00    +0.000 A 
ATOM     22  S   UNL     1       0.766  13.099  20.637  0.00  0.00    +0.000 S 
ATOM     23  C   UNL     1      -0.367  14.074  21.489  0.00  0.00    +0.000 A 
ATOM     24  C   UNL     1      -0.577  15.458  21.326  0.00  0.00    +0.000 A 
ATOM     25  C   UNL     1      -1.506  16.097  22.148  0.00  0.00    +0.000 A 
ATOM     26 BR   UNL     1      -1.792  17.957  21.951  0.00  0.00    +0.000 Br
ATOM     27  C   UNL     1      -2.219  15.392  23.105  0.00  0.00    +0.000 A 
ATOM     28  C   UNL     1      -2.032  14.012  23.233  0.00  0.00    +0.000 A 
ATOM     29  C   UNL     1      -1.095  13.324  22.414  0.00  0.00    +0.000 A 
ATOM     30  C   UNL     1      -0.733  11.929  22.340  0.00  0.00    +0.000 A 
ATOM     31 CL   UNL     1      -1.555  10.761  23.304  0.00  0.00    +0.000 Cl
ENDBRANCH  18  21
ENDBRANCH   4  17
TORSDOF 7
ENDMDL
MODEL 9
REMARK VINA RESULT:      -6.7      1.114      1.437
REMARK  Name = 
REMARK  9 active torsions:
REMARK  status: ('A' for Active; 'I' for Inactive)
REMARK    1  A    between atoms: C_1  and  N_2
REMARK    2  A    between atoms: N_2  and  C_3
REMARK    3  A    between atoms: N_2  and  C_4
REMARK    4  A    between atoms: C_4  and  C_5
REMARK    5  A    between atoms: C_5  and  C_6
REMARK    6  A    between atoms: C_6  and  N_7
REMARK    7  A    between atoms: C_8  and  C_10
REMARK    8  A    between atoms: C_13  and  N_14
REMARK    9  A    between atoms: C_15  and  C_17
REMARK                            x       y       z     vdW  Elec       q    Type
REMARK                         _______ _______ _______ _____ _____    ______ ____
ROOT
ATOM      1  C   UNL     1       2.468   7.508  18.564  0.00  0.00    +0.000 A 
ATOM      2  C   UNL     1       2.145   7.447  19.920  0.00  0.00    +0.000 A 
ATOM      3  C   UNL     1       1.280   8.392  20.483  0.00  0.00    +0.000 A 
ATOM      4  C   UNL     1       0.733   9.427  19.719  0.00  0.00    +0.000 A 
ATOM      5  C   UNL     1       1.038   9.470  18.352  0.00  0.00    +0.000 A 
ATOM      6  C   UNL     1       1.914   8.527  17.781  0.00  0.00    +0.000 A 
ENDROOT
BRANCH   1   8
ATOM      7  N   UNL     1       2.937   5.253  17.772  0.00  0.00    +0.000 N 
ATOM      8  C   UNL     1       3.421   6.531  17.960  0.00  0.00    +0.000 C 
ATOM      9  O   UNL     1       4.553   6.887  17.654  0.00  0.00    +0.000 OA
ATOM     10  H   UNL     1       1.965   5.046  17.953  0.00  0.00    +0.000 HD
BRANCH   7  11
ATOM     11  C   UNL     1       3.737   4.172  17.224  0.00  0.00    +0.000 C 
BRANCH  11  12
ATOM     12  C   UNL     1       4.332   3.264  18.300  0.00  0.00    +0.000 C 
BRANCH  12  13
ATOM     13  C   UNL     1       3.310   2.355  19.004  0.00  0.00    +0.000 C 
BRANCH  13  15
ATOM     14  C   UNL     1       0.876   2.472  18.902  0.00  0.00    +0.000 C 
ATOM     15  N   UNL     1       2.095   3.036  19.490  0.00  0.00    +0.000 NA
ATOM     16  C   UNL     1       2.016   2.936  20.953  0.00  0.00    +0.000 C 
ENDBRANCH  13  15
ENDBRANCH  12  13
ENDBRANCH  11  12
ENDBRANCH   7  11
ENDBRANCH   1   8
BRANCH   4  17
ATOM     17  N   UNL     1      -0.102  10.433  20.267  0.00  0.00    +0.000 N 
ATOM     18  C   UNL     1       0.246  11.772  20.470  0.00  0.00    +0.000 C 
ATOM     19  O   UNL     1       1.340  12.228  20.154  0.00  0.00    +0.000 OA
ATOM     20  H   UNL     1      -1.069  10.187  20.433  0.00  0.00    +0.000 HD
BRANCH  18  21
ATOM     21  C   UNL     1      -0.795  12.633  21.036  0.00  0.00    +0.000 A 
ATOM     22  S   UNL     1      -0.492  13.634  22.390  0.00  0.00    +0.000 S 
ATOM     23  C   UNL     1      -2.109  14.216  22.449  0.00  0.00    +0.000 A 
ATOM     24  C   UNL     1      -2.641  15.137  23.374  0.00  0.00    +0.000 A 
ATOM     25  C   UNL     1      -3.997  15.454  23.302  0.00  0.00    +0.000 A 
ATOM     26 BR   UNL     1      -4.729  16.679  24.544  0.00  0.00    +0.000 Br
ATOM     27  C   UNL     1      -4.815  14.884  22.339  0.00  0.00    +0.000 A 
ATOM     28  C   UNL     1      -4.271  14.001  21.401  0.00  0.00    +0.000 A 
ATOM     29  C   UNL     1      -2.893  13.653  21.440  0.00  0.00    +0.000 A 
ATOM     30  C   UNL     1      -2.100  12.794  20.595  0.00  0.00    +0.000 A 
ATOM     31 CL   UNL     1      -2.797  12.049  19.205  0.00  0.00    +0.000 Cl
ENDBRANCH  18  21
ENDBRANCH   4  17
TORSDOF 7
ENDMDL
