MODEL 1
REMARK VINA RESULT:      -7.6      0.000      0.000
REMARK  Name = 
REMARK  13 active torsions:
REMARK  status: ('A' for Active; 'I' for Inactive)
REMARK    1  A    between atoms: C_1  and  C_2
REMARK    2  A    between atoms: C_3  and  C_4
REMARK    3  A    between atoms: C_7  and  C_8
REMARK    4  A    between atoms: C_11  and  C_12
REMARK    5  A    between atoms: N_14  and  C_15
REMARK    6  A    between atoms: C_15  and  C_16
REMARK    7  A    between atoms: C_16  and  C_17
REMARK    8  A    between atoms: C_16  and  C_18
REMARK    9  A    between atoms: C_20  and  C_21
REMARK   10  A    between atoms: C_21  and  O_23
REMARK   11  A    between atoms: C_24  and  C_25
REMARK   12  A    between atoms: N_27  and  C_28
REMARK   13  A    between atoms: C_31  and  C_32
REMARK                            x       y       z     vdW  Elec       q    Type
REMARK                         _______ _______ _______ _____ _____    ______ ____
ROOT
ATOM      1  C   UNL     1      -2.733  14.187  22.664  0.00  0.00    +0.000 A 
ATOM      2  C   UNL     1      -2.107  13.392  23.604  0.00  0.00    +0.000 A 
ATOM      3  C   UNL     1      -1.391  12.286  23.175  0.00  0.00    +0.000 A 
ATOM      4  C   UNL     1      -1.324  11.921  21.819  0.00  0.00    +0.000 A 
ATOM      5  C   UNL     1      -2.032  12.717  20.873  0.00  0.00    +0.000 A 
ATOM      6  C   UNL     1      -2.725  13.858  21.308  0.00  0.00    +0.000 A 
ENDROOT
BRANCH   4   7
ATOM      7  C   UNL     1      -0.406  10.803  21.464  0.00  0.00    +0.000 A 
ATOM      8  C   UNL     1      -0.842   9.481  21.728  0.00  0.00    +0.000 A 
ATOM      9  C   UNL     1      -0.086   8.352  21.410  0.00  0.00    +0.000 A 
ATOM     10  C   UNL     1       1.095   8.510  20.710  0.00  0.00    +0.000 A 
ATOM     11  C   UNL     1       1.556   9.797  20.422  0.00  0.00    +0.000 A 
ATOM     12  C   UNL     1       0.831  10.955  20.802  0.00  0.00    +0.000 A 
BRANCH  10  13
ATOM     13  C   UNL     1       1.826   7.272  20.298  0.00  0.00    +0.000 C 
ATOM     14  O   UNL     1       2.523   7.284  19.287  0.00  0.00    +0.000 OA
ATOM     15  N   UNL     1       1.706   6.160  21.108  0.00  0.00    +0.000 N 
ATOM     16  H   UNL     1       1.256   6.229  22.013  0.00  0.00    +0.000 HD
BRANCH  15  17
ATOM     17  C   UNL     1       2.403   4.923  20.797  0.00  0.00    +0.000 C 
BRANCH  17  18
ATOM     18  C   UNL     1       1.491   3.884  20.127  0.00  0.00    +0.000 C 
ATOM     19  C   UNL     1       1.758   3.780  18.623  0.00  0.00    +0.000 C 
ATOM     20  C   UNL     1       1.678   2.510  20.777  0.00  0.00    +0.000 C 
ENDBRANCH  17  18
ENDBRANCH  15  17
ENDBRANCH  10  13
BRANCH  12  21
ATOM     21  C   UNL     1       1.485  12.241  20.363  0.00  0.00    +0.000 C 
ATOM     22  O   UNL     1       2.168  12.901  21.138  0.00  0.00    +0.000 OA
BRANCH  21  23
ATOM     23  O   UNL     1       1.297  12.674  19.096  0.00  0.00    +0.000 OA
ATOM     24  H   UNL     1       0.888  12.052  18.475  0.00  0.00    +0.000 HD
ENDBRANCH  21  23
ENDBRANCH  12  21
ENDBRANCH   4   7
BRANCH   5  25
ATOM     25  C   UNL     1      -2.067  12.328  19.423  0.00  0.00    +0.000 C 
ATOM     26  O   UNL     1      -1.369  12.978  18.661  0.00  0.00    +0.000 OA
ATOM     27  N   UNL     1      -2.958  11.344  19.005  0.00  0.00    +0.000 N 
ATOM     28  H   UNL     1      -3.612  10.948  19.672  0.00  0.00    +0.000 HD
BRANCH  27  29
ATOM     29  C   UNL     1      -3.129  10.985  17.644  0.00  0.00    +0.000 A 
ATOM     30  C   UNL     1      -2.308  10.023  17.043  0.00  0.00    +0.000 A 
ATOM     31  C   UNL     1      -2.489   9.648  15.702  0.00  0.00    +0.000 A 
ATOM     32  C   UNL     1      -3.506  10.223  14.936  0.00  0.00    +0.000 A 
ATOM     33  C   UNL     1      -4.315  11.199  15.529  0.00  0.00    +0.000 A 
ATOM     34  C   UNL     1      -4.125  11.573  16.865  0.00  0.00    +0.000 A 
BRANCH  32  35
ATOM     35  C   UNL     1      -3.744   9.833  13.508  0.00  0.00    +0.000 C 
ATOM     36  N   UNL     1      -4.932   9.670  13.001  0.00  0.00    +0.000 NA
ATOM     37  N   UNL     1      -2.719   9.645  12.636  0.00  0.00    +0.000 N 
ATOM     38  H   UNL     1      -5.673   9.807  13.685  0.00  0.00    +0.000 HD
ATOM     39  H   UNL     1      -1.890  10.217  12.747  0.00  0.00    +0.000 HD
ATOM     40  H   UNL     1      -3.058   9.637  11.674  0.00  0.00    +0.000 HD
ENDBRANCH  32  35
ENDBRANCH  27  29
ENDBRANCH   5  25
BRANCH   1  43
ATOM     41  C   UNL     1      -4.759  17.529  23.860  0.00  0.00    +0.000 C 
ATOM     42  C   UNL     1      -3.963  16.350  23.469  0.00  0.00    +0.000 C 
ATOM     43  C   UNL     1      -3.369  15.395  23.128  0.00  0.00    +0.000 C 
ENDBRANCH   1  43
TORSDOF 10
ENDMDL
MODEL 2
REMARK VINA RESULT:      -7.1      1.421      1.830
REMARK  Name = 
REMARK  13 active torsions:
REMARK  status: ('A' for Active; 'I' for Inactive)
REMARK    1  A    between atoms: C_1  and  C_2
REMARK    2  A    between atoms: C_3  and  C_4
REMARK    3  A    between atoms: C_7  and  C_8
REMARK    4  A    between atoms: C_11  and  C_12
REMARK    5  A    between atoms: N_14  and  C_15
REMARK    6  A    between atoms: C_15  and  C_16
REMARK    7  A    between atoms: C_16  and  C_17
REMARK    8  A    between atoms: C_16  and  C_18
REMARK    9  A    between atoms: C_20  and  C_21
REMARK   10  A    between atoms: C_21  and  O_23
REMARK   11  A    between atoms: C_24  and  C_25
REMARK   12  A    between atoms: N_27  and  C_28
REMARK   13  A    between atoms: C_31  and  C_32
REMARK                            x       y       z     vdW  Elec       q    Type
REMARK                         _______ _______ _______ _____ _____    ______ ____
ROOT
ATOM      1  C   UNL     1      -2.579  13.846  22.678  0.00  0.00    +0.000 A 
ATOM      2  C   UNL     1      -1.935  13.019  23.577  0.00  0.00    +0.000 A 
ATOM      3  C   UNL     1      -1.217  11.937  23.095  0.00  0.00    +0.000 A 
ATOM      4  C   UNL     1      -1.162  11.628  21.725  0.00  0.00    +0.000 A 
ATOM      5  C   UNL     1      -1.887  12.458  20.820  0.00  0.00    +0.000 A 
ATOM      6  C   UNL     1      -2.583  13.574  21.309  0.00  0.00    +0.000 A 
ENDROOT
BRANCH   4   7
ATOM      7  C   UNL     1      -0.240  10.533  21.314  0.00  0.00    +0.000 A 
ATOM      8  C   UNL     1      -0.639   9.200  21.577  0.00  0.00    +0.000 A 
ATOM      9  C   UNL     1       0.122   8.090  21.210  0.00  0.00    +0.000 A 
ATOM     10  C   UNL     1       1.269   8.280  20.462  0.00  0.00    +0.000 A 
ATOM     11  C   UNL     1       1.693   9.580  20.173  0.00  0.00    +0.000 A 
ATOM     12  C   UNL     1       0.964  10.718  20.601  0.00  0.00    +0.000 A 
BRANCH  10  13
ATOM     13  C   UNL     1       2.004   7.062  20.000  0.00  0.00    +0.000 C 
ATOM     14  O   UNL     1       2.109   6.094  20.748  0.00  0.00    +0.000 OA
ATOM     15  N   UNL     1       2.513   7.072  18.716  0.00  0.00    +0.000 N 
ATOM     16  H   UNL     1       2.273   7.817  18.074  0.00  0.00    +0.000 HD
BRANCH  15  17
ATOM     17  C   UNL     1       3.219   5.921  18.178  0.00  0.00    +0.000 C 
BRANCH  17  18
ATOM     18  C   UNL     1       4.711   6.200  17.941  0.00  0.00    +0.000 C 
ATOM     19  C   UNL     1       5.590   5.053  18.447  0.00  0.00    +0.000 C 
ATOM     20  C   UNL     1       4.982   6.435  16.453  0.00  0.00    +0.000 C 
ENDBRANCH  17  18
ENDBRANCH  15  17
ENDBRANCH  10  13
BRANCH  12  21
ATOM     21  C   UNL     1       1.574  12.022  20.153  0.00  0.00    +0.000 C 
ATOM     22  O   UNL     1       1.918  12.193  18.988  0.00  0.00    +0.000 OA
BRANCH  21  23
ATOM     23  O   UNL     1       1.755  13.009  21.058  0.00  0.00    +0.000 OA
ATOM     24  H   UNL     1       1.628  12.779  21.991  0.00  0.00    +0.000 HD
ENDBRANCH  21  23
ENDBRANCH  12  21
ENDBRANCH   4   7
BRANCH   5  25
ATOM     25  C   UNL     1      -1.935  12.128  19.356  0.00  0.00    +0.000 C 
ATOM     26  O   UNL     1      -1.263  12.823  18.612  0.00  0.00    +0.000 OA
ATOM     27  N   UNL     1      -2.813  11.144  18.910  0.00  0.00    +0.000 N 
ATOM     28  H   UNL     1      -3.448  10.706  19.568  0.00  0.00    +0.000 HD
BRANCH  27  29
ATOM     29  C   UNL     1      -2.996  10.838  17.537  0.00  0.00    +0.000 A 
ATOM     30  C   UNL     1      -2.150   9.936  16.880  0.00  0.00    +0.000 A 
ATOM     31  C   UNL     1      -2.342   9.614  15.527  0.00  0.00    +0.000 A 
ATOM     32  C   UNL     1      -3.397  10.179  14.806  0.00  0.00    +0.000 A 
ATOM     33  C   UNL     1      -4.233  11.094  15.456  0.00  0.00    +0.000 A 
ATOM     34  C   UNL     1      -4.030  11.417  16.803  0.00  0.00    +0.000 A 
BRANCH  32  35
ATOM     35  C   UNL     1      -3.648   9.842  13.366  0.00  0.00    +0.000 C 
ATOM     36  N   UNL     1      -2.694   9.622  12.508  0.00  0.00    +0.000 NA
ATOM     37  N   UNL     1      -4.906   9.720  12.867  0.00  0.00    +0.000 N 
ATOM     38  H   UNL     1      -1.766   9.734  12.914  0.00  0.00    +0.000 HD
ATOM     39  H   UNL     1      -5.627   9.357  13.480  0.00  0.00    +0.000 HD
ATOM     40  H   UNL     1      -4.892   9.249  11.963  0.00  0.00    +0.000 HD
ENDBRANCH  32  35
ENDBRANCH  27  29
ENDBRANCH   5  25
BRANCH   1  43
ATOM     41  C   UNL     1      -4.159  17.332  24.111  0.00  0.00    +0.000 C 
ATOM     42  C   UNL     1      -3.661  16.038  23.605  0.00  0.00    +0.000 C 
ATOM     43  C   UNL     1      -3.218  15.030  23.198  0.00  0.00    +0.000 C 
ENDBRANCH   1  43
TORSDOF 10
ENDMDL
MODEL 3
REMARK VINA RESULT:      -7.0      3.810      5.953
REMARK  Name = 
REMARK  13 active torsions:
REMARK  status: ('A' for Active; 'I' for Inactive)
REMARK    1  A    between atoms: C_1  and  C_2
REMARK    2  A    between atoms: C_3  and  C_4
REMARK    3  A    between atoms: C_7  and  C_8
REMARK    4  A    between atoms: C_11  and  C_12
REMARK    5  A    between atoms: N_14  and  C_15
REMARK    6  A    between atoms: C_15  and  C_16
REMARK    7  A    between atoms: C_16  and  C_17
REMARK    8  A    between atoms: C_16  and  C_18
REMARK    9  A    between atoms: C_20  and  C_21
REMARK   10  A    between atoms: C_21  and  O_23
REMARK   11  A    between atoms: C_24  and  C_25
REMARK   12  A    between atoms: N_27  and  C_28
REMARK   13  A    between atoms: C_31  and  C_32
REMARK                            x       y       z     vdW  Elec       q    Type
REMARK                         _______ _______ _______ _____ _____    ______ ____
ROOT
ATOM      1  C   UNL     1      -1.918  14.221  22.969  0.00  0.00    +0.000 A 
ATOM      2  C   UNL     1      -2.542  13.011  22.735  0.00  0.00    +0.000 A 
ATOM      3  C   UNL     1      -1.836  12.007  22.094  0.00  0.00    +0.000 A 
ATOM      4  C   UNL     1      -0.522  12.196  21.632  0.00  0.00    +0.000 A 
ATOM      5  C   UNL     1       0.080  13.474  21.825  0.00  0.00    +0.000 A 
ATOM      6  C   UNL     1      -0.626  14.476  22.508  0.00  0.00    +0.000 A 
ENDROOT
BRANCH   4   7
ATOM      7  C   UNL     1       0.185  11.001  21.093  0.00  0.00    +0.000 A 
ATOM      8  C   UNL     1       0.559   9.987  22.008  0.00  0.00    +0.000 A 
ATOM      9  C   UNL     1       1.195   8.807  21.621  0.00  0.00    +0.000 A 
ATOM     10  C   UNL     1       1.379   8.556  20.274  0.00  0.00    +0.000 A 
ATOM     11  C   UNL     1       1.014   9.526  19.337  0.00  0.00    +0.000 A 
ATOM     12  C   UNL     1       0.432  10.759  19.725  0.00  0.00    +0.000 A 
BRANCH  10  13
ATOM     13  C   UNL     1       1.971   7.236  19.891  0.00  0.00    +0.000 C 
ATOM     14  O   UNL     1       2.602   7.133  18.842  0.00  0.00    +0.000 OA
ATOM     15  N   UNL     1       1.804   6.183  20.769  0.00  0.00    +0.000 N 
ATOM     16  H   UNL     1       1.419   6.339  21.693  0.00  0.00    +0.000 HD
BRANCH  15  17
ATOM     17  C   UNL     1       2.368   4.873  20.488  0.00  0.00    +0.000 C 
BRANCH  17  18
ATOM     18  C   UNL     1       1.422   3.726  20.875  0.00  0.00    +0.000 C 
ATOM     19  C   UNL     1       0.827   3.041  19.643  0.00  0.00    +0.000 C 
ATOM     20  C   UNL     1       2.158   2.692  21.732  0.00  0.00    +0.000 C 
ENDBRANCH  17  18
ENDBRANCH  15  17
ENDBRANCH  10  13
BRANCH  12  21
ATOM     21  C   UNL     1       0.080  11.647  18.558  0.00  0.00    +0.000 C 
ATOM     22  O   UNL     1       0.753  12.637  18.290  0.00  0.00    +0.000 OA
BRANCH  21  23
ATOM     23  O   UNL     1      -1.005  11.349  17.808  0.00  0.00    +0.000 OA
ATOM     24  H   UNL     1      -1.093  11.813  16.961  0.00  0.00    +0.000 HD
ENDBRANCH  21  23
ENDBRANCH  12  21
ENDBRANCH   4   7
BRANCH   5  25
ATOM     25  C   UNL     1       1.448  13.762  21.278  0.00  0.00    +0.000 C 
ATOM     26  O   UNL     1       2.354  13.031  21.646  0.00  0.00    +0.000 OA
ATOM     27  N   UNL     1       1.640  14.891  20.488  0.00  0.00    +0.000 N 
ATOM     28  H   UNL     1       0.870  15.535  20.342  0.00  0.00    +0.000 HD
BRANCH  27  29
ATOM     29  C   UNL     1       2.915  15.294  20.013  0.00  0.00    +0.000 A 
ATOM     30  C   UNL     1       3.402  14.840  18.781  0.00  0.00    +0.000 A 
ATOM     31  C   UNL     1       4.653  15.255  18.298  0.00  0.00    +0.000 A 
ATOM     32  C   UNL     1       5.439  16.144  19.034  0.00  0.00    +0.000 A 
ATOM     33  C   UNL     1       4.962  16.584  20.274  0.00  0.00    +0.000 A 
ATOM     34  C   UNL     1       3.717  16.161  20.754  0.00  0.00    +0.000 A 
BRANCH  32  35
ATOM     35  C   UNL     1       6.770  16.627  18.540  0.00  0.00    +0.000 C 
ATOM     36  N   UNL     1       7.169  17.861  18.652  0.00  0.00    +0.000 NA
ATOM     37  N   UNL     1       7.666  15.787  17.958  0.00  0.00    +0.000 N 
ATOM     38  H   UNL     1       6.468  18.463  19.081  0.00  0.00    +0.000 HD
ATOM     39  H   UNL     1       7.699  14.828  18.284  0.00  0.00    +0.000 HD
ATOM     40  H   UNL     1       8.591  16.215  17.919  0.00  0.00    +0.000 HD
ENDBRANCH  32  35
ENDBRANCH  27  29
ENDBRANCH   5  25
BRANCH   1  43
ATOM     41  C   UNL     1      -4.157  16.976  24.993  0.00  0.00    +0.000 C 
ATOM     42  C   UNL     1      -3.290  15.992  24.317  0.00  0.00    +0.000 C 
ATOM     43  C   UNL     1      -2.635  15.205  23.742  0.00  0.00    +0.000 C 
ENDBRANCH   1  43
TORSDOF 10
ENDMDL
MODEL 4
REMARK VINA RESULT:      -6.9      3.820      6.775
REMARK  Name = 
REMARK  13 active torsions:
REMARK  status: ('A' for Active; 'I' for Inactive)
REMARK    1  A    between atoms: C_1  and  C_2
REMARK    2  A    between atoms: C_3  and  C_4
REMARK    3  A    between atoms: C_7  and  C_8
REMARK    4  A    between atoms: C_11  and  C_12
REMARK    5  A    between atoms: N_14  and  C_15
REMARK    6  A    between atoms: C_15  and  C_16
REMARK    7  A    between atoms: C_16  and  C_17
REMARK    8  A    between atoms: C_16  and  C_18
REMARK    9  A    between atoms: C_20  and  C_21
REMARK   10  A    between atoms: C_21  and  O_23
REMARK   11  A    between atoms: C_24  and  C_25
REMARK   12  A    between atoms: N_27  and  C_28
REMARK   13  A    between atoms: C_31  and  C_32
REMARK                            x       y       z     vdW  Elec       q    Type
REMARK                         _______ _______ _______ _____ _____    ______ ____
ROOT
ATOM      1  C   UNL     1      -2.416  13.001  23.069  0.00  0.00    +0.000 A 
ATOM      2  C   UNL     1      -1.960  14.302  22.982  0.00  0.00    +0.000 A 
ATOM      3  C   UNL     1      -0.770  14.551  22.318  0.00  0.00    +0.000 A 
ATOM      4  C   UNL     1       0.010  13.517  21.772  0.00  0.00    +0.000 A 
ATOM      5  C   UNL     1      -0.446  12.176  21.930  0.00  0.00    +0.000 A 
ATOM      6  C   UNL     1      -1.670  11.932  22.571  0.00  0.00    +0.000 A 
ENDROOT
BRANCH   4   7
ATOM      7  C   UNL     1       1.189  13.918  20.954  0.00  0.00    +0.000 A 
ATOM      8  C   UNL     1       2.439  14.035  21.610  0.00  0.00    +0.000 A 
ATOM      9  C   UNL     1       3.619  14.371  20.946  0.00  0.00    +0.000 A 
ATOM     10  C   UNL     1       3.603  14.494  19.570  0.00  0.00    +0.000 A 
ATOM     11  C   UNL     1       2.392  14.377  18.883  0.00  0.00    +0.000 A 
ATOM     12  C   UNL     1       1.174  14.105  19.555  0.00  0.00    +0.000 A 
BRANCH  10  13
ATOM     13  C   UNL     1       4.907  14.754  18.883  0.00  0.00    +0.000 C 
ATOM     14  O   UNL     1       4.951  14.796  17.656  0.00  0.00    +0.000 OA
ATOM     15  N   UNL     1       6.015  14.969  19.678  0.00  0.00    +0.000 N 
ATOM     16  H   UNL     1       5.915  15.086  20.679  0.00  0.00    +0.000 HD
BRANCH  15  17
ATOM     17  C   UNL     1       7.316  15.255  19.095  0.00  0.00    +0.000 C 
BRANCH  17  18
ATOM     18  C   UNL     1       8.267  14.050  19.154  0.00  0.00    +0.000 C 
ATOM     19  C   UNL     1       8.308  13.293  17.825  0.00  0.00    +0.000 C 
ATOM     20  C   UNL     1       9.681  14.503  19.530  0.00  0.00    +0.000 C 
ENDBRANCH  17  18
ENDBRANCH  15  17
ENDBRANCH  10  13
BRANCH  12  21
ATOM     21  C   UNL     1      -0.007  13.982  18.626  0.00  0.00    +0.000 C 
ATOM     22  O   UNL     1      -0.336  12.896  18.160  0.00  0.00    +0.000 OA
BRANCH  21  23
ATOM     23  O   UNL     1      -0.702  15.093  18.294  0.00  0.00    +0.000 OA
ATOM     24  H   UNL     1      -1.002  15.166  17.375  0.00  0.00    +0.000 HD
ENDBRANCH  21  23
ENDBRANCH  12  21
ENDBRANCH   4   7
BRANCH   5  25
ATOM     25  C   UNL     1       0.386  11.025  21.443  0.00  0.00    +0.000 C 
ATOM     26  O   UNL     1       1.255  10.616  22.196  0.00  0.00    +0.000 OA
ATOM     27  N   UNL     1       0.213  10.565  20.141  0.00  0.00    +0.000 N 
ATOM     28  H   UNL     1      -0.428  11.049  19.521  0.00  0.00    +0.000 HD
BRANCH  27  29
ATOM     29  C   UNL     1       1.023   9.552  19.566  0.00  0.00    +0.000 A 
ATOM     30  C   UNL     1       1.364   8.403  20.291  0.00  0.00    +0.000 A 
ATOM     31  C   UNL     1       2.146   7.388  19.717  0.00  0.00    +0.000 A 
ATOM     32  C   UNL     1       2.594   7.497  18.398  0.00  0.00    +0.000 A 
ATOM     33  C   UNL     1       2.270   8.653  17.678  0.00  0.00    +0.000 A 
ATOM     34  C   UNL     1       1.495   9.665  18.259  0.00  0.00    +0.000 A 
BRANCH  32  35
ATOM     35  C   UNL     1       3.413   6.425  17.744  0.00  0.00    +0.000 C 
ATOM     36  N   UNL     1       3.049   5.175  17.701  0.00  0.00    +0.000 NA
ATOM     37  N   UNL     1       4.591   6.699  17.126  0.00  0.00    +0.000 N 
ATOM     38  H   UNL     1       2.168   5.006  18.184  0.00  0.00    +0.000 HD
ATOM     39  H   UNL     1       4.687   7.594  16.662  0.00  0.00    +0.000 HD
ATOM     40  H   UNL     1       4.877   5.921  16.531  0.00  0.00    +0.000 HD
ENDBRANCH  32  35
ENDBRANCH  27  29
ENDBRANCH   5  25
BRANCH   1  43
ATOM     41  C   UNL     1      -6.197  12.395  24.497  0.00  0.00    +0.000 C 
ATOM     42  C   UNL     1      -4.804  12.609  24.058  0.00  0.00    +0.000 C 
ATOM     43  C   UNL     1      -3.714  12.786  23.660  0.00  0.00    +0.000 C 
ENDBRANCH   1  43
TORSDOF 10
ENDMDL
MODEL 5
REMARK VINA RESULT:      -6.9      3.588      5.742
REMARK  Name = 
REMARK  13 active torsions:
REMARK  status: ('A' for Active; 'I' for Inactive)
REMARK    1  A    between atoms: C_1  and  C_2
REMARK    2  A    between atoms: C_3  and  C_4
REMARK    3  A    between atoms: C_7  and  C_8
REMARK    4  A    between atoms: C_11  and  C_12
REMARK    5  A    between atoms: N_14  and  C_15
REMARK    6  A    between atoms: C_15  and  C_16
REMARK    7  A    between atoms: C_16  and  C_17
REMARK    8  A    between atoms: C_16  and  C_18
REMARK    9  A    between atoms: C_20  and  C_21
REMARK   10  A    between atoms: C_21  and  O_23
REMARK   11  A    between atoms: C_24  and  C_25
REMARK   12  A    between atoms: N_27  and  C_28
REMARK   13  A    between atoms: C_31  and  C_32
REMARK                            x       y       z     vdW  Elec       q    Type
REMARK                         _______ _______ _______ _____ _____    ______ ____
ROOT
ATOM      1  C   UNL     1      -3.085  14.479  22.684  0.00  0.00    +0.000 A 
ATOM      2  C   UNL     1      -3.601  13.264  22.277  0.00  0.00    +0.000 A 
ATOM      3  C   UNL     1      -2.748  12.332  21.709  0.00  0.00    +0.000 A 
ATOM      4  C   UNL     1      -1.385  12.602  21.492  0.00  0.00    +0.000 A 
ATOM      5  C   UNL     1      -0.888  13.886  21.860  0.00  0.00    +0.000 A 
ATOM      6  C   UNL     1      -1.747  14.813  22.468  0.00  0.00    +0.000 A 
ENDROOT
BRANCH   4   7
ATOM      7  C   UNL     1      -0.540  11.473  21.014  0.00  0.00    +0.000 A 
ATOM      8  C   UNL     1      -0.055  10.556  21.978  0.00  0.00    +0.000 A 
ATOM      9  C   UNL     1       0.718   9.442  21.650  0.00  0.00    +0.000 A 
ATOM     10  C   UNL     1       0.938   9.147  20.318  0.00  0.00    +0.000 A 
ATOM     11  C   UNL     1       0.468  10.020  19.333  0.00  0.00    +0.000 A 
ATOM     12  C   UNL     1      -0.258  11.194  19.659  0.00  0.00    +0.000 A 
BRANCH  10  13
ATOM     13  C   UNL     1       1.683   7.889  20.001  0.00  0.00    +0.000 C 
ATOM     14  O   UNL     1       2.394   7.837  19.002  0.00  0.00    +0.000 OA
ATOM     15  N   UNL     1       1.558   6.834  20.884  0.00  0.00    +0.000 N 
ATOM     16  H   UNL     1       1.095   6.961  21.776  0.00  0.00    +0.000 HD
BRANCH  15  17
ATOM     17  C   UNL     1       2.267   5.584  20.667  0.00  0.00    +0.000 C 
BRANCH  17  18
ATOM     18  C   UNL     1       1.355   4.472  20.130  0.00  0.00    +0.000 C 
ATOM     19  C   UNL     1       1.760   4.037  18.719  0.00  0.00    +0.000 C 
ATOM     20  C   UNL     1       1.379   3.260  21.065  0.00  0.00    +0.000 C 
ENDBRANCH  17  18
ENDBRANCH  15  17
ENDBRANCH  10  13
BRANCH  12  21
ATOM     21  C   UNL     1      -0.704  11.976  18.449  0.00  0.00    +0.000 C 
ATOM     22  O   UNL     1      -0.409  13.159  18.315  0.00  0.00    +0.000 OA
BRANCH  21  23
ATOM     23  O   UNL     1      -1.454  11.360  17.508  0.00  0.00    +0.000 OA
ATOM     24  H   UNL     1      -1.107  10.531  17.143  0.00  0.00    +0.000 HD
ENDBRANCH  21  23
ENDBRANCH  12  21
ENDBRANCH   4   7
BRANCH   5  25
ATOM     25  C   UNL     1       0.537  14.261  21.574  0.00  0.00    +0.000 C 
ATOM     26  O   UNL     1       1.318  14.215  22.511  0.00  0.00    +0.000 OA
ATOM     27  N   UNL     1       0.872  14.746  20.312  0.00  0.00    +0.000 N 
ATOM     28  H   UNL     1       0.141  14.895  19.625  0.00  0.00    +0.000 HD
BRANCH  27  29
ATOM     29  C   UNL     1       2.170  15.217  19.986  0.00  0.00    +0.000 A 
ATOM     30  C   UNL     1       3.148  14.348  19.486  0.00  0.00    +0.000 A 
ATOM     31  C   UNL     1       4.426  14.816  19.140  0.00  0.00    +0.000 A 
ATOM     32  C   UNL     1       4.748  16.168  19.277  0.00  0.00    +0.000 A 
ATOM     33  C   UNL     1       3.777  17.034  19.794  0.00  0.00    +0.000 A 
ATOM     34  C   UNL     1       2.507  16.560  20.144  0.00  0.00    +0.000 A 
BRANCH  32  35
ATOM     35  C   UNL     1       6.094  16.708  18.897  0.00  0.00    +0.000 C 
ATOM     36  N   UNL     1       6.464  17.934  19.134  0.00  0.00    +0.000 NA
ATOM     37  N   UNL     1       7.034  15.932  18.296  0.00  0.00    +0.000 N 
ATOM     38  H   UNL     1       5.732  18.488  19.574  0.00  0.00    +0.000 HD
ATOM     39  H   UNL     1       7.067  14.950  18.542  0.00  0.00    +0.000 HD
ATOM     40  H   UNL     1       7.952  16.375  18.342  0.00  0.00    +0.000 HD
ENDBRANCH  32  35
ENDBRANCH  27  29
ENDBRANCH   5  25
BRANCH   1  43
ATOM     41  C   UNL     1      -5.553  17.213  24.456  0.00  0.00    +0.000 C 
ATOM     42  C   UNL     1      -4.679  16.174  23.877  0.00  0.00    +0.000 C 
ATOM     43  C   UNL     1      -3.970  15.381  23.379  0.00  0.00    +0.000 C 
ENDBRANCH   1  43
TORSDOF 10
ENDMDL
MODEL 6
REMARK VINA RESULT:      -6.9      3.938      6.067
REMARK  Name = 
REMARK  13 active torsions:
REMARK  status: ('A' for Active; 'I' for Inactive)
REMARK    1  A    between atoms: C_1  and  C_2
REMARK    2  A    between atoms: C_3  and  C_4
REMARK    3  A    between atoms: C_7  and  C_8
REMARK    4  A    between atoms: C_11  and  C_12
REMARK    5  A    between atoms: N_14  and  C_15
REMARK    6  A    between atoms: C_15  and  C_16
REMARK    7  A    between atoms: C_16  and  C_17
REMARK    8  A    between atoms: C_16  and  C_18
REMARK    9  A    between atoms: C_20  and  C_21
REMARK   10  A    between atoms: C_21  and  O_23
REMARK   11  A    between atoms: C_24  and  C_25
REMARK   12  A    between atoms: N_27  and  C_28
REMARK   13  A    between atoms: C_31  and  C_32
REMARK                            x       y       z     vdW  Elec       q    Type
REMARK                         _______ _______ _______ _____ _____    ______ ____
ROOT
ATOM      1  C   UNL     1      -2.498  14.178  20.834  0.00  0.00    +0.000 A 
ATOM      2  C   UNL     1      -3.083  12.965  20.526  0.00  0.00    +0.000 A 
ATOM      3  C   UNL     1      -2.268  11.893  20.202  0.00  0.00    +0.000 A 
ATOM      4  C   UNL     1      -0.869  12.013  20.131  0.00  0.00    +0.000 A 
ATOM      5  C   UNL     1      -0.291  13.290  20.389  0.00  0.00    +0.000 A 
ATOM      6  C   UNL     1      -1.117  14.364  20.753  0.00  0.00    +0.000 A 
ENDROOT
BRANCH   4   7
ATOM      7  C   UNL     1      -0.092  10.760  19.920  0.00  0.00    +0.000 A 
ATOM      8  C   UNL     1       0.497  10.554  18.649  0.00  0.00    +0.000 A 
ATOM      9  C   UNL     1       1.274   9.436  18.341  0.00  0.00    +0.000 A 
ATOM     10  C   UNL     1       1.580   8.535  19.343  0.00  0.00    +0.000 A 
ATOM     11  C   UNL     1       1.026   8.707  20.615  0.00  0.00    +0.000 A 
ATOM     12  C   UNL     1       0.178   9.801  20.920  0.00  0.00    +0.000 A 
BRANCH  10  13
ATOM     13  C   UNL     1       2.499   7.405  19.001  0.00  0.00    +0.000 C 
ATOM     14  O   UNL     1       3.104   7.414  17.933  0.00  0.00    +0.000 OA
ATOM     15  N   UNL     1       2.650   6.400  19.937  0.00  0.00    +0.000 N 
ATOM     16  H   UNL     1       2.264   6.502  20.868  0.00  0.00    +0.000 HD
BRANCH  15  17
ATOM     17  C   UNL     1       3.543   5.278  19.698  0.00  0.00    +0.000 C 
BRANCH  17  18
ATOM     18  C   UNL     1       2.792   3.946  19.554  0.00  0.00    +0.000 C 
ATOM     19  C   UNL     1       3.612   2.771  20.095  0.00  0.00    +0.000 C 
ATOM     20  C   UNL     1       1.446   4.009  20.280  0.00  0.00    +0.000 C 
ENDBRANCH  17  18
ENDBRANCH  15  17
ENDBRANCH  10  13
BRANCH  12  21
ATOM     21  C   UNL     1      -0.281   9.819  22.356  0.00  0.00    +0.000 C 
ATOM     22  O   UNL     1      -0.081  10.795  23.072  0.00  0.00    +0.000 OA
BRANCH  21  23
ATOM     23  O   UNL     1      -0.909   8.733  22.861  0.00  0.00    +0.000 OA
ATOM     24  H   UNL     1      -1.554   8.294  22.287  0.00  0.00    +0.000 HD
ENDBRANCH  21  23
ENDBRANCH  12  21
ENDBRANCH   4   7
BRANCH   5  25
ATOM     25  C   UNL     1       1.189  13.499  20.245  0.00  0.00    +0.000 C 
ATOM     26  O   UNL     1       1.905  12.962  21.075  0.00  0.00    +0.000 OA
ATOM     27  N   UNL     1       1.660  14.369  19.266  0.00  0.00    +0.000 N 
ATOM     28  H   UNL     1       0.998  14.895  18.705  0.00  0.00    +0.000 HD
BRANCH  27  29
ATOM     29  C   UNL     1       3.031  14.703  19.125  0.00  0.00    +0.000 A 
ATOM     30  C   UNL     1       3.798  14.175  18.078  0.00  0.00    +0.000 A 
ATOM     31  C   UNL     1       5.149  14.521  17.922  0.00  0.00    +0.000 A 
ATOM     32  C   UNL     1       5.760  15.414  18.805  0.00  0.00    +0.000 A 
ATOM     33  C   UNL     1       5.001  15.928  19.863  0.00  0.00    +0.000 A 
ATOM     34  C   UNL     1       3.656  15.573  20.017  0.00  0.00    +0.000 A 
BRANCH  32  35
ATOM     35  C   UNL     1       7.195  15.824  18.657  0.00  0.00    +0.000 C 
ATOM     36  N   UNL     1       7.832  16.527  19.549  0.00  0.00    +0.000 NA
ATOM     37  N   UNL     1       7.937  15.460  17.578  0.00  0.00    +0.000 N 
ATOM     38  H   UNL     1       7.242  16.790  20.337  0.00  0.00    +0.000 HD
ATOM     39  H   UNL     1       7.746  14.562  17.152  0.00  0.00    +0.000 HD
ATOM     40  H   UNL     1       8.931  15.601  17.759  0.00  0.00    +0.000 HD
ENDBRANCH  32  35
ENDBRANCH  27  29
ENDBRANCH   5  25
BRANCH   1  43
ATOM     41  C   UNL     1      -4.814  17.191  22.337  0.00  0.00    +0.000 C 
ATOM     42  C   UNL     1      -4.019  16.109  21.724  0.00  0.00    +0.000 C 
ATOM     43  C   UNL     1      -3.363  15.242  21.282  0.00  0.00    +0.000 C 
ENDBRANCH   1  43
TORSDOF 10
ENDMDL
MODEL 7
REMARK VINA RESULT:      -6.9      1.690      2.312
REMARK  Name = 
REMARK  13 active torsions:
REMARK  status: ('A' for Active; 'I' for Inactive)
REMARK    1  A    between atoms: C_1  and  C_2
REMARK    2  A    between atoms: C_3  and  C_4
REMARK    3  A    between atoms: C_7  and  C_8
REMARK    4  A    between atoms: C_11  and  C_12
REMARK    5  A    between atoms: N_14  and  C_15
REMARK    6  A    between atoms: C_15  and  C_16
REMARK    7  A    between atoms: C_16  and  C_17
REMARK    8  A    between atoms: C_16  and  C_18
REMARK    9  A    between atoms: C_20  and  C_21
REMARK   10  A    between atoms: C_21  and  O_23
REMARK   11  A    between atoms: C_24  and  C_25
REMARK   12  A    between atoms: N_27  and  C_28
REMARK   13  A    between atoms: C_31  and  C_32
REMARK                            x       y       z     vdW  Elec       q    Type
REMARK                         _______ _______ _______ _____ _____    ______ ____
ROOT
ATOM      1  C   UNL     1      -1.552  14.211  21.868  0.00  0.00    +0.000 A 
ATOM      2  C   UNL     1      -0.881  13.372  22.735  0.00  0.00    +0.000 A 
ATOM      3  C   UNL     1      -0.358  12.185  22.249  0.00  0.00    +0.000 A 
ATOM      4  C   UNL     1      -0.530  11.787  20.911  0.00  0.00    +0.000 A 
ATOM      5  C   UNL     1      -1.281  12.638  20.048  0.00  0.00    +0.000 A 
ATOM      6  C   UNL     1      -1.777  13.856  20.537  0.00  0.00    +0.000 A 
ENDROOT
BRANCH   4   7
ATOM      7  C   UNL     1       0.202  10.568  20.469  0.00  0.00    +0.000 A 
ATOM      8  C   UNL     1       0.809  10.590  19.189  0.00  0.00    +0.000 A 
ATOM      9  C   UNL     1       1.549   9.523  18.678  0.00  0.00    +0.000 A 
ATOM     10  C   UNL     1       1.799   8.431  19.488  0.00  0.00    +0.000 A 
ATOM     11  C   UNL     1       1.226   8.374  20.762  0.00  0.00    +0.000 A 
ATOM     12  C   UNL     1       0.414   9.422  21.264  0.00  0.00    +0.000 A 
BRANCH  10  13
ATOM     13  C   UNL     1       2.681   7.352  18.943  0.00  0.00    +0.000 C 
ATOM     14  O   UNL     1       3.157   7.466  17.817  0.00  0.00    +0.000 OA
ATOM     15  N   UNL     1       2.949   6.273  19.762  0.00  0.00    +0.000 N 
ATOM     16  H   UNL     1       2.674   6.285  20.736  0.00  0.00    +0.000 HD
BRANCH  15  17
ATOM     17  C   UNL     1       3.817   5.193  19.322  0.00  0.00    +0.000 C 
BRANCH  17  18
ATOM     18  C   UNL     1       3.055   4.095  18.563  0.00  0.00    +0.000 C 
ATOM     19  C   UNL     1       3.813   3.639  17.313  0.00  0.00    +0.000 C 
ATOM     20  C   UNL     1       2.801   2.892  19.475  0.00  0.00    +0.000 C 
ENDBRANCH  17  18
ENDBRANCH  15  17
ENDBRANCH  10  13
BRANCH  12  21
ATOM     21  C   UNL     1      -0.072   9.178  22.671  0.00  0.00    +0.000 C 
ATOM     22  O   UNL     1      -1.120   8.575  22.883  0.00  0.00    +0.000 OA
BRANCH  21  23
ATOM     23  O   UNL     1       0.655   9.648  23.709  0.00  0.00    +0.000 OA
ATOM     24  H   UNL     1       0.767  10.609  23.768  0.00  0.00    +0.000 HD
ENDBRANCH  21  23
ENDBRANCH  12  21
ENDBRANCH   4   7
BRANCH   5  25
ATOM     25  C   UNL     1      -1.569  12.225  18.634  0.00  0.00    +0.000 C 
ATOM     26  O   UNL     1      -1.008  12.855  17.751  0.00  0.00    +0.000 OA
ATOM     27  N   UNL     1      -2.528  11.245  18.394  0.00  0.00    +0.000 N 
ATOM     28  H   UNL     1      -3.060  10.868  19.170  0.00  0.00    +0.000 HD
BRANCH  27  29
ATOM     29  C   UNL     1      -2.935  10.866  17.089  0.00  0.00    +0.000 A 
ATOM     30  C   UNL     1      -4.078  11.422  16.500  0.00  0.00    +0.000 A 
ATOM     31  C   UNL     1      -4.470  11.065  15.200  0.00  0.00    +0.000 A 
ATOM     32  C   UNL     1      -3.718  10.153  14.456  0.00  0.00    +0.000 A 
ATOM     33  C   UNL     1      -2.586   9.582  15.051  0.00  0.00    +0.000 A 
ATOM     34  C   UNL     1      -2.205   9.937  16.351  0.00  0.00    +0.000 A 
BRANCH  32  35
ATOM     35  C   UNL     1      -4.094   9.765  13.058  0.00  0.00    +0.000 C 
ATOM     36  N   UNL     1      -3.231   9.668  12.088  0.00  0.00    +0.000 NA
ATOM     37  N   UNL     1      -5.374   9.461  12.717  0.00  0.00    +0.000 N 
ATOM     38  H   UNL     1      -2.285   9.914  12.376  0.00  0.00    +0.000 HD
ATOM     39  H   UNL     1      -5.956   9.010  13.412  0.00  0.00    +0.000 HD
ATOM     40  H   UNL     1      -5.405   8.984  11.816  0.00  0.00    +0.000 HD
ENDBRANCH  32  35
ENDBRANCH  27  29
ENDBRANCH   5  25
BRANCH   1  43
ATOM     41  C   UNL     1      -2.509  17.916  23.303  0.00  0.00    +0.000 C 
ATOM     42  C   UNL     1      -2.243  16.561  22.784  0.00  0.00    +0.000 C 
ATOM     43  C   UNL     1      -1.980  15.492  22.374  0.00  0.00    +0.000 C 
ENDBRANCH   1  43
TORSDOF 10
ENDMDL
MODEL 8
REMARK VINA RESULT:      -6.8      1.474      1.968
REMARK  Name = 
REMARK  13 active torsions:
REMARK  status: ('A' for Active; 'I' for Inactive)
REMARK    1  A    between atoms: C_1  and  C_2
REMARK    2  A    between atoms: C_3  and  C_4
REMARK    3  A    between atoms: C_7  and  C_8
REMARK    4  A    between atoms: C_11  and  C_12
REMARK    5  A    between atoms: N_14  and  C_15
REMARK    6  A    between atoms: C_15  and  C_16
REMARK    7  A    between atoms: C_16  and  C_17
REMARK    8  A    between atoms: C_16  and  C_18
REMARK    9  A    between atoms: C_20  and  C_21
REMARK   10  A    between atoms: C_21  and  O_23
REMARK   11  A    between atoms: C_24  and  C_25
REMARK   12  A    between atoms: N_27  and  C_28
REMARK   13  A    between atoms: C_31  and  C_32
REMARK                            x       y       z     vdW  Elec       q    Type
REMARK                         _______ _______ _______ _____ _____    ______ ____
ROOT
ATOM      1  C   UNL     1      -3.065  14.106  22.958  0.00  0.00    +0.000 A 
ATOM      2  C   UNL     1      -1.871  13.646  23.475  0.00  0.00    +0.000 A 
ATOM      3  C   UNL     1      -1.095  12.791  22.709  0.00  0.00    +0.000 A 
ATOM      4  C   UNL     1      -1.509  12.341  21.443  0.00  0.00    +0.000 A 
ATOM      5  C   UNL     1      -2.775  12.777  20.956  0.00  0.00    +0.000 A 
ATOM      6  C   UNL     1      -3.540  13.672  21.719  0.00  0.00    +0.000 A 
ENDROOT
BRANCH   4   7
ATOM      7  C   UNL     1      -0.527  11.547  20.653  0.00  0.00    +0.000 A 
ATOM      8  C   UNL     1      -0.527  10.141  20.821  0.00  0.00    +0.000 A 
ATOM      9  C   UNL     1       0.321   9.288  20.113  0.00  0.00    +0.000 A 
ATOM     10  C   UNL     1       1.129   9.816  19.124  0.00  0.00    +0.000 A 
ATOM     11  C   UNL     1       1.153  11.198  18.920  0.00  0.00    +0.000 A 
ATOM     12  C   UNL     1       0.347  12.081  19.682  0.00  0.00    +0.000 A 
BRANCH  10  13
ATOM     13  C   UNL     1       1.950   8.860  18.317  0.00  0.00    +0.000 C 
ATOM     14  O   UNL     1       2.341   9.185  17.200  0.00  0.00    +0.000 OA
ATOM     15  N   UNL     1       2.261   7.643  18.892  0.00  0.00    +0.000 N 
ATOM     16  H   UNL     1       2.060   7.470  19.870  0.00  0.00    +0.000 HD
BRANCH  15  17
ATOM     17  C   UNL     1       3.075   6.665  18.190  0.00  0.00    +0.000 C 
BRANCH  17  18
ATOM     18  C   UNL     1       3.265   5.369  18.991  0.00  0.00    +0.000 C 
ATOM     19  C   UNL     1       4.723   5.171  19.414  0.00  0.00    +0.000 C 
ATOM     20  C   UNL     1       2.368   5.370  20.232  0.00  0.00    +0.000 C 
ENDBRANCH  17  18
ENDBRANCH  15  17
ENDBRANCH  10  13
BRANCH  12  21
ATOM     21  C   UNL     1       0.496  13.526  19.277  0.00  0.00    +0.000 C 
ATOM     22  O   UNL     1       1.376  14.231  19.760  0.00  0.00    +0.000 OA
BRANCH  21  23
ATOM     23  O   UNL     1      -0.368  14.050  18.378  0.00  0.00    +0.000 OA
ATOM     24  H   UNL     1      -0.410  15.016  18.322  0.00  0.00    +0.000 HD
ENDBRANCH  21  23
ENDBRANCH  12  21
ENDBRANCH   4   7
BRANCH   5  25
ATOM     25  C   UNL     1      -3.307  12.263  19.650  0.00  0.00    +0.000 C 
ATOM     26  O   UNL     1      -4.490  11.964  19.615  0.00  0.00    +0.000 OA
ATOM     27  N   UNL     1      -2.425  12.046  18.595  0.00  0.00    +0.000 N 
ATOM     28  H   UNL     1      -1.430  12.180  18.741  0.00  0.00    +0.000 HD
BRANCH  27  29
ATOM     29  C   UNL     1      -2.822  11.470  17.362  0.00  0.00    +0.000 A 
ATOM     30  C   UNL     1      -4.030  11.832  16.753  0.00  0.00    +0.000 A 
ATOM     31  C   UNL     1      -4.416  11.280  15.521  0.00  0.00    +0.000 A 
ATOM     32  C   UNL     1      -3.593  10.362  14.865  0.00  0.00    +0.000 A 
ATOM     33  C   UNL     1      -2.394   9.984  15.482  0.00  0.00    +0.000 A 
ATOM     34  C   UNL     1      -2.019  10.533  16.714  0.00  0.00    +0.000 A 
BRANCH  32  35
ATOM     35  C   UNL     1      -3.961   9.768  13.538  0.00  0.00    +0.000 C 
ATOM     36  N   UNL     1      -3.093   9.528  12.598  0.00  0.00    +0.000 NA
ATOM     37  N   UNL     1      -5.239   9.416  13.240  0.00  0.00    +0.000 N 
ATOM     38  H   UNL     1      -2.149   9.815  12.852  0.00  0.00    +0.000 HD
ATOM     39  H   UNL     1      -5.825   9.074  13.992  0.00  0.00    +0.000 HD
ATOM     40  H   UNL     1      -5.266   8.810  12.421  0.00  0.00    +0.000 HD
ENDBRANCH  32  35
ENDBRANCH  27  29
ENDBRANCH   5  25
BRANCH   1  43
ATOM     41  C   UNL     1      -5.089  17.057  24.934  0.00  0.00    +0.000 C 
ATOM     42  C   UNL     1      -4.374  15.942  24.283  0.00  0.00    +0.000 C 
ATOM     43  C   UNL     1      -3.792  15.087  23.727  0.00  0.00    +0.000 C 
ENDBRANCH   1  43
TORSDOF 10
ENDMDL
MODEL 9
REMARK VINA RESULT:      -6.8      3.888      6.232
REMARK  Name = 
REMARK  13 active torsions:
REMARK  status: ('A' for Active; 'I' for Inactive)
REMARK    1  A    between atoms: C_1  and  C_2
REMARK    2  A    between atoms: C_3  and  C_4
REMARK    3  A    between atoms: C_7  and  C_8
REMARK    4  A    between atoms: C_11  and  C_12
REMARK    5  A    between atoms: N_14  and  C_15
REMARK    6  A    between atoms: C_15  and  C_16
REMARK    7  A    between atoms: C_16  and  C_17
REMARK    8  A    between atoms: C_16  and  C_18
REMARK    9  A    between atoms: C_20  and  C_21
REMARK   10  A    between atoms: C_21  and  O_23
REMARK   11  A    between atoms: C_24  and  C_25
REMARK   12  A    between atoms: N_27  and  C_28
REMARK   13  A    between atoms: C_31  and  C_32
REMARK                            x       y       z     vdW  Elec       q    Type
REMARK                         _______ _______ _______ _____ _____    ______ ____
ROOT
ATOM      1  C   UNL     1      -2.501  13.832  20.689  0.00  0.00    +0.000 A 
ATOM      2  C   UNL     1      -3.034  12.643  20.232  0.00  0.00    +0.000 A 
ATOM      3  C   UNL     1      -2.173  11.626  19.851  0.00  0.00    +0.000 A 
ATOM      4  C   UNL     1      -0.777  11.785  19.872  0.00  0.00    +0.000 A 
ATOM      5  C   UNL     1      -0.249  13.043  20.285  0.00  0.00    +0.000 A 
ATOM      6  C   UNL     1      -1.124  14.057  20.705  0.00  0.00    +0.000 A 
ENDROOT
BRANCH   4   7
ATOM      7  C   UNL     1       0.045  10.576  19.584  0.00  0.00    +0.000 A 
ATOM      8  C   UNL     1       0.573  10.432  18.278  0.00  0.00    +0.000 A 
ATOM      9  C   UNL     1       1.384   9.362  17.897  0.00  0.00    +0.000 A 
ATOM     10  C   UNL     1       1.785   8.451  18.856  0.00  0.00    +0.000 A 
ATOM     11  C   UNL     1       1.294   8.562  20.159  0.00  0.00    +0.000 A 
ATOM     12  C   UNL     1       0.414   9.605  20.540  0.00  0.00    +0.000 A 
BRANCH  10  13
ATOM     13  C   UNL     1       2.736   7.376  18.433  0.00  0.00    +0.000 C 
ATOM     14  O   UNL     1       3.581   7.613  17.573  0.00  0.00    +0.000 OA
ATOM     15  N   UNL     1       2.637   6.152  19.065  0.00  0.00    +0.000 N 
ATOM     16  H   UNL     1       2.041   6.038  19.876  0.00  0.00    +0.000 HD
BRANCH  15  17
ATOM     17  C   UNL     1       3.538   5.060  18.735  0.00  0.00    +0.000 C 
BRANCH  17  18
ATOM     18  C   UNL     1       2.917   4.060  17.747  0.00  0.00    +0.000 C 
ATOM     19  C   UNL     1       3.704   2.747  17.699  0.00  0.00    +0.000 C 
ATOM     20  C   UNL     1       1.461   3.772  18.121  0.00  0.00    +0.000 C 
ENDBRANCH  17  18
ENDBRANCH  15  17
ENDBRANCH  10  13
BRANCH  12  21
ATOM     21  C   UNL     1       0.034   9.564  21.999  0.00  0.00    +0.000 C 
ATOM     22  O   UNL     1      -0.702   8.686  22.437  0.00  0.00    +0.000 OA
BRANCH  21  23
ATOM     23  O   UNL     1       0.504  10.523  22.828  0.00  0.00    +0.000 OA
ATOM     24  H   UNL     1       0.545  10.305  23.772  0.00  0.00    +0.000 HD
ENDBRANCH  21  23
ENDBRANCH  12  21
ENDBRANCH   4   7
BRANCH   5  25
ATOM     25  C   UNL     1       1.230  13.298  20.247  0.00  0.00    +0.000 C 
ATOM     26  O   UNL     1       1.902  12.781  21.124  0.00  0.00    +0.000 OA
ATOM     27  N   UNL     1       1.741  14.186  19.304  0.00  0.00    +0.000 N 
ATOM     28  H   UNL     1       1.105  14.692  18.699  0.00  0.00    +0.000 HD
BRANCH  27  29
ATOM     29  C   UNL     1       3.108  14.562  19.261  0.00  0.00    +0.000 A 
ATOM     30  C   UNL     1       3.706  15.234  20.334  0.00  0.00    +0.000 A 
ATOM     31  C   UNL     1       5.064  15.588  20.303  0.00  0.00    +0.000 A 
ATOM     32  C   UNL     1       5.857  15.265  19.199  0.00  0.00    +0.000 A 
ATOM     33  C   UNL     1       5.257  14.611  18.118  0.00  0.00    +0.000 A 
ATOM     34  C   UNL     1       3.900  14.267  18.152  0.00  0.00    +0.000 A 
BRANCH  32  35
ATOM     35  C   UNL     1       7.316  15.607  19.140  0.00  0.00    +0.000 C 
ATOM     36  N   UNL     1       7.765  16.740  18.683  0.00  0.00    +0.000 NA
ATOM     37  N   UNL     1       8.272  14.751  19.588  0.00  0.00    +0.000 N 
ATOM     38  H   UNL     1       7.023  17.350  18.345  0.00  0.00    +0.000 HD
ATOM     39  H   UNL     1       8.046  14.159  20.379  0.00  0.00    +0.000 HD
ATOM     40  H   UNL     1       9.162  15.234  19.707  0.00  0.00    +0.000 HD
ENDBRANCH  32  35
ENDBRANCH  27  29
ENDBRANCH   5  25
BRANCH   1  43
ATOM     41  C   UNL     1      -5.214  16.654  21.864  0.00  0.00    +0.000 C 
ATOM     42  C   UNL     1      -4.205  15.636  21.516  0.00  0.00    +0.000 C 
ATOM     43  C   UNL     1      -3.418  14.827  21.189  0.00  0.00    +0.000 C 
ENDBRANCH   1  43
TORSDOF 10
ENDMDL
