MODEL 1
REMARK VINA RESULT:      -7.7      0.000      0.000
REMARK  Name = 
REMARK  14 active torsions:
REMARK  status: ('A' for Active; 'I' for Inactive)
REMARK    1  A    between atoms: C_4  and  C_5
REMARK    2  A    between atoms: C_10  and  C_11
REMARK    3  A    between atoms: C_15  and  C_16
REMARK    4  A    between atoms: C_16  and  C_17
REMARK    5  A    between atoms: C_16  and  C_18
REMARK    6  A    between atoms: C_19  and  C_20
REMARK    7  A    between atoms: C_20  and  C_21
REMARK    8  A    between atoms: C_20  and  C_23
REMARK    9  A    between atoms: C_21  and  O_22
REMARK   10  A    between atoms: C_23  and  C_24
REMARK   11  A    between atoms: C_23  and  C_25
REMARK   12  A    between atoms: C_23  and  O_26
REMARK   13  A    between atoms: C_28  and  O_29
REMARK   14  A    between atoms: C_31  and  O_32
REMARK                            x       y       z     vdW  Elec       q    Type
REMARK                         _______ _______ _______ _____ _____    ______ ____
ROOT
ATOM      1  C   UNL     1       1.248   7.884  20.246  0.00  0.00    +0.000 C 
ATOM      2  C   UNL     1       0.338   8.682  20.825  0.00  0.00    +0.000 C 
ATOM      3  C   UNL     1      -0.181   8.514  22.250  0.00  0.00    +0.000 C 
ATOM      4  C   UNL     1      -0.228   9.822  23.050  0.00  0.00    +0.000 C 
ATOM      5  C   UNL     1      -0.922  10.955  22.292  0.00  0.00    +0.000 C 
ATOM      6  C   UNL     1      -0.345  11.137  20.877  0.00  0.00    +0.000 C 
ATOM      7  C   UNL     1       1.102  11.704  21.014  0.00  0.00    +0.000 C 
ATOM      8  C   UNL     1      -0.359   9.803  20.100  0.00  0.00    +0.000 C 
ATOM      9  C   UNL     1      -0.028  10.221  18.664  0.00  0.00    +0.000 C 
ATOM     10  C   UNL     1      -0.668  11.613  18.511  0.00  0.00    +0.000 C 
ATOM     11  C   UNL     1      -1.161  12.053  19.916  0.00  0.00    +0.000 C 
ENDROOT
BRANCH   1  15
ATOM     12  C   UNL     1       2.849   6.246  17.972  0.00  0.00    +0.000 C 
ATOM     13  C   UNL     1       2.239   5.364  18.783  0.00  0.00    +0.000 C 
ATOM     14  C   UNL     1       2.194   5.568  20.233  0.00  0.00    +0.000 C 
ATOM     15  C   UNL     1       1.786   6.689  20.856  0.00  0.00    +0.000 C 
ATOM     16  C   UNL     1       2.634   4.373  21.059  0.00  0.00    +0.000 C 
ATOM     17  C   UNL     1       1.942   3.077  20.617  0.00  0.00    +0.000 C 
ATOM     18  C   UNL     1       2.066   2.861  19.110  0.00  0.00    +0.000 C 
ATOM     19  C   UNL     1       1.583   4.075  18.310  0.00  0.00    +0.000 C 
BRANCH  17  20
ATOM     20  O   UNL     1       0.569   3.074  21.010  0.00  0.00    +0.000 OA
ATOM     21  H   UNL     1       0.054   2.590  20.340  0.00  0.00    +0.000 HD
ENDBRANCH  17  20
BRANCH  19  22
ATOM     22  O   UNL     1       1.836   3.834  16.927  0.00  0.00    +0.000 OA
ATOM     23  H   UNL     1       1.719   2.880  16.779  0.00  0.00    +0.000 HD
ENDBRANCH  19  22
ENDBRANCH   1  15
BRANCH  11  24
ATOM     24  C   UNL     1      -2.715  12.050  20.084  0.00  0.00    +0.000 C 
ATOM     25  C   UNL     1      -3.583  12.002  18.820  0.00  0.00    +0.000 C 
BRANCH  24  26
ATOM     26  C   UNL     1      -3.173  13.249  20.884  0.00  0.00    +0.000 C 
ATOM     27  C   UNL     1      -3.712  13.129  22.105  0.00  0.00    +0.000 C 
BRANCH  27  28
ATOM     28  C   UNL     1      -4.295  14.276  22.907  0.00  0.00    +0.000 C 
BRANCH  28  29
ATOM     29  C   UNL     1      -3.483  14.524  24.218  0.00  0.00    +0.000 C 
ATOM     30  C   UNL     1      -1.967  14.387  23.988  0.00  0.00    +0.000 C 
ATOM     31  C   UNL     1      -3.758  15.914  24.801  0.00  0.00    +0.000 C 
BRANCH  29  32
ATOM     32  O   UNL     1      -3.869  13.582  25.226  0.00  0.00    +0.000 OA
ATOM     33  H   UNL     1      -3.958  12.711  24.800  0.00  0.00    +0.000 HD
ENDBRANCH  29  32
ENDBRANCH  28  29
BRANCH  28  34
ATOM     34  C   UNL     1      -5.788  13.961  23.165  0.00  0.00    +0.000 C 
BRANCH  34  35
ATOM     35  O   UNL     1      -5.988  12.594  23.533  0.00  0.00    +0.000 OA
ATOM     36  H   UNL     1      -5.916  12.054  22.729  0.00  0.00    +0.000 HD
ENDBRANCH  34  35
ENDBRANCH  28  34
ENDBRANCH  27  28
ENDBRANCH  24  26
ENDBRANCH  11  24
TORSDOF 10
ENDMDL
MODEL 2
REMARK VINA RESULT:      -7.4      0.789      1.002
REMARK  Name = 
REMARK  14 active torsions:
REMARK  status: ('A' for Active; 'I' for Inactive)
REMARK    1  A    between atoms: C_4  and  C_5
REMARK    2  A    between atoms: C_10  and  C_11
REMARK    3  A    between atoms: C_15  and  C_16
REMARK    4  A    between atoms: C_16  and  C_17
REMARK    5  A    between atoms: C_16  and  C_18
REMARK    6  A    between atoms: C_19  and  C_20
REMARK    7  A    between atoms: C_20  and  C_21
REMARK    8  A    between atoms: C_20  and  C_23
REMARK    9  A    between atoms: C_21  and  O_22
REMARK   10  A    between atoms: C_23  and  C_24
REMARK   11  A    between atoms: C_23  and  C_25
REMARK   12  A    between atoms: C_23  and  O_26
REMARK   13  A    between atoms: C_28  and  O_29
REMARK   14  A    between atoms: C_31  and  O_32
REMARK                            x       y       z     vdW  Elec       q    Type
REMARK                         _______ _______ _______ _____ _____    ______ ____
ROOT
ATOM      1  C   UNL     1       1.313   7.895  20.233  0.00  0.00    +0.000 C 
ATOM      2  C   UNL     1       0.383   8.680  20.797  0.00  0.00    +0.000 C 
ATOM      3  C   UNL     1      -0.173   8.491  22.205  0.00  0.00    +0.000 C 
ATOM      4  C   UNL     1      -0.250   9.790  23.019  0.00  0.00    +0.000 C 
ATOM      5  C   UNL     1      -0.931  10.928  22.256  0.00  0.00    +0.000 C 
ATOM      6  C   UNL     1      -0.317  11.130  20.859  0.00  0.00    +0.000 C 
ATOM      7  C   UNL     1       1.121  11.704  21.041  0.00  0.00    +0.000 C 
ATOM      8  C   UNL     1      -0.302   9.806  20.067  0.00  0.00    +0.000 C 
ATOM      9  C   UNL     1       0.065  10.243  18.645  0.00  0.00    +0.000 C 
ATOM     10  C   UNL     1      -0.580  11.633  18.491  0.00  0.00    +0.000 C 
ATOM     11  C   UNL     1      -1.114  12.052  19.888  0.00  0.00    +0.000 C 
ENDROOT
BRANCH   1  15
ATOM     12  C   UNL     1       2.884   6.235  17.954  0.00  0.00    +0.000 C 
ATOM     13  C   UNL     1       2.269   5.361  18.771  0.00  0.00    +0.000 C 
ATOM     14  C   UNL     1       2.235   5.569  20.221  0.00  0.00    +0.000 C 
ATOM     15  C   UNL     1       1.842   6.695  20.842  0.00  0.00    +0.000 C 
ATOM     16  C   UNL     1       2.667   4.371  21.047  0.00  0.00    +0.000 C 
ATOM     17  C   UNL     1       1.960   3.082  20.612  0.00  0.00    +0.000 C 
ATOM     18  C   UNL     1       2.073   2.861  19.105  0.00  0.00    +0.000 C 
ATOM     19  C   UNL     1       1.598   4.078  18.305  0.00  0.00    +0.000 C 
BRANCH  17  20
ATOM     20  O   UNL     1       0.589   3.094  21.013  0.00  0.00    +0.000 OA
ATOM     21  H   UNL     1       0.385   3.963  21.401  0.00  0.00    +0.000 HD
ENDBRANCH  17  20
BRANCH  19  22
ATOM     22  O   UNL     1       1.841   3.831  16.921  0.00  0.00    +0.000 OA
ATOM     23  H   UNL     1       1.453   4.575  16.428  0.00  0.00    +0.000 HD
ENDBRANCH  19  22
ENDBRANCH   1  15
BRANCH  11  24
ATOM     24  C   UNL     1      -2.671  12.038  20.013  0.00  0.00    +0.000 C 
ATOM     25  C   UNL     1      -3.503  11.900  18.732  0.00  0.00    +0.000 C 
BRANCH  24  26
ATOM     26  C   UNL     1      -3.165  13.277  20.726  0.00  0.00    +0.000 C 
ATOM     27  C   UNL     1      -3.233  13.354  22.061  0.00  0.00    +0.000 C 
BRANCH  27  28
ATOM     28  C   UNL     1      -3.826  14.519  22.830  0.00  0.00    +0.000 C 
BRANCH  28  29
ATOM     29  C   UNL     1      -2.746  15.234  23.703  0.00  0.00    +0.000 C 
ATOM     30  C   UNL     1      -3.294  15.623  25.089  0.00  0.00    +0.000 C 
ATOM     31  C   UNL     1      -1.507  14.356  23.905  0.00  0.00    +0.000 C 
BRANCH  29  32
ATOM     32  O   UNL     1      -2.291  16.426  23.051  0.00  0.00    +0.000 OA
ATOM     33  H   UNL     1      -2.490  17.179  23.637  0.00  0.00    +0.000 HD
ENDBRANCH  29  32
ENDBRANCH  28  29
BRANCH  28  34
ATOM     34  C   UNL     1      -5.019  13.981  23.657  0.00  0.00    +0.000 C 
BRANCH  34  35
ATOM     35  O   UNL     1      -4.947  12.565  23.835  0.00  0.00    +0.000 OA
ATOM     36  H   UNL     1      -5.067  12.147  22.966  0.00  0.00    +0.000 HD
ENDBRANCH  34  35
ENDBRANCH  28  34
ENDBRANCH  27  28
ENDBRANCH  24  26
ENDBRANCH  11  24
TORSDOF 10
ENDMDL
MODEL 3
REMARK VINA RESULT:      -7.3      1.046      1.405
REMARK  Name = 
REMARK  14 active torsions:
REMARK  status: ('A' for Active; 'I' for Inactive)
REMARK    1  A    between atoms: C_4  and  C_5
REMARK    2  A    between atoms: C_10  and  C_11
REMARK    3  A    between atoms: C_15  and  C_16
REMARK    4  A    between atoms: C_16  and  C_17
REMARK    5  A    between atoms: C_16  and  C_18
REMARK    6  A    between atoms: C_19  and  C_20
REMARK    7  A    between atoms: C_20  and  C_21
REMARK    8  A    between atoms: C_20  and  C_23
REMARK    9  A    between atoms: C_21  and  O_22
REMARK   10  A    between atoms: C_23  and  C_24
REMARK   11  A    between atoms: C_23  and  C_25
REMARK   12  A    between atoms: C_23  and  O_26
REMARK   13  A    between atoms: C_28  and  O_29
REMARK   14  A    between atoms: C_31  and  O_32
REMARK                            x       y       z     vdW  Elec       q    Type
REMARK                         _______ _______ _______ _____ _____    ______ ____
ROOT
ATOM      1  C   UNL     1       1.369   7.862  20.212  0.00  0.00    +0.000 C 
ATOM      2  C   UNL     1       0.440   8.654  20.768  0.00  0.00    +0.000 C 
ATOM      3  C   UNL     1      -0.130   8.471  22.171  0.00  0.00    +0.000 C 
ATOM      4  C   UNL     1      -0.203   9.770  22.985  0.00  0.00    +0.000 C 
ATOM      5  C   UNL     1      -0.867  10.914  22.216  0.00  0.00    +0.000 C 
ATOM      6  C   UNL     1      -0.239  11.110  20.824  0.00  0.00    +0.000 C 
ATOM      7  C   UNL     1       1.202  11.672  21.019  0.00  0.00    +0.000 C 
ATOM      8  C   UNL     1      -0.228   9.786  20.032  0.00  0.00    +0.000 C 
ATOM      9  C   UNL     1       0.155  10.220  18.614  0.00  0.00    +0.000 C 
ATOM     10  C   UNL     1      -0.477  11.615  18.454  0.00  0.00    +0.000 C 
ATOM     11  C   UNL     1      -1.019  12.039  19.846  0.00  0.00    +0.000 C 
ENDROOT
BRANCH   1  15
ATOM     12  C   UNL     1       2.896   6.160  17.934  0.00  0.00    +0.000 C 
ATOM     13  C   UNL     1       2.273   5.302  18.762  0.00  0.00    +0.000 C 
ATOM     14  C   UNL     1       2.253   5.521  20.210  0.00  0.00    +0.000 C 
ATOM     15  C   UNL     1       1.883   6.658  20.827  0.00  0.00    +0.000 C 
ATOM     16  C   UNL     1       2.671   4.322  21.042  0.00  0.00    +0.000 C 
ATOM     17  C   UNL     1       1.939   3.041  20.621  0.00  0.00    +0.000 C 
ATOM     18  C   UNL     1       2.038   2.808  19.115  0.00  0.00    +0.000 C 
ATOM     19  C   UNL     1       1.577   4.027  18.309  0.00  0.00    +0.000 C 
BRANCH  17  20
ATOM     20  O   UNL     1       0.571   3.079  21.031  0.00  0.00    +0.000 OA
ATOM     21  H   UNL     1       0.007   3.058  20.238  0.00  0.00    +0.000 HD
ENDBRANCH  17  20
BRANCH  19  22
ATOM     22  O   UNL     1       1.806   3.767  16.926  0.00  0.00    +0.000 OA
ATOM     23  H   UNL     1       2.355   2.964  16.875  0.00  0.00    +0.000 HD
ENDBRANCH  19  22
ENDBRANCH   1  15
BRANCH  11  24
ATOM     24  C   UNL     1      -2.578  12.038  19.958  0.00  0.00    +0.000 C 
ATOM     25  C   UNL     1      -3.400  11.836  18.678  0.00  0.00    +0.000 C 
BRANCH  24  26
ATOM     26  C   UNL     1      -3.073  13.315  20.598  0.00  0.00    +0.000 C 
ATOM     27  C   UNL     1      -3.158  13.461  21.927  0.00  0.00    +0.000 C 
BRANCH  27  28
ATOM     28  C   UNL     1      -3.753  14.668  22.627  0.00  0.00    +0.000 C 
BRANCH  28  29
ATOM     29  C   UNL     1      -4.785  14.241  23.719  0.00  0.00    +0.000 C 
ATOM     30  C   UNL     1      -6.090  13.711  23.097  0.00  0.00    +0.000 C 
ATOM     31  C   UNL     1      -4.219  13.160  24.644  0.00  0.00    +0.000 C 
BRANCH  29  32
ATOM     32  O   UNL     1      -5.111  15.357  24.556  0.00  0.00    +0.000 OA
ATOM     33  H   UNL     1      -4.430  16.040  24.418  0.00  0.00    +0.000 HD
ENDBRANCH  29  32
ENDBRANCH  28  29
BRANCH  28  34
ATOM     34  C   UNL     1      -4.358  15.592  21.543  0.00  0.00    +0.000 C 
BRANCH  34  35
ATOM     35  O   UNL     1      -4.850  16.813  22.099  0.00  0.00    +0.000 OA
ATOM     36  H   UNL     1      -5.659  17.056  21.620  0.00  0.00    +0.000 HD
ENDBRANCH  34  35
ENDBRANCH  28  34
ENDBRANCH  27  28
ENDBRANCH  24  26
ENDBRANCH  11  24
TORSDOF 10
ENDMDL
MODEL 4
REMARK VINA RESULT:      -7.3      1.200      1.416
REMARK  Name = 
REMARK  14 active torsions:
REMARK  status: ('A' for Active; 'I' for Inactive)
REMARK    1  A    between atoms: C_4  and  C_5
REMARK    2  A    between atoms: C_10  and  C_11
REMARK    3  A    between atoms: C_15  and  C_16
REMARK    4  A    between atoms: C_16  and  C_17
REMARK    5  A    between atoms: C_16  and  C_18
REMARK    6  A    between atoms: C_19  and  C_20
REMARK    7  A    between atoms: C_20  and  C_21
REMARK    8  A    between atoms: C_20  and  C_23
REMARK    9  A    between atoms: C_21  and  O_22
REMARK   10  A    between atoms: C_23  and  C_24
REMARK   11  A    between atoms: C_23  and  C_25
REMARK   12  A    between atoms: C_23  and  O_26
REMARK   13  A    between atoms: C_28  and  O_29
REMARK   14  A    between atoms: C_31  and  O_32
REMARK                            x       y       z     vdW  Elec       q    Type
REMARK                         _______ _______ _______ _____ _____    ______ ____
ROOT
ATOM      1  C   UNL     1       1.548   7.799  20.194  0.00  0.00    +0.000 C 
ATOM      2  C   UNL     1       0.529   8.535  20.661  0.00  0.00    +0.000 C 
ATOM      3  C   UNL     1      -0.212   8.261  21.966  0.00  0.00    +0.000 C 
ATOM      4  C   UNL     1      -0.435   9.512  22.827  0.00  0.00    +0.000 C 
ATOM      5  C   UNL     1      -1.031  10.678  22.035  0.00  0.00    +0.000 C 
ATOM      6  C   UNL     1      -0.235  10.966  20.750  0.00  0.00    +0.000 C 
ATOM      7  C   UNL     1       1.149  11.555  21.161  0.00  0.00    +0.000 C 
ATOM      8  C   UNL     1      -0.076   9.687  19.901  0.00  0.00    +0.000 C 
ATOM      9  C   UNL     1       0.474  10.207  18.569  0.00  0.00    +0.000 C 
ATOM     10  C   UNL     1      -0.178  11.591  18.397  0.00  0.00    +0.000 C 
ATOM     11  C   UNL     1      -0.912  11.925  19.725  0.00  0.00    +0.000 C 
ENDROOT
BRANCH   1  15
ATOM     12  C   UNL     1       3.016   6.042  17.919  0.00  0.00    +0.000 C 
ATOM     13  C   UNL     1       2.362   5.207  18.747  0.00  0.00    +0.000 C 
ATOM     14  C   UNL     1       2.348   5.428  20.195  0.00  0.00    +0.000 C 
ATOM     15  C   UNL     1       2.018   6.578  20.810  0.00  0.00    +0.000 C 
ATOM     16  C   UNL     1       2.722   4.216  21.028  0.00  0.00    +0.000 C 
ATOM     17  C   UNL     1       1.945   2.962  20.608  0.00  0.00    +0.000 C 
ATOM     18  C   UNL     1       2.037   2.724  19.102  0.00  0.00    +0.000 C 
ATOM     19  C   UNL     1       1.621   3.958  18.295  0.00  0.00    +0.000 C 
BRANCH  17  20
ATOM     20  O   UNL     1       0.579   3.049  21.017  0.00  0.00    +0.000 OA
ATOM     21  H   UNL     1       0.140   2.203  20.816  0.00  0.00    +0.000 HD
ENDBRANCH  17  20
BRANCH  19  22
ATOM     22  O   UNL     1       1.842   3.688  16.912  0.00  0.00    +0.000 OA
ATOM     23  H   UNL     1       1.978   4.546  16.474  0.00  0.00    +0.000 HD
ENDBRANCH  19  22
ENDBRANCH   1  15
BRANCH  11  24
ATOM     24  C   UNL     1      -2.471  11.876  19.630  0.00  0.00    +0.000 C 
ATOM     25  C   UNL     1      -3.116  11.894  18.238  0.00  0.00    +0.000 C 
BRANCH  24  26
ATOM     26  C   UNL     1      -3.094  13.006  20.417  0.00  0.00    +0.000 C 
ATOM     27  C   UNL     1      -4.029  12.794  21.353  0.00  0.00    +0.000 C 
BRANCH  27  28
ATOM     28  C   UNL     1      -4.774  13.889  22.093  0.00  0.00    +0.000 C 
BRANCH  28  29
ATOM     29  C   UNL     1      -5.610  13.308  23.277  0.00  0.00    +0.000 C 
ATOM     30  C   UNL     1      -4.709  12.781  24.410  0.00  0.00    +0.000 C 
ATOM     31  C   UNL     1      -6.561  14.354  23.867  0.00  0.00    +0.000 C 
BRANCH  29  32
ATOM     32  O   UNL     1      -6.433  12.228  22.821  0.00  0.00    +0.000 OA
ATOM     33  H   UNL     1      -7.362  12.478  22.972  0.00  0.00    +0.000 HD
ENDBRANCH  29  32
ENDBRANCH  28  29
BRANCH  28  34
ATOM     34  C   UNL     1      -5.633  14.656  21.059  0.00  0.00    +0.000 C 
BRANCH  34  35
ATOM     35  O   UNL     1      -6.503  13.783  20.336  0.00  0.00    +0.000 OA
ATOM     36  H   UNL     1      -6.857  13.129  20.961  0.00  0.00    +0.000 HD
ENDBRANCH  34  35
ENDBRANCH  28  34
ENDBRANCH  27  28
ENDBRANCH  24  26
ENDBRANCH  11  24
TORSDOF 10
ENDMDL
MODEL 5
REMARK VINA RESULT:      -7.1      1.554      1.966
REMARK  Name = 
REMARK  14 active torsions:
REMARK  status: ('A' for Active; 'I' for Inactive)
REMARK    1  A    between atoms: C_4  and  C_5
REMARK    2  A    between atoms: C_10  and  C_11
REMARK    3  A    between atoms: C_15  and  C_16
REMARK    4  A    between atoms: C_16  and  C_17
REMARK    5  A    between atoms: C_16  and  C_18
REMARK    6  A    between atoms: C_19  and  C_20
REMARK    7  A    between atoms: C_20  and  C_21
REMARK    8  A    between atoms: C_20  and  C_23
REMARK    9  A    between atoms: C_21  and  O_22
REMARK   10  A    between atoms: C_23  and  C_24
REMARK   11  A    between atoms: C_23  and  C_25
REMARK   12  A    between atoms: C_23  and  O_26
REMARK   13  A    between atoms: C_28  and  O_29
REMARK   14  A    between atoms: C_31  and  O_32
REMARK                            x       y       z     vdW  Elec       q    Type
REMARK                         _______ _______ _______ _____ _____    ______ ____
ROOT
ATOM      1  C   UNL     1       1.279   7.916  20.236  0.00  0.00    +0.000 C 
ATOM      2  C   UNL     1       0.369   8.713  20.815  0.00  0.00    +0.000 C 
ATOM      3  C   UNL     1      -0.162   8.536  22.234  0.00  0.00    +0.000 C 
ATOM      4  C   UNL     1      -0.209   9.839  23.045  0.00  0.00    +0.000 C 
ATOM      5  C   UNL     1      -0.891  10.981  22.291  0.00  0.00    +0.000 C 
ATOM      6  C   UNL     1      -0.302  11.172  20.881  0.00  0.00    +0.000 C 
ATOM      7  C   UNL     1       1.146  11.730  21.033  0.00  0.00    +0.000 C 
ATOM      8  C   UNL     1      -0.317   9.844  20.094  0.00  0.00    +0.000 C 
ATOM      9  C   UNL     1       0.027  10.272  18.664  0.00  0.00    +0.000 C 
ATOM     10  C   UNL     1      -0.605  11.668  18.516  0.00  0.00    +0.000 C 
ATOM     11  C   UNL     1      -1.107  12.099  19.922  0.00  0.00    +0.000 C 
ENDROOT
BRANCH   1  15
ATOM     12  C   UNL     1       2.887   6.287  17.961  0.00  0.00    +0.000 C 
ATOM     13  C   UNL     1       2.267   5.402  18.761  0.00  0.00    +0.000 C 
ATOM     14  C   UNL     1       2.213   5.595  20.212  0.00  0.00    +0.000 C 
ATOM     15  C   UNL     1       1.807   6.713  20.840  0.00  0.00    +0.000 C 
ATOM     16  C   UNL     1       2.641   4.391  21.032  0.00  0.00    +0.000 C 
ATOM     17  C   UNL     1       1.946   3.103  20.574  0.00  0.00    +0.000 C 
ATOM     18  C   UNL     1       2.079   2.898  19.067  0.00  0.00    +0.000 C 
ATOM     19  C   UNL     1       1.608   4.120  18.273  0.00  0.00    +0.000 C 
BRANCH  17  20
ATOM     20  O   UNL     1       0.570   3.103  20.958  0.00  0.00    +0.000 OA
ATOM     21  H   UNL     1       0.130   3.866  20.541  0.00  0.00    +0.000 HD
ENDBRANCH  17  20
BRANCH  19  22
ATOM     22  O   UNL     1       1.870   3.889  16.890  0.00  0.00    +0.000 OA
ATOM     23  H   UNL     1       2.544   4.535  16.617  0.00  0.00    +0.000 HD
ENDBRANCH  19  22
ENDBRANCH   1  15
BRANCH  11  24
ATOM     24  C   UNL     1      -2.662  12.103  20.077  0.00  0.00    +0.000 C 
ATOM     25  C   UNL     1      -3.520  11.953  18.815  0.00  0.00    +0.000 C 
BRANCH  24  26
ATOM     26  C   UNL     1      -3.130  13.358  20.778  0.00  0.00    +0.000 C 
ATOM     27  C   UNL     1      -4.408  13.757  20.751  0.00  0.00    +0.000 C 
BRANCH  27  28
ATOM     28  C   UNL     1      -4.918  15.062  21.333  0.00  0.00    +0.000 C 
BRANCH  28  29
ATOM     29  C   UNL     1      -6.226  14.845  22.159  0.00  0.00    +0.000 C 
ATOM     30  C   UNL     1      -6.772  13.414  22.000  0.00  0.00    +0.000 C 
ATOM     31  C   UNL     1      -6.005  15.112  23.651  0.00  0.00    +0.000 C 
BRANCH  29  32
ATOM     32  O   UNL     1      -7.240  15.761  21.732  0.00  0.00    +0.000 OA
ATOM     33  H   UNL     1      -7.875  15.267  21.183  0.00  0.00    +0.000 HD
ENDBRANCH  29  32
ENDBRANCH  28  29
BRANCH  28  34
ATOM     34  C   UNL     1      -5.094  16.062  20.165  0.00  0.00    +0.000 C 
BRANCH  34  35
ATOM     35  O   UNL     1      -5.782  15.474  19.059  0.00  0.00    +0.000 OA
ATOM     36  H   UNL     1      -6.446  14.859  19.413  0.00  0.00    +0.000 HD
ENDBRANCH  34  35
ENDBRANCH  28  34
ENDBRANCH  27  28
ENDBRANCH  24  26
ENDBRANCH  11  24
TORSDOF 10
ENDMDL
MODEL 6
REMARK VINA RESULT:      -7.0      2.033      2.492
REMARK  Name = 
REMARK  14 active torsions:
REMARK  status: ('A' for Active; 'I' for Inactive)
REMARK    1  A    between atoms: C_4  and  C_5
REMARK    2  A    between atoms: C_10  and  C_11
REMARK    3  A    between atoms: C_15  and  C_16
REMARK    4  A    between atoms: C_16  and  C_17
REMARK    5  A    between atoms: C_16  and  C_18
REMARK    6  A    between atoms: C_19  and  C_20
REMARK    7  A    between atoms: C_20  and  C_21
REMARK    8  A    between atoms: C_20  and  C_23
REMARK    9  A    between atoms: C_21  and  O_22
REMARK   10  A    between atoms: C_23  and  C_24
REMARK   11  A    between atoms: C_23  and  C_25
REMARK   12  A    between atoms: C_23  and  O_26
REMARK   13  A    between atoms: C_28  and  O_29
REMARK   14  A    between atoms: C_31  and  O_32
REMARK                            x       y       z     vdW  Elec       q    Type
REMARK                         _______ _______ _______ _____ _____    ______ ____
ROOT
ATOM      1  C   UNL     1       1.281   7.910  20.246  0.00  0.00    +0.000 C 
ATOM      2  C   UNL     1       0.377   8.728  20.806  0.00  0.00    +0.000 C 
ATOM      3  C   UNL     1      -0.178   8.571  22.219  0.00  0.00    +0.000 C 
ATOM      4  C   UNL     1      -0.212   9.880  23.020  0.00  0.00    +0.000 C 
ATOM      5  C   UNL     1      -0.862  11.030  22.248  0.00  0.00    +0.000 C 
ATOM      6  C   UNL     1      -0.249  11.199  20.846  0.00  0.00    +0.000 C 
ATOM      7  C   UNL     1       1.207  11.731  21.016  0.00  0.00    +0.000 C 
ATOM      8  C   UNL     1      -0.277   9.867  20.067  0.00  0.00    +0.000 C 
ATOM      9  C   UNL     1       0.096  10.278  18.640  0.00  0.00    +0.000 C 
ATOM     10  C   UNL     1      -0.507  11.685  18.474  0.00  0.00    +0.000 C 
ATOM     11  C   UNL     1      -1.022  12.135  19.869  0.00  0.00    +0.000 C 
ENDROOT
BRANCH   1  15
ATOM     12  C   UNL     1       2.955   6.272  18.026  0.00  0.00    +0.000 C 
ATOM     13  C   UNL     1       2.299   5.390  18.802  0.00  0.00    +0.000 C 
ATOM     14  C   UNL     1       2.196   5.581  20.251  0.00  0.00    +0.000 C 
ATOM     15  C   UNL     1       1.777   6.701  20.866  0.00  0.00    +0.000 C 
ATOM     16  C   UNL     1       2.584   4.372  21.082  0.00  0.00    +0.000 C 
ATOM     17  C   UNL     1       1.895   3.091  20.598  0.00  0.00    +0.000 C 
ATOM     18  C   UNL     1       2.079   2.887  19.096  0.00  0.00    +0.000 C 
ATOM     19  C   UNL     1       1.647   4.115  18.288  0.00  0.00    +0.000 C 
BRANCH  17  20
ATOM     20  O   UNL     1       0.506   3.103  20.933  0.00  0.00    +0.000 OA
ATOM     21  H   UNL     1       0.152   2.202  20.823  0.00  0.00    +0.000 HD
ENDBRANCH  17  20
BRANCH  19  22
ATOM     22  O   UNL     1       1.956   3.884  16.915  0.00  0.00    +0.000 OA
ATOM     23  H   UNL     1       2.926   3.880  16.839  0.00  0.00    +0.000 HD
ENDBRANCH  19  22
ENDBRANCH   1  15
BRANCH  11  24
ATOM     24  C   UNL     1      -2.579  12.169  20.001  0.00  0.00    +0.000 C 
ATOM     25  C   UNL     1      -3.422  11.833  18.765  0.00  0.00    +0.000 C 
BRANCH  24  26
ATOM     26  C   UNL     1      -3.047  13.517  20.498  0.00  0.00    +0.000 C 
ATOM     27  C   UNL     1      -2.194  14.512  20.776  0.00  0.00    +0.000 C 
BRANCH  27  28
ATOM     28  C   UNL     1      -2.589  15.843  21.386  0.00  0.00    +0.000 C 
BRANCH  28  29
ATOM     29  C   UNL     1      -2.418  17.011  20.363  0.00  0.00    +0.000 C 
ATOM     30  C   UNL     1      -2.264  18.372  21.068  0.00  0.00    +0.000 C 
ATOM     31  C   UNL     1      -1.202  16.799  19.456  0.00  0.00    +0.000 C 
BRANCH  29  32
ATOM     32  O   UNL     1      -3.558  17.083  19.498  0.00  0.00    +0.000 OA
ATOM     33  H   UNL     1      -3.370  17.752  18.815  0.00  0.00    +0.000 HD
ENDBRANCH  29  32
ENDBRANCH  28  29
BRANCH  28  34
ATOM     34  C   UNL     1      -1.757  16.037  22.677  0.00  0.00    +0.000 C 
BRANCH  34  35
ATOM     35  O   UNL     1      -0.630  15.159  22.720  0.00  0.00    +0.000 OA
ATOM     36  H   UNL     1      -0.731  14.506  22.008  0.00  0.00    +0.000 HD
ENDBRANCH  34  35
ENDBRANCH  28  34
ENDBRANCH  27  28
ENDBRANCH  24  26
ENDBRANCH  11  24
TORSDOF 10
ENDMDL
MODEL 7
REMARK VINA RESULT:      -7.0      1.165      1.404
REMARK  Name = 
REMARK  14 active torsions:
REMARK  status: ('A' for Active; 'I' for Inactive)
REMARK    1  A    between atoms: C_4  and  C_5
REMARK    2  A    between atoms: C_10  and  C_11
REMARK    3  A    between atoms: C_15  and  C_16
REMARK    4  A    between atoms: C_16  and  C_17
REMARK    5  A    between atoms: C_16  and  C_18
REMARK    6  A    between atoms: C_19  and  C_20
REMARK    7  A    between atoms: C_20  and  C_21
REMARK    8  A    between atoms: C_20  and  C_23
REMARK    9  A    between atoms: C_21  and  O_22
REMARK   10  A    between atoms: C_23  and  C_24
REMARK   11  A    between atoms: C_23  and  C_25
REMARK   12  A    between atoms: C_23  and  O_26
REMARK   13  A    between atoms: C_28  and  O_29
REMARK   14  A    between atoms: C_31  and  O_32
REMARK                            x       y       z     vdW  Elec       q    Type
REMARK                         _______ _______ _______ _____ _____    ______ ____
ROOT
ATOM      1  C   UNL     1       1.259   7.859  20.256  0.00  0.00    +0.000 C 
ATOM      2  C   UNL     1       0.375   8.676  20.848  0.00  0.00    +0.000 C 
ATOM      3  C   UNL     1      -0.131   8.517  22.278  0.00  0.00    +0.000 C 
ATOM      4  C   UNL     1      -0.137   9.824  23.083  0.00  0.00    +0.000 C 
ATOM      5  C   UNL     1      -0.812  10.975  22.336  0.00  0.00    +0.000 C 
ATOM      6  C   UNL     1      -0.248  11.147  20.914  0.00  0.00    +0.000 C 
ATOM      7  C   UNL     1       1.213  11.679  21.035  0.00  0.00    +0.000 C 
ATOM      8  C   UNL     1      -0.303   9.816  20.134  0.00  0.00    +0.000 C 
ATOM      9  C   UNL     1       0.021  10.230  18.695  0.00  0.00    +0.000 C 
ATOM     10  C   UNL     1      -0.588  11.638  18.553  0.00  0.00    +0.000 C 
ATOM     11  C   UNL     1      -1.054  12.085  19.965  0.00  0.00    +0.000 C 
ENDROOT
BRANCH   1  15
ATOM     12  C   UNL     1       2.878   6.238  17.983  0.00  0.00    +0.000 C 
ATOM     13  C   UNL     1       2.247   5.350  18.772  0.00  0.00    +0.000 C 
ATOM     14  C   UNL     1       2.182   5.534  20.224  0.00  0.00    +0.000 C 
ATOM     15  C   UNL     1       1.776   6.649  20.856  0.00  0.00    +0.000 C 
ATOM     16  C   UNL     1       2.597   4.322  21.039  0.00  0.00    +0.000 C 
ATOM     17  C   UNL     1       1.899   3.040  20.566  0.00  0.00    +0.000 C 
ATOM     18  C   UNL     1       2.044   2.845  19.059  0.00  0.00    +0.000 C 
ATOM     19  C   UNL     1       1.586   4.075  18.269  0.00  0.00    +0.000 C 
BRANCH  17  20
ATOM     20  O   UNL     1       0.520   3.045  20.938  0.00  0.00    +0.000 OA
ATOM     21  H   UNL     1       0.199   2.127  20.957  0.00  0.00    +0.000 HD
ENDBRANCH  17  20
BRANCH  19  22
ATOM     22  O   UNL     1       1.858   3.852  16.887  0.00  0.00    +0.000 OA
ATOM     23  H   UNL     1       2.674   3.323  16.840  0.00  0.00    +0.000 HD
ENDBRANCH  19  22
ENDBRANCH   1  15
BRANCH  11  24
ATOM     24  C   UNL     1      -2.605  12.119  20.151  0.00  0.00    +0.000 C 
ATOM     25  C   UNL     1      -3.490  12.031  18.901  0.00  0.00    +0.000 C 
BRANCH  24  26
ATOM     26  C   UNL     1      -3.030  13.360  20.903  0.00  0.00    +0.000 C 
ATOM     27  C   UNL     1      -2.143  14.207  21.443  0.00  0.00    +0.000 C 
BRANCH  27  28
ATOM     28  C   UNL     1      -2.504  15.401  22.306  0.00  0.00    +0.000 C 
BRANCH  28  29
ATOM     29  C   UNL     1      -1.264  15.929  23.094  0.00  0.00    +0.000 C 
ATOM     30  C   UNL     1      -0.148  16.413  22.149  0.00  0.00    +0.000 C 
ATOM     31  C   UNL     1      -1.636  17.084  24.030  0.00  0.00    +0.000 C 
BRANCH  29  32
ATOM     32  O   UNL     1      -0.727  14.894  23.926  0.00  0.00    +0.000 OA
ATOM     33  H   UNL     1      -0.517  15.288  24.792  0.00  0.00    +0.000 HD
ENDBRANCH  29  32
ENDBRANCH  28  29
BRANCH  28  34
ATOM     34  C   UNL     1      -3.678  14.983  23.224  0.00  0.00    +0.000 C 
BRANCH  34  35
ATOM     35  O   UNL     1      -3.275  14.014  24.195  0.00  0.00    +0.000 OA
ATOM     36  H   UNL     1      -3.938  14.007  24.904  0.00  0.00    +0.000 HD
ENDBRANCH  34  35
ENDBRANCH  28  34
ENDBRANCH  27  28
ENDBRANCH  24  26
ENDBRANCH  11  24
TORSDOF 10
ENDMDL
MODEL 8
REMARK VINA RESULT:      -6.8      1.973     10.082
REMARK  Name = 
REMARK  14 active torsions:
REMARK  status: ('A' for Active; 'I' for Inactive)
REMARK    1  A    between atoms: C_4  and  C_5
REMARK    2  A    between atoms: C_10  and  C_11
REMARK    3  A    between atoms: C_15  and  C_16
REMARK    4  A    between atoms: C_16  and  C_17
REMARK    5  A    between atoms: C_16  and  C_18
REMARK    6  A    between atoms: C_19  and  C_20
REMARK    7  A    between atoms: C_20  and  C_21
REMARK    8  A    between atoms: C_20  and  C_23
REMARK    9  A    between atoms: C_21  and  O_22
REMARK   10  A    between atoms: C_23  and  C_24
REMARK   11  A    between atoms: C_23  and  C_25
REMARK   12  A    between atoms: C_23  and  O_26
REMARK   13  A    between atoms: C_28  and  O_29
REMARK   14  A    between atoms: C_31  and  O_32
REMARK                            x       y       z     vdW  Elec       q    Type
REMARK                         _______ _______ _______ _____ _____    ______ ____
ROOT
ATOM      1  C   UNL     1      -2.685  13.091  20.792  0.00  0.00    +0.000 C 
ATOM      2  C   UNL     1      -2.302  12.053  20.034  0.00  0.00    +0.000 C 
ATOM      3  C   UNL     1      -3.224  11.271  19.105  0.00  0.00    +0.000 C 
ATOM      4  C   UNL     1      -2.630  11.014  17.714  0.00  0.00    +0.000 C 
ATOM      5  C   UNL     1      -1.214  10.438  17.772  0.00  0.00    +0.000 C 
ATOM      6  C   UNL     1      -0.290  11.275  18.676  0.00  0.00    +0.000 C 
ATOM      7  C   UNL     1      -0.033  12.642  17.970  0.00  0.00    +0.000 C 
ATOM      8  C   UNL     1      -0.914  11.468  20.074  0.00  0.00    +0.000 C 
ATOM      9  C   UNL     1       0.233  12.059  20.900  0.00  0.00    +0.000 C 
ATOM     10  C   UNL     1       1.501  11.405  20.320  0.00  0.00    +0.000 C 
ATOM     11  C   UNL     1       1.078  10.627  19.044  0.00  0.00    +0.000 C 
ENDROOT
BRANCH   1  15
ATOM     12  C   UNL     1      -3.158  13.989  23.857  0.00  0.00    +0.000 C 
ATOM     13  C   UNL     1      -4.285  13.412  23.402  0.00  0.00    +0.000 C 
ATOM     14  C   UNL     1      -4.774  13.663  22.045  0.00  0.00    +0.000 C 
ATOM     15  C   UNL     1      -4.052  13.547  20.916  0.00  0.00    +0.000 C 
ATOM     16  C   UNL     1      -6.236  14.062  21.958  0.00  0.00    +0.000 C 
ATOM     17  C   UNL     1      -7.143  13.116  22.755  0.00  0.00    +0.000 C 
ATOM     18  C   UNL     1      -6.642  12.930  24.184  0.00  0.00    +0.000 C 
ATOM     19  C   UNL     1      -5.173  12.496  24.231  0.00  0.00    +0.000 C 
BRANCH  17  20
ATOM     20  O   UNL     1      -7.261  11.852  22.099  0.00  0.00    +0.000 OA
ATOM     21  H   UNL     1      -7.088  11.147  22.748  0.00  0.00    +0.000 HD
ENDBRANCH  17  20
BRANCH  19  22
ATOM     22  O   UNL     1      -4.757  12.455  25.595  0.00  0.00    +0.000 OA
ATOM     23  H   UNL     1      -5.449  12.899  26.116  0.00  0.00    +0.000 HD
ENDBRANCH  19  22
ENDBRANCH   1  15
BRANCH  11  24
ATOM     24  C   UNL     1       1.109   9.072  19.198  0.00  0.00    +0.000 C 
ATOM     25  C   UNL     1       1.452   8.483  20.572  0.00  0.00    +0.000 C 
BRANCH  24  26
ATOM     26  C   UNL     1       2.065   8.452  18.205  0.00  0.00    +0.000 C 
ATOM     27  C   UNL     1       2.443   7.168  18.282  0.00  0.00    +0.000 C 
BRANCH  27  28
ATOM     28  C   UNL     1       3.484   6.519  17.391  0.00  0.00    +0.000 C 
BRANCH  28  29
ATOM     29  C   UNL     1       3.590   4.985  17.664  0.00  0.00    +0.000 C 
ATOM     30  C   UNL     1       4.260   4.688  19.018  0.00  0.00    +0.000 C 
ATOM     31  C   UNL     1       2.214   4.310  17.649  0.00  0.00    +0.000 C 
BRANCH  29  32
ATOM     32  O   UNL     1       4.359   4.351  16.635  0.00  0.00    +0.000 OA
ATOM     33  H   UNL     1       4.721   3.524  17.002  0.00  0.00    +0.000 HD
ENDBRANCH  29  32
ENDBRANCH  28  29
BRANCH  28  34
ATOM     34  C   UNL     1       4.821   7.269  17.603  0.00  0.00    +0.000 C 
BRANCH  34  35
ATOM     35  O   UNL     1       5.753   7.002  16.554  0.00  0.00    +0.000 OA
ATOM     36  H   UNL     1       5.273   6.567  15.830  0.00  0.00    +0.000 HD
ENDBRANCH  34  35
ENDBRANCH  28  34
ENDBRANCH  27  28
ENDBRANCH  24  26
ENDBRANCH  11  24
TORSDOF 10
ENDMDL
MODEL 9
REMARK VINA RESULT:      -6.8      2.572      4.097
REMARK  Name = 
REMARK  14 active torsions:
REMARK  status: ('A' for Active; 'I' for Inactive)
REMARK    1  A    between atoms: C_4  and  C_5
REMARK    2  A    between atoms: C_10  and  C_11
REMARK    3  A    between atoms: C_15  and  C_16
REMARK    4  A    between atoms: C_16  and  C_17
REMARK    5  A    between atoms: C_16  and  C_18
REMARK    6  A    between atoms: C_19  and  C_20
REMARK    7  A    between atoms: C_20  and  C_21
REMARK    8  A    between atoms: C_20  and  C_23
REMARK    9  A    between atoms: C_21  and  O_22
REMARK   10  A    between atoms: C_23  and  C_24
REMARK   11  A    between atoms: C_23  and  C_25
REMARK   12  A    between atoms: C_23  and  O_26
REMARK   13  A    between atoms: C_28  and  O_29
REMARK   14  A    between atoms: C_31  and  O_32
REMARK                            x       y       z     vdW  Elec       q    Type
REMARK                         _______ _______ _______ _____ _____    ______ ____
ROOT
ATOM      1  C   UNL     1       1.163   8.002  20.393  0.00  0.00    +0.000 C 
ATOM      2  C   UNL     1       0.341   8.922  20.919  0.00  0.00    +0.000 C 
ATOM      3  C   UNL     1      -0.337   8.802  22.280  0.00  0.00    +0.000 C 
ATOM      4  C   UNL     1      -0.251  10.077  23.131  0.00  0.00    +0.000 C 
ATOM      5  C   UNL     1      -0.672  11.331  22.363  0.00  0.00    +0.000 C 
ATOM      6  C   UNL     1       0.064  11.455  21.016  0.00  0.00    +0.000 C 
ATOM      7  C   UNL     1       1.563  11.769  21.313  0.00  0.00    +0.000 C 
ATOM      8  C   UNL     1      -0.089  10.164  20.183  0.00  0.00    +0.000 C 
ATOM      9  C   UNL     1       0.447  10.563  18.805  0.00  0.00    +0.000 C 
ATOM     10  C   UNL     1       0.060  12.045  18.654  0.00  0.00    +0.000 C 
ATOM     11  C   UNL     1      -0.493  12.520  20.026  0.00  0.00    +0.000 C 
ENDROOT
BRANCH   1  15
ATOM     12  C   UNL     1       3.453   6.552  18.641  0.00  0.00    +0.000 C 
ATOM     13  C   UNL     1       2.585   5.617  19.066  0.00  0.00    +0.000 C 
ATOM     14  C   UNL     1       2.029   5.655  20.421  0.00  0.00    +0.000 C 
ATOM     15  C   UNL     1       1.436   6.717  20.996  0.00  0.00    +0.000 C 
ATOM     16  C   UNL     1       2.133   4.350  21.190  0.00  0.00    +0.000 C 
ATOM     17  C   UNL     1       1.632   3.154  20.371  0.00  0.00    +0.000 C 
ATOM     18  C   UNL     1       2.283   3.106  18.991  0.00  0.00    +0.000 C 
ATOM     19  C   UNL     1       2.129   4.428  18.233  0.00  0.00    +0.000 C 
BRANCH  17  20
ATOM     20  O   UNL     1       0.209   3.180  20.251  0.00  0.00    +0.000 OA
ATOM     21  H   UNL     1      -0.175   2.658  20.978  0.00  0.00    +0.000 HD
ENDBRANCH  17  20
BRANCH  19  22
ATOM     22  O   UNL     1       2.857   4.335  17.010  0.00  0.00    +0.000 OA
ATOM     23  H   UNL     1       2.364   3.726  16.432  0.00  0.00    +0.000 HD
ENDBRANCH  19  22
ENDBRANCH   1  15
BRANCH  11  24
ATOM     24  C   UNL     1      -2.036  12.771  20.047  0.00  0.00    +0.000 C 
ATOM     25  C   UNL     1      -2.868  12.094  21.143  0.00  0.00    +0.000 C 
BRANCH  24  26
ATOM     26  C   UNL     1      -2.661  12.390  18.724  0.00  0.00    +0.000 C 
ATOM     27  C   UNL     1      -3.610  11.449  18.627  0.00  0.00    +0.000 C 
BRANCH  27  28
ATOM     28  C   UNL     1      -4.192  10.941  17.322  0.00  0.00    +0.000 C 
BRANCH  28  29
ATOM     29  C   UNL     1      -3.068  10.607  16.290  0.00  0.00    +0.000 C 
ATOM     30  C   UNL     1      -2.137   9.491  16.798  0.00  0.00    +0.000 C 
ATOM     31  C   UNL     1      -3.648  10.172  14.940  0.00  0.00    +0.000 C 
BRANCH  29  32
ATOM     32  O   UNL     1      -2.272  11.770  16.029  0.00  0.00    +0.000 OA
ATOM     33  H   UNL     1      -1.409  11.642  16.463  0.00  0.00    +0.000 HD
ENDBRANCH  29  32
ENDBRANCH  28  29
BRANCH  28  34
ATOM     34  C   UNL     1      -5.196  12.000  16.808  0.00  0.00    +0.000 C 
BRANCH  34  35
ATOM     35  O   UNL     1      -6.527  11.731  17.253  0.00  0.00    +0.000 OA
ATOM     36  H   UNL     1      -6.627  10.768  17.335  0.00  0.00    +0.000 HD
ENDBRANCH  34  35
ENDBRANCH  28  34
ENDBRANCH  27  28
ENDBRANCH  24  26
ENDBRANCH  11  24
TORSDOF 10
ENDMDL
