MODEL 1
REMARK VINA RESULT:      -6.7      0.000      0.000
REMARK  Name = 
REMARK  5 active torsions:
REMARK  status: ('A' for Active; 'I' for Inactive)
REMARK    1  A    between atoms: C_1  and  C_2
REMARK    2  A    between atoms: C_2  and  C_3
REMARK    3  A    between atoms: C_3  and  N_4
REMARK    4  A    between atoms: C_14  and  C_15
REMARK    5  A    between atoms: N_17  and  C_18
REMARK                            x       y       z     vdW  Elec       q    Type
REMARK                         _______ _______ _______ _____ _____    ______ ____
ROOT
ATOM      1  N   UNL     1       4.261   3.681  17.421  0.00  0.00    +0.000 N 
ATOM      2  C   UNL     1       4.550   4.335  18.639  0.00  0.00    +0.000 A 
ATOM      3  N   UNL     1       3.760   3.999  19.744  0.00  0.00    +0.000 N 
ATOM      4  C   UNL     1       4.083   2.800  20.526  0.00  0.00    +0.000 C 
ATOM      5  C   UNL     1       2.789   2.232  21.118  0.00  0.00    +0.000 C 
ATOM      6  C   UNL     1       2.045   3.282  21.946  0.00  0.00    +0.000 C 
ATOM      7  C   UNL     1       1.834   4.564  21.144  0.00  0.00    +0.000 C 
ATOM      8  C   UNL     1       3.156   5.069  20.550  0.00  0.00    +0.000 C 
ATOM      9  N   UNL     1       5.485   5.245  18.782  0.00  0.00    +0.000 NA
ATOM     10  C   UNL     1       6.225   5.507  17.625  0.00  0.00    +0.000 A 
ATOM     11  C   UNL     1       7.281   6.410  17.395  0.00  0.00    +0.000 A 
ATOM     12  C   UNL     1       7.915   7.366  18.328  0.00  0.00    +0.000 C 
ATOM     13  N   UNL     1       7.718   6.325  16.125  0.00  0.00    +0.000 NA
ATOM     14  N   UNL     1       6.934   5.372  15.571  0.00  0.00    +0.000 N 
ATOM     15  C   UNL     1       7.140   4.981  14.196  0.00  0.00    +0.000 C 
ATOM     16  C   UNL     1       6.014   4.871  16.442  0.00  0.00    +0.000 A 
ATOM     17  C   UNL     1       5.006   3.901  16.256  0.00  0.00    +0.000 A 
ATOM     18  O   UNL     1       4.815   3.334  15.183  0.00  0.00    +0.000 OA
ENDROOT
BRANCH   1  19
ATOM     19  C   UNL     1       3.129   2.761  17.295  0.00  0.00    +0.000 C 
BRANCH  19  21
ATOM     20  C   UNL     1       0.804   2.590  18.397  0.00  0.00    +0.000 C 
ATOM     21  C   UNL     1       1.761   3.401  17.542  0.00  0.00    +0.000 C 
ENDBRANCH  19  21
ENDBRANCH   1  19
TORSDOF 2
ENDMDL
MODEL 2
REMARK VINA RESULT:      -6.6      4.388      6.171
REMARK  Name = 
REMARK  5 active torsions:
REMARK  status: ('A' for Active; 'I' for Inactive)
REMARK    1  A    between atoms: C_1  and  C_2
REMARK    2  A    between atoms: C_2  and  C_3
REMARK    3  A    between atoms: C_3  and  N_4
REMARK    4  A    between atoms: C_14  and  C_15
REMARK    5  A    between atoms: N_17  and  C_18
REMARK                            x       y       z     vdW  Elec       q    Type
REMARK                         _______ _______ _______ _____ _____    ______ ____
ROOT
ATOM      1  N   UNL     1       2.153   7.476  18.709  0.00  0.00    +0.000 N 
ATOM      2  C   UNL     1       1.886   6.799  19.919  0.00  0.00    +0.000 A 
ATOM      3  N   UNL     1       2.201   5.436  19.966  0.00  0.00    +0.000 N 
ATOM      4  C   UNL     1       3.579   5.022  20.255  0.00  0.00    +0.000 C 
ATOM      5  C   UNL     1       3.854   3.690  19.550  0.00  0.00    +0.000 C 
ATOM      6  C   UNL     1       2.831   2.625  19.950  0.00  0.00    +0.000 C 
ATOM      7  C   UNL     1       1.404   3.132  19.755  0.00  0.00    +0.000 C 
ATOM      8  C   UNL     1       1.197   4.482  20.456  0.00  0.00    +0.000 C 
ATOM      9  N   UNL     1       1.343   7.361  20.973  0.00  0.00    +0.000 NA
ATOM     10  C   UNL     1       1.071   8.725  20.831  0.00  0.00    +0.000 A 
ATOM     11  C   UNL     1       0.491   9.644  21.728  0.00  0.00    +0.000 A 
ATOM     12  C   UNL     1      -0.016   9.422  23.098  0.00  0.00    +0.000 C 
ATOM     13  N   UNL     1       0.431  10.873  21.182  0.00  0.00    +0.000 NA
ATOM     14  N   UNL     1       0.971  10.715  19.952  0.00  0.00    +0.000 N 
ATOM     15  C   UNL     1       1.105  11.852  19.073  0.00  0.00    +0.000 C 
ATOM     16  C   UNL     1       1.352   9.431  19.703  0.00  0.00    +0.000 A 
ATOM     17  C   UNL     1       1.921   8.848  18.550  0.00  0.00    +0.000 A 
ATOM     18  O   UNL     1       2.166   9.489  17.531  0.00  0.00    +0.000 OA
ENDROOT
BRANCH   1  19
ATOM     19  C   UNL     1       2.651   6.769  17.528  0.00  0.00    +0.000 C 
BRANCH  19  21
ATOM     20  C   UNL     1       4.812   5.746  16.561  0.00  0.00    +0.000 C 
ATOM     21  C   UNL     1       4.159   6.900  17.300  0.00  0.00    +0.000 C 
ENDBRANCH  19  21
ENDBRANCH   1  19
TORSDOF 2
ENDMDL
MODEL 3
REMARK VINA RESULT:      -6.5      2.094      4.281
REMARK  Name = 
REMARK  5 active torsions:
REMARK  status: ('A' for Active; 'I' for Inactive)
REMARK    1  A    between atoms: C_1  and  C_2
REMARK    2  A    between atoms: C_2  and  C_3
REMARK    3  A    between atoms: C_3  and  N_4
REMARK    4  A    between atoms: C_14  and  C_15
REMARK    5  A    between atoms: N_17  and  C_18
REMARK                            x       y       z     vdW  Elec       q    Type
REMARK                         _______ _______ _______ _____ _____    ______ ____
ROOT
ATOM      1  N   UNL     1       5.927   5.046  16.594  0.00  0.00    +0.000 N 
ATOM      2  C   UNL     1       4.907   4.138  16.237  0.00  0.00    +0.000 A 
ATOM      3  N   UNL     1       3.972   3.812  17.224  0.00  0.00    +0.000 N 
ATOM      4  C   UNL     1       2.833   4.707  17.464  0.00  0.00    +0.000 C 
ATOM      5  C   UNL     1       2.428   4.607  18.939  0.00  0.00    +0.000 C 
ATOM      6  C   UNL     1       2.126   3.162  19.339  0.00  0.00    +0.000 C 
ATOM      7  C   UNL     1       3.279   2.235  18.962  0.00  0.00    +0.000 C 
ATOM      8  C   UNL     1       3.661   2.400  17.485  0.00  0.00    +0.000 C 
ATOM      9  N   UNL     1       4.808   3.570  15.057  0.00  0.00    +0.000 NA
ATOM     10  C   UNL     1       5.784   3.964  14.137  0.00  0.00    +0.000 A 
ATOM     11  C   UNL     1       6.001   3.568  12.802  0.00  0.00    +0.000 A 
ATOM     12  C   UNL     1       5.249   2.595  11.981  0.00  0.00    +0.000 C 
ATOM     13  N   UNL     1       7.056   4.216  12.275  0.00  0.00    +0.000 NA
ATOM     14  N   UNL     1       7.492   5.009  13.280  0.00  0.00    +0.000 N 
ATOM     15  C   UNL     1       8.614   5.892  13.066  0.00  0.00    +0.000 C 
ATOM     16  C   UNL     1       6.758   4.870  14.420  0.00  0.00    +0.000 A 
ATOM     17  C   UNL     1       6.897   5.482  15.684  0.00  0.00    +0.000 A 
ATOM     18  O   UNL     1       7.784   6.295  15.936  0.00  0.00    +0.000 OA
ENDROOT
BRANCH   1  19
ATOM     19  C   UNL     1       6.055   5.556  17.961  0.00  0.00    +0.000 C 
BRANCH  19  21
ATOM     20  C   UNL     1       8.100   5.814  19.510  0.00  0.00    +0.000 C 
ATOM     21  C   UNL     1       7.146   4.878  18.792  0.00  0.00    +0.000 C 
ENDBRANCH  19  21
ENDBRANCH   1  19
TORSDOF 2
ENDMDL
MODEL 4
REMARK VINA RESULT:      -6.1     10.252     12.026
REMARK  Name = 
REMARK  5 active torsions:
REMARK  status: ('A' for Active; 'I' for Inactive)
REMARK    1  A    between atoms: C_1  and  C_2
REMARK    2  A    between atoms: C_2  and  C_3
REMARK    3  A    between atoms: C_3  and  N_4
REMARK    4  A    between atoms: C_14  and  C_15
REMARK    5  A    between atoms: N_17  and  C_18
REMARK                            x       y       z     vdW  Elec       q    Type
REMARK                         _______ _______ _______ _____ _____    ______ ____
ROOT
ATOM      1  N   UNL     1      -2.201  12.220  20.174  0.00  0.00    +0.000 N 
ATOM      2  C   UNL     1      -3.439  12.677  20.674  0.00  0.00    +0.000 A 
ATOM      3  N   UNL     1      -3.444  13.208  21.969  0.00  0.00    +0.000 N 
ATOM      4  C   UNL     1      -3.055  14.608  22.177  0.00  0.00    +0.000 C 
ATOM      5  C   UNL     1      -2.423  14.745  23.566  0.00  0.00    +0.000 C 
ATOM      6  C   UNL     1      -3.363  14.234  24.660  0.00  0.00    +0.000 C 
ATOM      7  C   UNL     1      -3.850  12.821  24.350  0.00  0.00    +0.000 C 
ATOM      8  C   UNL     1      -4.443  12.737  22.937  0.00  0.00    +0.000 C 
ATOM      9  N   UNL     1      -4.571  12.606  20.014  0.00  0.00    +0.000 NA
ATOM     10  C   UNL     1      -4.463  12.068  18.728  0.00  0.00    +0.000 A 
ATOM     11  C   UNL     1      -5.446  11.829  17.747  0.00  0.00    +0.000 A 
ATOM     12  C   UNL     1      -6.902  12.075  17.802  0.00  0.00    +0.000 C 
ATOM     13  N   UNL     1      -4.896  11.306  16.635  0.00  0.00    +0.000 NA
ATOM     14  N   UNL     1      -3.578  11.221  16.928  0.00  0.00    +0.000 N 
ATOM     15  C   UNL     1      -2.651  10.725  15.938  0.00  0.00    +0.000 C 
ATOM     16  C   UNL     1      -3.286  11.656  18.186  0.00  0.00    +0.000 A 
ATOM     17  C   UNL     1      -2.058  11.706  18.879  0.00  0.00    +0.000 A 
ATOM     18  O   UNL     1      -0.998  11.326  18.386  0.00  0.00    +0.000 OA
ENDROOT
BRANCH   1  19
ATOM     19  C   UNL     1      -0.993  12.217  21.002  0.00  0.00    +0.000 C 
BRANCH  19  21
ATOM     20  C   UNL     1      -1.067  10.728  23.106  0.00  0.00    +0.000 C 
ATOM     21  C   UNL     1      -0.670  10.868  21.648  0.00  0.00    +0.000 C 
ENDBRANCH  19  21
ENDBRANCH   1  19
TORSDOF 2
ENDMDL
MODEL 5
REMARK VINA RESULT:      -6.1      3.348      5.772
REMARK  Name = 
REMARK  5 active torsions:
REMARK  status: ('A' for Active; 'I' for Inactive)
REMARK    1  A    between atoms: C_1  and  C_2
REMARK    2  A    between atoms: C_2  and  C_3
REMARK    3  A    between atoms: C_3  and  N_4
REMARK    4  A    between atoms: C_14  and  C_15
REMARK    5  A    between atoms: N_17  and  C_18
REMARK                            x       y       z     vdW  Elec       q    Type
REMARK                         _______ _______ _______ _____ _____    ______ ____
ROOT
ATOM      1  N   UNL     1       3.421   5.552  19.176  0.00  0.00    +0.000 N 
ATOM      2  C   UNL     1       3.869   6.303  18.068  0.00  0.00    +0.000 A 
ATOM      3  N   UNL     1       4.823   5.704  17.237  0.00  0.00    +0.000 N 
ATOM      4  C   UNL     1       4.387   4.772  16.191  0.00  0.00    +0.000 C 
ATOM      5  C   UNL     1       5.493   3.737  15.959  0.00  0.00    +0.000 C 
ATOM      6  C   UNL     1       6.825   4.410  15.619  0.00  0.00    +0.000 C 
ATOM      7  C   UNL     1       7.189   5.464  16.661  0.00  0.00    +0.000 C 
ATOM      8  C   UNL     1       6.035   6.453  16.875  0.00  0.00    +0.000 C 
ATOM      9  N   UNL     1       3.468   7.523  17.795  0.00  0.00    +0.000 NA
ATOM     10  C   UNL     1       2.510   8.032  18.677  0.00  0.00    +0.000 A 
ATOM     11  C   UNL     1       1.865   9.285  18.710  0.00  0.00    +0.000 A 
ATOM     12  C   UNL     1       2.029  10.445  17.808  0.00  0.00    +0.000 C 
ATOM     13  N   UNL     1       0.993   9.348  19.733  0.00  0.00    +0.000 NA
ATOM     14  N   UNL     1       1.098   8.140  20.331  0.00  0.00    +0.000 N 
ATOM     15  C   UNL     1       0.270   7.827  21.472  0.00  0.00    +0.000 C 
ATOM     16  C   UNL     1       2.015   7.330  19.730  0.00  0.00    +0.000 A 
ATOM     17  C   UNL     1       2.440   6.024  20.056  0.00  0.00    +0.000 A 
ATOM     18  O   UNL     1       1.994   5.397  21.014  0.00  0.00    +0.000 OA
ENDROOT
BRANCH   1  19
ATOM     19  C   UNL     1       3.993   4.242  19.495  0.00  0.00    +0.000 C 
BRANCH  19  21
ATOM     20  C   UNL     1       3.637   1.877  18.531  0.00  0.00    +0.000 C 
ATOM     21  C   UNL     1       3.043   3.064  19.268  0.00  0.00    +0.000 C 
ENDBRANCH  19  21
ENDBRANCH   1  19
TORSDOF 2
ENDMDL
MODEL 6
REMARK VINA RESULT:      -6.0      9.441     11.096
REMARK  Name = 
REMARK  5 active torsions:
REMARK  status: ('A' for Active; 'I' for Inactive)
REMARK    1  A    between atoms: C_1  and  C_2
REMARK    2  A    between atoms: C_2  and  C_3
REMARK    3  A    between atoms: C_3  and  N_4
REMARK    4  A    between atoms: C_14  and  C_15
REMARK    5  A    between atoms: N_17  and  C_18
REMARK                            x       y       z     vdW  Elec       q    Type
REMARK                         _______ _______ _______ _____ _____    ______ ____
ROOT
ATOM      1  N   UNL     1      -1.475  11.365  19.563  0.00  0.00    +0.000 N 
ATOM      2  C   UNL     1      -2.495  12.205  20.062  0.00  0.00    +0.000 A 
ATOM      3  N   UNL     1      -2.269  12.811  21.302  0.00  0.00    +0.000 N 
ATOM      4  C   UNL     1      -1.477  14.046  21.370  0.00  0.00    +0.000 C 
ATOM      5  C   UNL     1      -0.754  14.096  22.719  0.00  0.00    +0.000 C 
ATOM      6  C   UNL     1      -1.736  13.971  23.885  0.00  0.00    +0.000 C 
ATOM      7  C   UNL     1      -2.630  12.745  23.721  0.00  0.00    +0.000 C 
ATOM      8  C   UNL     1      -3.304  12.731  22.342  0.00  0.00    +0.000 C 
ATOM      9  N   UNL     1      -3.635  12.421  19.448  0.00  0.00    +0.000 NA
ATOM     10  C   UNL     1      -3.764  11.777  18.214  0.00  0.00    +0.000 A 
ATOM     11  C   UNL     1      -4.830  11.765  17.292  0.00  0.00    +0.000 A 
ATOM     12  C   UNL     1      -6.146  12.433  17.373  0.00  0.00    +0.000 C 
ATOM     13  N   UNL     1      -4.522  11.019  16.214  0.00  0.00    +0.000 NA
ATOM     14  N   UNL     1      -3.271  10.572  16.469  0.00  0.00    +0.000 N 
ATOM     15  C   UNL     1      -2.589   9.750  15.498  0.00  0.00    +0.000 C 
ATOM     16  C   UNL     1      -2.793  10.997  17.672  0.00  0.00    +0.000 A 
ATOM     17  C   UNL     1      -1.564  10.734  18.317  0.00  0.00    +0.000 A 
ATOM     18  O   UNL     1      -0.692  10.022  17.825  0.00  0.00    +0.000 OA
ENDROOT
BRANCH   1  19
ATOM     19  C   UNL     1      -0.274  11.069  20.347  0.00  0.00    +0.000 C 
BRANCH  19  21
ATOM     20  C   UNL     1      -0.320  10.075  22.726  0.00  0.00    +0.000 C 
ATOM     21  C   UNL     1      -0.384   9.825  21.230  0.00  0.00    +0.000 C 
ENDBRANCH  19  21
ENDBRANCH   1  19
TORSDOF 2
ENDMDL
MODEL 7
REMARK VINA RESULT:      -5.8      2.577      3.116
REMARK  Name = 
REMARK  5 active torsions:
REMARK  status: ('A' for Active; 'I' for Inactive)
REMARK    1  A    between atoms: C_1  and  C_2
REMARK    2  A    between atoms: C_2  and  C_3
REMARK    3  A    between atoms: C_3  and  N_4
REMARK    4  A    between atoms: C_14  and  C_15
REMARK    5  A    between atoms: N_17  and  C_18
REMARK                            x       y       z     vdW  Elec       q    Type
REMARK                         _______ _______ _______ _____ _____    ______ ____
ROOT
ATOM      1  N   UNL     1       2.977   5.577  17.811  0.00  0.00    +0.000 N 
ATOM      2  C   UNL     1       3.363   6.833  18.326  0.00  0.00    +0.000 A 
ATOM      3  N   UNL     1       2.400   7.545  19.051  0.00  0.00    +0.000 N 
ATOM      4  C   UNL     1       2.190   7.236  20.471  0.00  0.00    +0.000 C 
ATOM      5  C   UNL     1       0.727   7.520  20.827  0.00  0.00    +0.000 C 
ATOM      6  C   UNL     1       0.336   8.958  20.481  0.00  0.00    +0.000 C 
ATOM      7  C   UNL     1       0.682   9.288  19.031  0.00  0.00    +0.000 C 
ATOM      8  C   UNL     1       2.149   8.955  18.723  0.00  0.00    +0.000 C 
ATOM      9  N   UNL     1       4.544   7.373  18.141  0.00  0.00    +0.000 NA
ATOM     10  C   UNL     1       5.438   6.584  17.412  0.00  0.00    +0.000 A 
ATOM     11  C   UNL     1       6.767   6.830  17.013  0.00  0.00    +0.000 A 
ATOM     12  C   UNL     1       7.609   8.023  17.248  0.00  0.00    +0.000 C 
ATOM     13  N   UNL     1       7.265   5.782  16.331  0.00  0.00    +0.000 NA
ATOM     14  N   UNL     1       6.248   4.891  16.308  0.00  0.00    +0.000 N 
ATOM     15  C   UNL     1       6.432   3.606  15.675  0.00  0.00    +0.000 C 
ATOM     16  C   UNL     1       5.129   5.349  16.935  0.00  0.00    +0.000 A 
ATOM     17  C   UNL     1       3.861   4.752  17.105  0.00  0.00    +0.000 A 
ATOM     18  O   UNL     1       3.584   3.638  16.666  0.00  0.00    +0.000 OA
ENDROOT
BRANCH   1  19
ATOM     19  C   UNL     1       1.607   5.078  17.950  0.00  0.00    +0.000 C 
BRANCH  19  21
ATOM     20  C   UNL     1       0.941   2.707  18.714  0.00  0.00    +0.000 C 
ATOM     21  C   UNL     1       1.403   4.098  19.107  0.00  0.00    +0.000 C 
ENDBRANCH  19  21
ENDBRANCH   1  19
TORSDOF 2
ENDMDL
MODEL 8
REMARK VINA RESULT:      -5.7     10.296     12.498
REMARK  Name = 
REMARK  5 active torsions:
REMARK  status: ('A' for Active; 'I' for Inactive)
REMARK    1  A    between atoms: C_1  and  C_2
REMARK    2  A    between atoms: C_2  and  C_3
REMARK    3  A    between atoms: C_3  and  N_4
REMARK    4  A    between atoms: C_14  and  C_15
REMARK    5  A    between atoms: N_17  and  C_18
REMARK                            x       y       z     vdW  Elec       q    Type
REMARK                         _______ _______ _______ _____ _____    ______ ____
ROOT
ATOM      1  N   UNL     1      -3.590  12.169  19.433  0.00  0.00    +0.000 N 
ATOM      2  C   UNL     1      -2.579  12.383  20.395  0.00  0.00    +0.000 A 
ATOM      3  N   UNL     1      -1.255  12.336  19.945  0.00  0.00    +0.000 N 
ATOM      4  C   UNL     1      -0.659  13.526  19.325  0.00  0.00    +0.000 C 
ATOM      5  C   UNL     1       0.387  13.079  18.299  0.00  0.00    +0.000 C 
ATOM      6  C   UNL     1       1.438  12.166  18.934  0.00  0.00    +0.000 C 
ATOM      7  C   UNL     1       0.782  11.005  19.677  0.00  0.00    +0.000 C 
ATOM      8  C   UNL     1      -0.277  11.510  20.667  0.00  0.00    +0.000 C 
ATOM      9  N   UNL     1      -2.808  12.592  21.670  0.00  0.00    +0.000 NA
ATOM     10  C   UNL     1      -4.161  12.628  22.020  0.00  0.00    +0.000 A 
ATOM     11  C   UNL     1      -4.780  12.815  23.272  0.00  0.00    +0.000 A 
ATOM     12  C   UNL     1      -4.164  13.020  24.600  0.00  0.00    +0.000 C 
ATOM     13  N   UNL     1      -6.120  12.794  23.152  0.00  0.00    +0.000 NA
ATOM     14  N   UNL     1      -6.330  12.594  21.831  0.00  0.00    +0.000 N 
ATOM     15  C   UNL     1      -7.677  12.545  21.314  0.00  0.00    +0.000 C 
ATOM     16  C   UNL     1      -5.171  12.473  21.124  0.00  0.00    +0.000 A 
ATOM     17  C   UNL     1      -4.953  12.231  19.751  0.00  0.00    +0.000 A 
ATOM     18  O   UNL     1      -5.870  12.085  18.946  0.00  0.00    +0.000 OA
ENDROOT
BRANCH   1  19
ATOM     19  C   UNL     1      -3.270  11.824  18.047  0.00  0.00    +0.000 C 
BRANCH  19  21
ATOM     20  C   UNL     1      -1.769   9.930  17.145  0.00  0.00    +0.000 C 
ATOM     21  C   UNL     1      -3.084  10.326  17.793  0.00  0.00    +0.000 C 
ENDBRANCH  19  21
ENDBRANCH   1  19
TORSDOF 2
ENDMDL
MODEL 9
REMARK VINA RESULT:      -5.7      2.139      4.144
REMARK  Name = 
REMARK  5 active torsions:
REMARK  status: ('A' for Active; 'I' for Inactive)
REMARK    1  A    between atoms: C_1  and  C_2
REMARK    2  A    between atoms: C_2  and  C_3
REMARK    3  A    between atoms: C_3  and  N_4
REMARK    4  A    between atoms: C_14  and  C_15
REMARK    5  A    between atoms: N_17  and  C_18
REMARK                            x       y       z     vdW  Elec       q    Type
REMARK                         _______ _______ _______ _____ _____    ______ ____
ROOT
ATOM      1  N   UNL     1       5.945   4.856  16.510  0.00  0.00    +0.000 N 
ATOM      2  C   UNL     1       4.957   3.919  16.135  0.00  0.00    +0.000 A 
ATOM      3  N   UNL     1       4.043   3.531  17.121  0.00  0.00    +0.000 N 
ATOM      4  C   UNL     1       2.873   4.375  17.394  0.00  0.00    +0.000 C 
ATOM      5  C   UNL     1       2.485   4.220  18.868  0.00  0.00    +0.000 C 
ATOM      6  C   UNL     1       2.242   2.754  19.231  0.00  0.00    +0.000 C 
ATOM      7  C   UNL     1       3.426   1.882  18.820  0.00  0.00    +0.000 C 
ATOM      8  C   UNL     1       3.789   2.101  17.345  0.00  0.00    +0.000 C 
ATOM      9  N   UNL     1       4.869   3.381  14.941  0.00  0.00    +0.000 NA
ATOM     10  C   UNL     1       5.822   3.836  14.025  0.00  0.00    +0.000 A 
ATOM     11  C   UNL     1       6.041   3.485  12.678  0.00  0.00    +0.000 A 
ATOM     12  C   UNL     1       5.320   2.506  11.836  0.00  0.00    +0.000 C 
ATOM     13  N   UNL     1       7.067   4.186  12.161  0.00  0.00    +0.000 NA
ATOM     14  N   UNL     1       7.481   4.968  13.184  0.00  0.00    +0.000 N 
ATOM     15  C   UNL     1       8.567   5.898  12.986  0.00  0.00    +0.000 C 
ATOM     16  C   UNL     1       6.763   4.770  14.325  0.00  0.00    +0.000 A 
ATOM     17  C   UNL     1       6.890   5.353  15.604  0.00  0.00    +0.000 A 
ATOM     18  O   UNL     1       7.747   6.192  15.872  0.00  0.00    +0.000 OA
ENDROOT
BRANCH   1  19
ATOM     19  C   UNL     1       6.065   5.333  17.889  0.00  0.00    +0.000 C 
BRANCH  19  21
ATOM     20  C   UNL     1       4.414   7.213  17.265  0.00  0.00    +0.000 C 
ATOM     21  C   UNL     1       5.601   6.776  18.103  0.00  0.00    +0.000 C 
ENDBRANCH  19  21
ENDBRANCH   1  19
TORSDOF 2
ENDMDL
