MODEL 1
REMARK VINA RESULT:      -9.1      0.000      0.000
REMARK  Name = 
REMARK  10 active torsions:
REMARK  status: ('A' for Active; 'I' for Inactive)
REMARK    1  A    between atoms: C_1  and  O_2
REMARK    2  A    between atoms: O_2  and  C_3
REMARK    3  A    between atoms: C_3  and  C_4
REMARK    4  A    between atoms: C_4  and  N_5
REMARK    5  A    between atoms: C_7  and  C_8
REMARK    6  A    between atoms: N_13  and  C_14
REMARK    7  A    between atoms: C_17  and  O_18
REMARK    8  A    between atoms: O_18  and  C_19
REMARK    9  A    between atoms: C_21  and  O_22
REMARK   10  A    between atoms: O_22  and  C_23
REMARK                            x       y       z     vdW  Elec       q    Type
REMARK                         _______ _______ _______ _____ _____    ______ ____
ROOT
ATOM      1  C   UNL     1       2.470   4.967  20.445  0.00  0.00    +0.000 A 
ATOM      2  C   UNL     1       1.875   3.985  21.203  0.00  0.00    +0.000 A 
ATOM      3  C   UNL     1       2.495   2.760  21.175  0.00  0.00    +0.000 A 
ATOM      4  N   UNL     1       3.617   2.500  20.476  0.00  0.00    +0.000 NA
ATOM      5  C   UNL     1       4.121   3.514  19.757  0.00  0.00    +0.000 A 
ATOM      6  N   UNL     1       5.276   3.257  19.010  0.00  0.00    +0.000 N 
ATOM      7  N   UNL     1       3.584   4.740  19.728  0.00  0.00    +0.000 NA
ATOM      8  H   UNL     1       5.549   2.295  19.120  0.00  0.00    +0.000 HD
ENDROOT
BRANCH   1  11
ATOM      9  N   UNL     1       0.757   8.140  20.917  0.00  0.00    +0.000 N 
ATOM     10  C   UNL     1       1.069   6.855  21.296  0.00  0.00    +0.000 A 
ATOM     11  C   UNL     1       1.935   6.318  20.366  0.00  0.00    +0.000 A 
ATOM     12  C   UNL     1       2.123   7.321  19.353  0.00  0.00    +0.000 A 
ATOM     13  C   UNL     1       2.852   7.363  18.145  0.00  0.00    +0.000 A 
ATOM     14  C   UNL     1       2.864   8.530  17.373  0.00  0.00    +0.000 A 
ATOM     15  C   UNL     1       2.165   9.654  17.792  0.00  0.00    +0.000 A 
ATOM     16  C   UNL     1       1.424   9.641  18.979  0.00  0.00    +0.000 A 
ATOM     17  C   UNL     1       1.406   8.460  19.745  0.00  0.00    +0.000 A 
BRANCH   9  18
ATOM     18  C   UNL     1      -0.171   8.983  21.654  0.00  0.00    +0.000 C 
BRANCH  18  19
ATOM     19  C   UNL     1       0.347   9.346  23.040  0.00  0.00    +0.000 C 
BRANCH  19  21
ATOM     20  C   UNL     1      -0.874  11.237  22.360  0.00  0.00    +0.000 C 
ATOM     21  O   UNL     1      -0.225  10.589  23.450  0.00  0.00    +0.000 OA
ENDBRANCH  19  21
ENDBRANCH  18  19
ENDBRANCH   9  18
ENDBRANCH   1  11
BRANCH   6  22
ATOM     22  C   UNL     1       5.641   3.867  17.797  0.00  0.00    +0.000 A 
ATOM     23  C   UNL     1       4.762   3.805  16.692  0.00  0.00    +0.000 A 
ATOM     24  C   UNL     1       5.120   4.310  15.441  0.00  0.00    +0.000 A 
ATOM     25  C   UNL     1       6.361   4.890  15.248  0.00  0.00    +0.000 A 
ATOM     26  C   UNL     1       7.234   4.998  16.331  0.00  0.00    +0.000 A 
ATOM     27  C   UNL     1       6.878   4.505  17.614  0.00  0.00    +0.000 A 
BRANCH  25  28
ATOM     28  O   UNL     1       6.603   5.291  13.965  0.00  0.00    +0.000 OA
ATOM     29  C   UNL     1       6.759   4.285  12.980  0.00  0.00    +0.000 C 
ENDBRANCH  25  28
BRANCH  27  30
ATOM     30  O   UNL     1       7.881   4.625  18.524  0.00  0.00    +0.000 OA
BRANCH  30  31
ATOM     31  C   UNL     1       7.892   5.660  19.499  0.00  0.00    +0.000 C 
ATOM     32  F   UNL     1       8.497   5.367  20.662  0.00  0.00    +0.000 F 
ATOM     33  F   UNL     1       8.481   6.750  18.954  0.00  0.00    +0.000 F 
ATOM     34  F   UNL     1       6.609   5.990  19.784  0.00  0.00    +0.000 F 
ENDBRANCH  30  31
ENDBRANCH  27  30
ENDBRANCH   6  22
TORSDOF 8
ENDMDL
MODEL 2
REMARK VINA RESULT:      -8.2      1.632      2.751
REMARK  Name = 
REMARK  10 active torsions:
REMARK  status: ('A' for Active; 'I' for Inactive)
REMARK    1  A    between atoms: C_1  and  O_2
REMARK    2  A    between atoms: O_2  and  C_3
REMARK    3  A    between atoms: C_3  and  C_4
REMARK    4  A    between atoms: C_4  and  N_5
REMARK    5  A    between atoms: C_7  and  C_8
REMARK    6  A    between atoms: N_13  and  C_14
REMARK    7  A    between atoms: C_17  and  O_18
REMARK    8  A    between atoms: O_18  and  C_19
REMARK    9  A    between atoms: C_21  and  O_22
REMARK   10  A    between atoms: O_22  and  C_23
REMARK                            x       y       z     vdW  Elec       q    Type
REMARK                         _______ _______ _______ _____ _____    ______ ____
ROOT
ATOM      1  C   UNL     1       2.421   5.747  19.918  0.00  0.00    +0.000 A 
ATOM      2  C   UNL     1       1.667   4.901  20.699  0.00  0.00    +0.000 A 
ATOM      3  C   UNL     1       2.136   3.614  20.799  0.00  0.00    +0.000 A 
ATOM      4  N   UNL     1       3.259   3.174  20.199  0.00  0.00    +0.000 NA
ATOM      5  C   UNL     1       3.924   4.064  19.449  0.00  0.00    +0.000 A 
ATOM      6  N   UNL     1       5.083   3.619  18.804  0.00  0.00    +0.000 N 
ATOM      7  N   UNL     1       3.541   5.338  19.298  0.00  0.00    +0.000 NA
ATOM      8  H   UNL     1       5.231   2.643  18.999  0.00  0.00    +0.000 HD
ENDROOT
BRANCH   1  11
ATOM      9  N   UNL     1       1.902   9.138  18.711  0.00  0.00    +0.000 N 
ATOM     10  C   UNL     1       2.392   7.859  18.581  0.00  0.00    +0.000 A 
ATOM     11  C   UNL     1       2.057   7.141  19.709  0.00  0.00    +0.000 A 
ATOM     12  C   UNL     1       1.362   8.047  20.582  0.00  0.00    +0.000 A 
ATOM     13  C   UNL     1       0.808   7.925  21.876  0.00  0.00    +0.000 A 
ATOM     14  C   UNL     1       0.146   9.010  22.460  0.00  0.00    +0.000 A 
ATOM     15  C   UNL     1       0.024  10.210  21.771  0.00  0.00    +0.000 A 
ATOM     16  C   UNL     1       0.571  10.366  20.493  0.00  0.00    +0.000 A 
ATOM     17  C   UNL     1       1.246   9.275  19.916  0.00  0.00    +0.000 A 
BRANCH   9  18
ATOM     18  C   UNL     1       2.115  10.176  17.716  0.00  0.00    +0.000 C 
BRANCH  18  19
ATOM     19  C   UNL     1       1.929  11.577  18.286  0.00  0.00    +0.000 C 
BRANCH  19  21
ATOM     20  C   UNL     1       2.788  13.763  18.174  0.00  0.00    +0.000 C 
ATOM     21  O   UNL     1       3.055  12.384  17.939  0.00  0.00    +0.000 OA
ENDBRANCH  19  21
ENDBRANCH  18  19
ENDBRANCH   9  18
ENDBRANCH   1  11
BRANCH   6  22
ATOM     22  C   UNL     1       5.591   4.088  17.580  0.00  0.00    +0.000 A 
ATOM     23  C   UNL     1       4.767   4.079  16.431  0.00  0.00    +0.000 A 
ATOM     24  C   UNL     1       5.255   4.442  15.176  0.00  0.00    +0.000 A 
ATOM     25  C   UNL     1       6.576   4.823  15.020  0.00  0.00    +0.000 A 
ATOM     26  C   UNL     1       7.402   4.878  16.143  0.00  0.00    +0.000 A 
ATOM     27  C   UNL     1       6.917   4.528  17.430  0.00  0.00    +0.000 A 
BRANCH  25  28
ATOM     28  O   UNL     1       6.936   5.099  13.731  0.00  0.00    +0.000 OA
ATOM     29  C   UNL     1       6.686   4.106  12.753  0.00  0.00    +0.000 C 
ENDBRANCH  25  28
BRANCH  27  30
ATOM     30  O   UNL     1       7.881   4.563  18.387  0.00  0.00    +0.000 OA
BRANCH  30  31
ATOM     31  C   UNL     1       7.953   5.613  19.344  0.00  0.00    +0.000 C 
ATOM     32  F   UNL     1       6.817   5.884  20.007  0.00  0.00    +0.000 F 
ATOM     33  F   UNL     1       8.926   5.310  20.234  0.00  0.00    +0.000 F 
ATOM     34  F   UNL     1       8.327   6.747  18.703  0.00  0.00    +0.000 F 
ENDBRANCH  30  31
ENDBRANCH  27  30
ENDBRANCH   6  22
TORSDOF 8
ENDMDL
MODEL 3
REMARK VINA RESULT:      -7.9      2.252      3.147
REMARK  Name = 
REMARK  10 active torsions:
REMARK  status: ('A' for Active; 'I' for Inactive)
REMARK    1  A    between atoms: C_1  and  O_2
REMARK    2  A    between atoms: O_2  and  C_3
REMARK    3  A    between atoms: C_3  and  C_4
REMARK    4  A    between atoms: C_4  and  N_5
REMARK    5  A    between atoms: C_7  and  C_8
REMARK    6  A    between atoms: N_13  and  C_14
REMARK    7  A    between atoms: C_17  and  O_18
REMARK    8  A    between atoms: O_18  and  C_19
REMARK    9  A    between atoms: C_21  and  O_22
REMARK   10  A    between atoms: O_22  and  C_23
REMARK                            x       y       z     vdW  Elec       q    Type
REMARK                         _______ _______ _______ _____ _____    ______ ____
ROOT
ATOM      1  C   UNL     1       2.593   5.383  19.915  0.00  0.00    +0.000 A 
ATOM      2  C   UNL     1       1.936   4.175  19.866  0.00  0.00    +0.000 A 
ATOM      3  C   UNL     1       2.723   3.085  19.589  0.00  0.00    +0.000 A 
ATOM      4  N   UNL     1       4.054   3.150  19.385  0.00  0.00    +0.000 NA
ATOM      5  C   UNL     1       4.607   4.370  19.441  0.00  0.00    +0.000 A 
ATOM      6  N   UNL     1       5.985   4.459  19.214  0.00  0.00    +0.000 N 
ATOM      7  N   UNL     1       3.916   5.485  19.708  0.00  0.00    +0.000 NA
ATOM      8  H   UNL     1       6.359   3.547  19.013  0.00  0.00    +0.000 HD
ENDROOT
BRANCH   1  11
ATOM      9  N   UNL     1       0.600   8.116  21.253  0.00  0.00    +0.000 N 
ATOM     10  C   UNL     1       1.103   6.836  21.302  0.00  0.00    +0.000 A 
ATOM     11  C   UNL     1       1.900   6.632  20.195  0.00  0.00    +0.000 A 
ATOM     12  C   UNL     1       1.841   7.841  19.419  0.00  0.00    +0.000 A 
ATOM     13  C   UNL     1       2.402   8.237  18.184  0.00  0.00    +0.000 A 
ATOM     14  C   UNL     1       2.182   9.530  17.696  0.00  0.00    +0.000 A 
ATOM     15  C   UNL     1       1.417  10.432  18.424  0.00  0.00    +0.000 A 
ATOM     16  C   UNL     1       0.839  10.067  19.644  0.00  0.00    +0.000 A 
ATOM     17  C   UNL     1       1.054   8.762  20.124  0.00  0.00    +0.000 A 
BRANCH   9  18
ATOM     18  C   UNL     1      -0.317   8.647  22.248  0.00  0.00    +0.000 C 
BRANCH  18  19
ATOM     19  C   UNL     1       0.270   9.828  23.010  0.00  0.00    +0.000 C 
BRANCH  19  21
ATOM     20  C   UNL     1      -0.928  11.802  22.560  0.00  0.00    +0.000 C 
ATOM     21  O   UNL     1      -0.786  10.689  23.439  0.00  0.00    +0.000 OA
ENDBRANCH  19  21
ENDBRANCH  18  19
ENDBRANCH   9  18
ENDBRANCH   1  11
BRANCH   6  22
ATOM     22  C   UNL     1       6.670   5.546  18.645  0.00  0.00    +0.000 A 
ATOM     23  C   UNL     1       7.698   6.185  19.375  0.00  0.00    +0.000 A 
ATOM     24  C   UNL     1       8.339   7.327  18.894  0.00  0.00    +0.000 A 
ATOM     25  C   UNL     1       7.980   7.872  17.675  0.00  0.00    +0.000 A 
ATOM     26  C   UNL     1       6.995   7.241  16.915  0.00  0.00    +0.000 A 
ATOM     27  C   UNL     1       6.345   6.069  17.382  0.00  0.00    +0.000 A 
BRANCH  25  28
ATOM     28  O   UNL     1       8.647   9.018  17.349  0.00  0.00    +0.000 OA
ATOM     29  C   UNL     1       8.790  10.003  18.358  0.00  0.00    +0.000 C 
ENDBRANCH  25  28
BRANCH  27  30
ATOM     30  O   UNL     1       5.360   5.641  16.549  0.00  0.00    +0.000 OA
BRANCH  30  31
ATOM     31  C   UNL     1       5.626   4.775  15.452  0.00  0.00    +0.000 C 
ATOM     32  F   UNL     1       4.802   3.723  15.320  0.00  0.00    +0.000 F 
ATOM     33  F   UNL     1       5.596   5.508  14.315  0.00  0.00    +0.000 F 
ATOM     34  F   UNL     1       6.883   4.288  15.590  0.00  0.00    +0.000 F 
ENDBRANCH  30  31
ENDBRANCH  27  30
ENDBRANCH   6  22
TORSDOF 8
ENDMDL
MODEL 4
REMARK VINA RESULT:      -7.1      1.574      2.622
REMARK  Name = 
REMARK  10 active torsions:
REMARK  status: ('A' for Active; 'I' for Inactive)
REMARK    1  A    between atoms: C_1  and  O_2
REMARK    2  A    between atoms: O_2  and  C_3
REMARK    3  A    between atoms: C_3  and  C_4
REMARK    4  A    between atoms: C_4  and  N_5
REMARK    5  A    between atoms: C_7  and  C_8
REMARK    6  A    between atoms: N_13  and  C_14
REMARK    7  A    between atoms: C_17  and  O_18
REMARK    8  A    between atoms: O_18  and  C_19
REMARK    9  A    between atoms: C_21  and  O_22
REMARK   10  A    between atoms: O_22  and  C_23
REMARK                            x       y       z     vdW  Elec       q    Type
REMARK                         _______ _______ _______ _____ _____    ______ ____
ROOT
ATOM      1  C   UNL     1       2.362   5.745  20.073  0.00  0.00    +0.000 A 
ATOM      2  C   UNL     1       1.671   4.873  20.882  0.00  0.00    +0.000 A 
ATOM      3  C   UNL     1       2.195   3.607  20.970  0.00  0.00    +0.000 A 
ATOM      4  N   UNL     1       3.314   3.210  20.332  0.00  0.00    +0.000 NA
ATOM      5  C   UNL     1       3.915   4.123  19.556  0.00  0.00    +0.000 A 
ATOM      6  N   UNL     1       5.068   3.722  18.872  0.00  0.00    +0.000 N 
ATOM      7  N   UNL     1       3.476   5.380  19.415  0.00  0.00    +0.000 NA
ATOM      8  H   UNL     1       5.262   2.754  19.064  0.00  0.00    +0.000 HD
ENDROOT
BRANCH   1  11
ATOM      9  N   UNL     1       1.538   9.062  18.828  0.00  0.00    +0.000 N 
ATOM     10  C   UNL     1       2.018   7.783  18.665  0.00  0.00    +0.000 A 
ATOM     11  C   UNL     1       1.935   7.122  19.873  0.00  0.00    +0.000 A 
ATOM     12  C   UNL     1       1.414   8.068  20.823  0.00  0.00    +0.000 A 
ATOM     13  C   UNL     1       1.138   8.009  22.206  0.00  0.00    +0.000 A 
ATOM     14  C   UNL     1       0.587   9.118  22.859  0.00  0.00    +0.000 A 
ATOM     15  C   UNL     1       0.303  10.278  22.149  0.00  0.00    +0.000 A 
ATOM     16  C   UNL     1       0.574  10.371  20.781  0.00  0.00    +0.000 A 
ATOM     17  C   UNL     1       1.140   9.256  20.133  0.00  0.00    +0.000 A 
BRANCH   9  18
ATOM     18  C   UNL     1       1.523  10.047  17.759  0.00  0.00    +0.000 C 
BRANCH  18  19
ATOM     19  C   UNL     1       0.198  10.794  17.674  0.00  0.00    +0.000 C 
BRANCH  19  21
ATOM     20  C   UNL     1      -2.059  10.514  17.073  0.00  0.00    +0.000 C 
ATOM     21  O   UNL     1      -0.863   9.856  17.481  0.00  0.00    +0.000 OA
ENDBRANCH  19  21
ENDBRANCH  18  19
ENDBRANCH   9  18
ENDBRANCH   1  11
BRANCH   6  22
ATOM     22  C   UNL     1       5.514   4.206  17.629  0.00  0.00    +0.000 A 
ATOM     23  C   UNL     1       4.622   4.244  16.533  0.00  0.00    +0.000 A 
ATOM     24  C   UNL     1       5.043   4.623  15.258  0.00  0.00    +0.000 A 
ATOM     25  C   UNL     1       6.361   4.975  15.031  0.00  0.00    +0.000 A 
ATOM     26  C   UNL     1       7.255   4.984  16.102  0.00  0.00    +0.000 A 
ATOM     27  C   UNL     1       6.839   4.617  17.409  0.00  0.00    +0.000 A 
BRANCH  25  28
ATOM     28  O   UNL     1       6.650   5.271  13.729  0.00  0.00    +0.000 OA
ATOM     29  C   UNL     1       7.995   5.131  13.307  0.00  0.00    +0.000 C 
ENDBRANCH  25  28
BRANCH  27  30
ATOM     30  O   UNL     1       7.859   4.606  18.306  0.00  0.00    +0.000 OA
BRANCH  30  31
ATOM     31  C   UNL     1       8.005   5.622  19.291  0.00  0.00    +0.000 C 
ATOM     32  F   UNL     1       8.895   5.373  20.266  0.00  0.00    +0.000 F 
ATOM     33  F   UNL     1       8.341   6.774  18.666  0.00  0.00    +0.000 F 
ATOM     34  F   UNL     1       6.802   5.816  19.884  0.00  0.00    +0.000 F 
ENDBRANCH  30  31
ENDBRANCH  27  30
ENDBRANCH   6  22
TORSDOF 8
ENDMDL
MODEL 5
REMARK VINA RESULT:      -7.1      6.070      9.789
REMARK  Name = 
REMARK  10 active torsions:
REMARK  status: ('A' for Active; 'I' for Inactive)
REMARK    1  A    between atoms: C_1  and  O_2
REMARK    2  A    between atoms: O_2  and  C_3
REMARK    3  A    between atoms: C_3  and  C_4
REMARK    4  A    between atoms: C_4  and  N_5
REMARK    5  A    between atoms: C_7  and  C_8
REMARK    6  A    between atoms: N_13  and  C_14
REMARK    7  A    between atoms: C_17  and  O_18
REMARK    8  A    between atoms: O_18  and  C_19
REMARK    9  A    between atoms: C_21  and  O_22
REMARK   10  A    between atoms: O_22  and  C_23
REMARK                            x       y       z     vdW  Elec       q    Type
REMARK                         _______ _______ _______ _____ _____    ______ ____
ROOT
ATOM      1  C   UNL     1      -2.782  13.616  22.309  0.00  0.00    +0.000 A 
ATOM      2  C   UNL     1      -2.735  14.328  23.486  0.00  0.00    +0.000 A 
ATOM      3  C   UNL     1      -1.478  14.670  23.920  0.00  0.00    +0.000 A 
ATOM      4  N   UNL     1      -0.344  14.359  23.261  0.00  0.00    +0.000 NA
ATOM      5  C   UNL     1      -0.485  13.655  22.129  0.00  0.00    +0.000 A 
ATOM      6  N   UNL     1       0.683  13.307  21.442  0.00  0.00    +0.000 N 
ATOM      7  N   UNL     1      -1.671  13.281  21.632  0.00  0.00    +0.000 NA
ATOM      8  H   UNL     1       1.489  13.642  21.943  0.00  0.00    +0.000 HD
ENDROOT
BRANCH   1  11
ATOM      9  N   UNL     1      -5.523  12.594  20.149  0.00  0.00    +0.000 N 
ATOM     10  C   UNL     1      -4.230  13.010  20.363  0.00  0.00    +0.000 A 
ATOM     11  C   UNL     1      -4.037  13.176  21.718  0.00  0.00    +0.000 A 
ATOM     12  C   UNL     1      -5.295  12.882  22.350  0.00  0.00    +0.000 A 
ATOM     13  C   UNL     1      -5.743  12.905  23.689  0.00  0.00    +0.000 A 
ATOM     14  C   UNL     1      -7.053  12.520  23.997  0.00  0.00    +0.000 A 
ATOM     15  C   UNL     1      -7.917  12.109  22.990  0.00  0.00    +0.000 A 
ATOM     16  C   UNL     1      -7.506  12.085  21.653  0.00  0.00    +0.000 A 
ATOM     17  C   UNL     1      -6.191  12.484  21.349  0.00  0.00    +0.000 A 
BRANCH   9  18
ATOM     18  C   UNL     1      -6.076  12.366  18.823  0.00  0.00    +0.000 C 
BRANCH  18  19
ATOM     19  C   UNL     1      -5.824  10.949  18.323  0.00  0.00    +0.000 C 
BRANCH  19  21
ATOM     20  C   UNL     1      -4.350  11.156  16.502  0.00  0.00    +0.000 C 
ATOM     21  O   UNL     1      -4.469  10.835  17.885  0.00  0.00    +0.000 OA
ENDBRANCH  19  21
ENDBRANCH  18  19
ENDBRANCH   9  18
ENDBRANCH   1  11
BRANCH   6  22
ATOM     22  C   UNL     1       0.880  12.161  20.653  0.00  0.00    +0.000 A 
ATOM     23  C   UNL     1       1.002  12.289  19.251  0.00  0.00    +0.000 A 
ATOM     24  C   UNL     1       1.100  11.175  18.418  0.00  0.00    +0.000 A 
ATOM     25  C   UNL     1       1.078   9.898  18.949  0.00  0.00    +0.000 A 
ATOM     26  C   UNL     1       0.996   9.741  20.333  0.00  0.00    +0.000 A 
ATOM     27  C   UNL     1       0.912  10.865  21.195  0.00  0.00    +0.000 A 
BRANCH  25  28
ATOM     28  O   UNL     1       1.126   8.898  18.019  0.00  0.00    +0.000 OA
ATOM     29  C   UNL     1       2.401   8.395  17.661  0.00  0.00    +0.000 C 
ENDBRANCH  25  28
BRANCH  27  30
ATOM     30  O   UNL     1       0.758  10.521  22.501  0.00  0.00    +0.000 OA
BRANCH  30  31
ATOM     31  C   UNL     1      -0.358   9.762  22.952  0.00  0.00    +0.000 C 
ATOM     32  F   UNL     1      -0.828   8.841  22.094  0.00  0.00    +0.000 F 
ATOM     33  F   UNL     1      -0.018   9.155  24.112  0.00  0.00    +0.000 F 
ATOM     34  F   UNL     1      -1.374  10.617  23.221  0.00  0.00    +0.000 F 
ENDBRANCH  30  31
ENDBRANCH  27  30
ENDBRANCH   6  22
TORSDOF 8
ENDMDL
MODEL 6
REMARK VINA RESULT:      -6.9      1.841      2.978
REMARK  Name = 
REMARK  10 active torsions:
REMARK  status: ('A' for Active; 'I' for Inactive)
REMARK    1  A    between atoms: C_1  and  O_2
REMARK    2  A    between atoms: O_2  and  C_3
REMARK    3  A    between atoms: C_3  and  C_4
REMARK    4  A    between atoms: C_4  and  N_5
REMARK    5  A    between atoms: C_7  and  C_8
REMARK    6  A    between atoms: N_13  and  C_14
REMARK    7  A    between atoms: C_17  and  O_18
REMARK    8  A    between atoms: O_18  and  C_19
REMARK    9  A    between atoms: C_21  and  O_22
REMARK   10  A    between atoms: O_22  and  C_23
REMARK                            x       y       z     vdW  Elec       q    Type
REMARK                         _______ _______ _______ _____ _____    ______ ____
ROOT
ATOM      1  C   UNL     1       2.430   6.034  19.964  0.00  0.00    +0.000 A 
ATOM      2  C   UNL     1       1.794   5.187  20.843  0.00  0.00    +0.000 A 
ATOM      3  C   UNL     1       2.343   3.934  20.958  0.00  0.00    +0.000 A 
ATOM      4  N   UNL     1       3.437   3.527  20.284  0.00  0.00    +0.000 NA
ATOM      5  C   UNL     1       3.985   4.415  19.442  0.00  0.00    +0.000 A 
ATOM      6  N   UNL     1       5.110   4.003  18.720  0.00  0.00    +0.000 N 
ATOM      7  N   UNL     1       3.517   5.658  19.269  0.00  0.00    +0.000 NA
ATOM      8  H   UNL     1       5.330   3.048  18.943  0.00  0.00    +0.000 HD
ENDROOT
BRANCH   1  11
ATOM      9  N   UNL     1       1.640   9.340  18.671  0.00  0.00    +0.000 N 
ATOM     10  C   UNL     1       2.202   8.090  18.559  0.00  0.00    +0.000 A 
ATOM     11  C   UNL     1       1.970   7.395  19.727  0.00  0.00    +0.000 A 
ATOM     12  C   UNL     1       1.265   8.290  20.604  0.00  0.00    +0.000 A 
ATOM     13  C   UNL     1       0.785   8.182  21.928  0.00  0.00    +0.000 A 
ATOM     14  C   UNL     1       0.086   9.246  22.509  0.00  0.00    +0.000 A 
ATOM     15  C   UNL     1      -0.144  10.410  21.787  0.00  0.00    +0.000 A 
ATOM     16  C   UNL     1       0.327  10.551  20.478  0.00  0.00    +0.000 A 
ATOM     17  C   UNL     1       1.039   9.482  19.903  0.00  0.00    +0.000 A 
BRANCH   9  18
ATOM     18  C   UNL     1       1.738  10.352  17.631  0.00  0.00    +0.000 C 
BRANCH  18  19
ATOM     19  C   UNL     1       2.615  11.527  18.042  0.00  0.00    +0.000 C 
BRANCH  19  21
ATOM     20  C   UNL     1       2.617  13.876  18.174  0.00  0.00    +0.000 C 
ATOM     21  O   UNL     1       1.810  12.702  18.159  0.00  0.00    +0.000 OA
ENDBRANCH  19  21
ENDBRANCH  18  19
ENDBRANCH   9  18
ENDBRANCH   1  11
BRANCH   6  22
ATOM     22  C   UNL     1       5.487   4.440  17.438  0.00  0.00    +0.000 A 
ATOM     23  C   UNL     1       4.986   3.774  16.296  0.00  0.00    +0.000 A 
ATOM     24  C   UNL     1       5.407   4.107  15.009  0.00  0.00    +0.000 A 
ATOM     25  C   UNL     1       6.338   5.110  14.813  0.00  0.00    +0.000 A 
ATOM     26  C   UNL     1       6.823   5.811  15.919  0.00  0.00    +0.000 A 
ATOM     27  C   UNL     1       6.392   5.495  17.234  0.00  0.00    +0.000 A 
BRANCH  25  28
ATOM     28  O   UNL     1       6.703   5.297  13.510  0.00  0.00    +0.000 OA
ATOM     29  C   UNL     1       8.088   5.337  13.215  0.00  0.00    +0.000 C 
ENDBRANCH  25  28
BRANCH  27  30
ATOM     30  O   UNL     1       7.029   6.224  18.189  0.00  0.00    +0.000 OA
BRANCH  30  31
ATOM     31  C   UNL     1       7.676   7.454  17.889  0.00  0.00    +0.000 C 
ATOM     32  F   UNL     1       8.287   7.522  16.695  0.00  0.00    +0.000 F 
ATOM     33  F   UNL     1       6.761   8.448  17.976  0.00  0.00    +0.000 F 
ATOM     34  F   UNL     1       8.617   7.682  18.837  0.00  0.00    +0.000 F 
ENDBRANCH  30  31
ENDBRANCH  27  30
ENDBRANCH   6  22
TORSDOF 8
ENDMDL
MODEL 7
REMARK VINA RESULT:      -6.8      7.444     11.496
REMARK  Name = 
REMARK  10 active torsions:
REMARK  status: ('A' for Active; 'I' for Inactive)
REMARK    1  A    between atoms: C_1  and  O_2
REMARK    2  A    between atoms: O_2  and  C_3
REMARK    3  A    between atoms: C_3  and  C_4
REMARK    4  A    between atoms: C_4  and  N_5
REMARK    5  A    between atoms: C_7  and  C_8
REMARK    6  A    between atoms: N_13  and  C_14
REMARK    7  A    between atoms: C_17  and  O_18
REMARK    8  A    between atoms: O_18  and  C_19
REMARK    9  A    between atoms: C_21  and  O_22
REMARK   10  A    between atoms: O_22  and  C_23
REMARK                            x       y       z     vdW  Elec       q    Type
REMARK                         _______ _______ _______ _____ _____    ______ ____
ROOT
ATOM      1  C   UNL     1      -2.302  11.201  17.703  0.00  0.00    +0.000 A 
ATOM      2  C   UNL     1      -2.194  10.703  16.425  0.00  0.00    +0.000 A 
ATOM      3  C   UNL     1      -3.353  10.705  15.690  0.00  0.00    +0.000 A 
ATOM      4  N   UNL     1      -4.533  11.166  16.148  0.00  0.00    +0.000 NA
ATOM      5  C   UNL     1      -4.548  11.623  17.408  0.00  0.00    +0.000 A 
ATOM      6  N   UNL     1      -5.770  12.089  17.906  0.00  0.00    +0.000 N 
ATOM      7  N   UNL     1      -3.465  11.660  18.195  0.00  0.00    +0.000 NA
ATOM      8  H   UNL     1      -6.487  11.983  17.210  0.00  0.00    +0.000 HD
ENDROOT
BRANCH   1  11
ATOM      9  N   UNL     1       0.325  10.619  20.150  0.00  0.00    +0.000 N 
ATOM     10  C   UNL     1      -0.772  10.222  19.421  0.00  0.00    +0.000 A 
ATOM     11  C   UNL     1      -1.165  11.265  18.610  0.00  0.00    +0.000 A 
ATOM     12  C   UNL     1      -0.280  12.362  18.895  0.00  0.00    +0.000 A 
ATOM     13  C   UNL     1      -0.191  13.691  18.426  0.00  0.00    +0.000 A 
ATOM     14  C   UNL     1       0.833  14.529  18.882  0.00  0.00    +0.000 A 
ATOM     15  C   UNL     1       1.769  14.057  19.794  0.00  0.00    +0.000 A 
ATOM     16  C   UNL     1       1.702  12.750  20.285  0.00  0.00    +0.000 A 
ATOM     17  C   UNL     1       0.663  11.916  19.831  0.00  0.00    +0.000 A 
BRANCH   9  18
ATOM     18  C   UNL     1       0.970   9.772  21.141  0.00  0.00    +0.000 C 
BRANCH  18  19
ATOM     19  C   UNL     1       0.205   8.478  21.388  0.00  0.00    +0.000 C 
BRANCH  19  21
ATOM     20  C   UNL     1      -0.104   9.565  23.451  0.00  0.00    +0.000 C 
ATOM     21  O   UNL     1      -0.658   8.645  22.515  0.00  0.00    +0.000 OA
ENDBRANCH  19  21
ENDBRANCH  18  19
ENDBRANCH   9  18
ENDBRANCH   1  11
BRANCH   6  22
ATOM     22  C   UNL     1      -6.198  12.047  19.245  0.00  0.00    +0.000 A 
ATOM     23  C   UNL     1      -7.169  11.099  19.639  0.00  0.00    +0.000 A 
ATOM     24  C   UNL     1      -7.696  11.082  20.930  0.00  0.00    +0.000 A 
ATOM     25  C   UNL     1      -7.278  12.005  21.871  0.00  0.00    +0.000 A 
ATOM     26  C   UNL     1      -6.292  12.929  21.521  0.00  0.00    +0.000 A 
ATOM     27  C   UNL     1      -5.733  12.949  20.216  0.00  0.00    +0.000 A 
BRANCH  25  28
ATOM     28  O   UNL     1      -7.913  11.912  23.076  0.00  0.00    +0.000 OA
ATOM     29  C   UNL     1      -7.570  12.858  24.074  0.00  0.00    +0.000 C 
ENDBRANCH  25  28
BRANCH  27  30
ATOM     30  O   UNL     1      -4.849  13.965  20.034  0.00  0.00    +0.000 OA
BRANCH  30  31
ATOM     31  C   UNL     1      -3.656  14.071  20.801  0.00  0.00    +0.000 C 
ATOM     32  F   UNL     1      -2.645  14.741  20.226  0.00  0.00    +0.000 F 
ATOM     33  F   UNL     1      -3.961  14.654  21.983  0.00  0.00    +0.000 F 
ATOM     34  F   UNL     1      -3.210  12.819  21.067  0.00  0.00    +0.000 F 
ENDBRANCH  30  31
ENDBRANCH  27  30
ENDBRANCH   6  22
TORSDOF 8
ENDMDL
MODEL 8
REMARK VINA RESULT:      -6.8      5.865      9.707
REMARK  Name = 
REMARK  10 active torsions:
REMARK  status: ('A' for Active; 'I' for Inactive)
REMARK    1  A    between atoms: C_1  and  O_2
REMARK    2  A    between atoms: O_2  and  C_3
REMARK    3  A    between atoms: C_3  and  C_4
REMARK    4  A    between atoms: C_4  and  N_5
REMARK    5  A    between atoms: C_7  and  C_8
REMARK    6  A    between atoms: N_13  and  C_14
REMARK    7  A    between atoms: C_17  and  O_18
REMARK    8  A    between atoms: O_18  and  C_19
REMARK    9  A    between atoms: C_21  and  O_22
REMARK   10  A    between atoms: O_22  and  C_23
REMARK                            x       y       z     vdW  Elec       q    Type
REMARK                         _______ _______ _______ _____ _____    ______ ____
ROOT
ATOM      1  C   UNL     1      -2.700  13.594  22.350  0.00  0.00    +0.000 A 
ATOM      2  C   UNL     1      -2.673  14.201  23.585  0.00  0.00    +0.000 A 
ATOM      3  C   UNL     1      -1.428  14.548  24.046  0.00  0.00    +0.000 A 
ATOM      4  N   UNL     1      -0.286  14.339  23.360  0.00  0.00    +0.000 NA
ATOM      5  C   UNL     1      -0.406  13.733  22.171  0.00  0.00    +0.000 A 
ATOM      6  N   UNL     1       0.770  13.491  21.454  0.00  0.00    +0.000 N 
ATOM      7  N   UNL     1      -1.580  13.362  21.644  0.00  0.00    +0.000 NA
ATOM      8  H   UNL     1       1.566  13.808  21.982  0.00  0.00    +0.000 HD
ENDROOT
BRANCH   1  11
ATOM      9  N   UNL     1      -5.379  12.568  20.115  0.00  0.00    +0.000 N 
ATOM     10  C   UNL     1      -4.086  12.964  20.366  0.00  0.00    +0.000 A 
ATOM     11  C   UNL     1      -3.941  13.163  21.723  0.00  0.00    +0.000 A 
ATOM     12  C   UNL     1      -5.227  12.911  22.315  0.00  0.00    +0.000 A 
ATOM     13  C   UNL     1      -5.724  12.979  23.635  0.00  0.00    +0.000 A 
ATOM     14  C   UNL     1      -7.052  12.628  23.903  0.00  0.00    +0.000 A 
ATOM     15  C   UNL     1      -7.886  12.207  22.875  0.00  0.00    +0.000 A 
ATOM     16  C   UNL     1      -7.427  12.139  21.556  0.00  0.00    +0.000 A 
ATOM     17  C   UNL     1      -6.093  12.504  21.291  0.00  0.00    +0.000 A 
BRANCH   9  18
ATOM     18  C   UNL     1      -5.887  12.315  18.775  0.00  0.00    +0.000 C 
BRANCH  18  19
ATOM     19  C   UNL     1      -5.817  10.842  18.395  0.00  0.00    +0.000 C 
BRANCH  19  21
ATOM     20  C   UNL     1      -6.924   9.093  19.511  0.00  0.00    +0.000 C 
ATOM     21  O   UNL     1      -7.077  10.224  18.658  0.00  0.00    +0.000 OA
ENDBRANCH  19  21
ENDBRANCH  18  19
ENDBRANCH   9  18
ENDBRANCH   1  11
BRANCH   6  22
ATOM     22  C   UNL     1       1.005  12.426  20.566  0.00  0.00    +0.000 A 
ATOM     23  C   UNL     1       1.644  12.675  19.330  0.00  0.00    +0.000 A 
ATOM     24  C   UNL     1       1.810  11.671  18.375  0.00  0.00    +0.000 A 
ATOM     25  C   UNL     1       1.347  10.391  18.616  0.00  0.00    +0.000 A 
ATOM     26  C   UNL     1       0.746  10.107  19.843  0.00  0.00    +0.000 A 
ATOM     27  C   UNL     1       0.584  11.113  20.831  0.00  0.00    +0.000 A 
BRANCH  25  28
ATOM     28  O   UNL     1       1.525   9.520  17.578  0.00  0.00    +0.000 OA
ATOM     29  C   UNL     1       2.370   8.404  17.795  0.00  0.00    +0.000 C 
ENDBRANCH  25  28
BRANCH  27  30
ATOM     30  O   UNL     1      -0.092  10.675  21.926  0.00  0.00    +0.000 OA
BRANCH  30  31
ATOM     31  C   UNL     1       0.267   9.477  22.603  0.00  0.00    +0.000 C 
ATOM     32  F   UNL     1       1.556   9.113  22.510  0.00  0.00    +0.000 F 
ATOM     33  F   UNL     1      -0.064   9.611  23.908  0.00  0.00    +0.000 F 
ATOM     34  F   UNL     1      -0.476   8.463  22.096  0.00  0.00    +0.000 F 
ENDBRANCH  30  31
ENDBRANCH  27  30
ENDBRANCH   6  22
TORSDOF 8
ENDMDL
MODEL 9
REMARK VINA RESULT:      -6.7      5.203      8.094
REMARK  Name = 
REMARK  10 active torsions:
REMARK  status: ('A' for Active; 'I' for Inactive)
REMARK    1  A    between atoms: C_1  and  O_2
REMARK    2  A    between atoms: O_2  and  C_3
REMARK    3  A    between atoms: C_3  and  C_4
REMARK    4  A    between atoms: C_4  and  N_5
REMARK    5  A    between atoms: C_7  and  C_8
REMARK    6  A    between atoms: N_13  and  C_14
REMARK    7  A    between atoms: C_17  and  O_18
REMARK    8  A    between atoms: O_18  and  C_19
REMARK    9  A    between atoms: C_21  and  O_22
REMARK   10  A    between atoms: O_22  and  C_23
REMARK                            x       y       z     vdW  Elec       q    Type
REMARK                         _______ _______ _______ _____ _____    ______ ____
ROOT
ATOM      1  C   UNL     1       1.560  13.844  19.608  0.00  0.00    +0.000 A 
ATOM      2  C   UNL     1       0.684  14.740  19.039  0.00  0.00    +0.000 A 
ATOM      3  C   UNL     1      -0.468  14.197  18.528  0.00  0.00    +0.000 A 
ATOM      4  N   UNL     1      -0.764  12.883  18.570  0.00  0.00    +0.000 NA
ATOM      5  C   UNL     1       0.152  12.082  19.133  0.00  0.00    +0.000 A 
ATOM      6  N   UNL     1      -0.131  10.713  19.169  0.00  0.00    +0.000 N 
ATOM      7  N   UNL     1       1.301  12.526  19.658  0.00  0.00    +0.000 NA
ATOM      8  H   UNL     1      -1.015  10.533  18.725  0.00  0.00    +0.000 HD
ENDROOT
BRANCH   1  11
ATOM      9  N   UNL     1       4.320  14.859  21.748  0.00  0.00    +0.000 N 
ATOM     10  C   UNL     1       3.017  14.470  21.541  0.00  0.00    +0.000 A 
ATOM     11  C   UNL     1       2.827  14.260  20.192  0.00  0.00    +0.000 A 
ATOM     12  C   UNL     1       4.072  14.578  19.548  0.00  0.00    +0.000 A 
ATOM     13  C   UNL     1       4.498  14.597  18.201  0.00  0.00    +0.000 A 
ATOM     14  C   UNL     1       5.822  14.927  17.889  0.00  0.00    +0.000 A 
ATOM     15  C   UNL     1       6.724  15.231  18.899  0.00  0.00    +0.000 A 
ATOM     16  C   UNL     1       6.331  15.232  20.242  0.00  0.00    +0.000 A 
ATOM     17  C   UNL     1       4.996  14.911  20.548  0.00  0.00    +0.000 A 
BRANCH   9  18
ATOM     18  C   UNL     1       4.848  15.206  23.058  0.00  0.00    +0.000 C 
BRANCH  18  19
ATOM     19  C   UNL     1       5.877  14.199  23.556  0.00  0.00    +0.000 C 
BRANCH  19  21
ATOM     20  C   UNL     1       6.316  11.889  23.613  0.00  0.00    +0.000 C 
ATOM     21  O   UNL     1       5.304  12.890  23.543  0.00  0.00    +0.000 OA
ENDBRANCH  19  21
ENDBRANCH  18  19
ENDBRANCH   9  18
ENDBRANCH   1  11
BRANCH   6  22
ATOM     22  C   UNL     1       0.805   9.664  19.128  0.00  0.00    +0.000 A 
ATOM     23  C   UNL     1       1.596   9.478  17.971  0.00  0.00    +0.000 A 
ATOM     24  C   UNL     1       2.466   8.395  17.844  0.00  0.00    +0.000 A 
ATOM     25  C   UNL     1       2.579   7.463  18.860  0.00  0.00    +0.000 A 
ATOM     26  C   UNL     1       1.839   7.642  20.029  0.00  0.00    +0.000 A 
ATOM     27  C   UNL     1       0.961   8.747  20.180  0.00  0.00    +0.000 A 
BRANCH  25  28
ATOM     28  O   UNL     1       3.424   6.426  18.584  0.00  0.00    +0.000 OA
ATOM     29  C   UNL     1       4.399   6.624  17.575  0.00  0.00    +0.000 C 
ENDBRANCH  25  28
BRANCH  27  30
ATOM     30  O   UNL     1       0.265   8.715  21.348  0.00  0.00    +0.000 OA
BRANCH  30  31
ATOM     31  C   UNL     1       0.680   9.451  22.491  0.00  0.00    +0.000 C 
ATOM     32  F   UNL     1       0.052   9.155  23.641  0.00  0.00    +0.000 F 
ATOM     33  F   UNL     1       2.011   9.270  22.653  0.00  0.00    +0.000 F 
ATOM     34  F   UNL     1       0.475  10.768  22.247  0.00  0.00    +0.000 F 
ENDBRANCH  30  31
ENDBRANCH  27  30
ENDBRANCH   6  22
TORSDOF 8
ENDMDL
