MODEL 1
REMARK VINA RESULT:      -8.3      0.000      0.000
REMARK  Name = 
REMARK  4 active torsions:
REMARK  status: ('A' for Active; 'I' for Inactive)
REMARK    1  A    between atoms: C_1  and  N_2
REMARK    2  A    between atoms: C_8  and  N_9
REMARK    3  A    between atoms: C_10  and  C_12
REMARK    4  A    between atoms: C_21  and  N_22
REMARK                            x       y       z     vdW  Elec       q    Type
REMARK                         _______ _______ _______ _____ _____    ______ ____
ROOT
ATOM      1  N   UNL     1       2.331   6.616  19.861  0.00  0.00    +0.000 N 
ATOM      2  C   UNL     1       2.106   7.907  19.397  0.00  0.00    +0.000 C 
ATOM      3  O   UNL     1       2.555   8.323  18.324  0.00  0.00    +0.000 OA
ATOM      4  H   UNL     1       1.671   6.292  20.565  0.00  0.00    +0.000 HD
ENDROOT
BRANCH   2   5
ATOM      5  C   UNL     1       1.267   8.814  20.227  0.00  0.00    +0.000 A 
ATOM      6  C   UNL     1       1.281   8.609  21.600  0.00  0.00    +0.000 A 
ATOM      7  N   UNL     1       0.536   9.311  22.484  0.00  0.00    +0.000 NA
ATOM      8  C   UNL     1      -0.263  10.272  22.001  0.00  0.00    +0.000 A 
ATOM      9  C   UNL     1      -1.051  10.976  22.902  0.00  0.00    +0.000 A 
ATOM     10  C   UNL     1      -1.923  11.984  22.488  0.00  0.00    +0.000 A 
ATOM     11  C   UNL     1      -2.001  12.314  21.145  0.00  0.00    +0.000 A 
ATOM     12  C   UNL     1      -1.216  11.626  20.220  0.00  0.00    +0.000 A 
ATOM     13  C   UNL     1      -0.352  10.579  20.619  0.00  0.00    +0.000 A 
ATOM     14  C   UNL     1       0.399   9.787  19.705  0.00  0.00    +0.000 A 
BRANCH  14  15
ATOM     15  N   UNL     1       0.417  10.095  18.316  0.00  0.00    +0.000 N 
ATOM     16  H   UNL     1      -0.294   9.597  17.788  0.00  0.00    +0.000 HD
ATOM     17  H   UNL     1       1.334   9.901  17.909  0.00  0.00    +0.000 HD
ENDBRANCH  14  15
ENDBRANCH   2   5
BRANCH   1  25
ATOM     18  C   UNL     1       2.861   2.046  17.883  0.00  0.00    +0.000 C 
ATOM     19  N   UNL     1       2.377   2.674  19.088  0.00  0.00    +0.000 NA
ATOM     20  C   UNL     1       1.304   3.643  18.919  0.00  0.00    +0.000 C 
ATOM     21  C   UNL     1       0.953   3.779  20.408  0.00  0.00    +0.000 C 
ATOM     22  C   UNL     1       2.278   3.562  21.163  0.00  0.00    +0.000 C 
ATOM     23  C   UNL     1       3.292   3.294  20.046  0.00  0.00    +0.000 C 
ATOM     24  C   UNL     1       3.919   4.644  19.623  0.00  0.00    +0.000 C 
ATOM     25  C   UNL     1       2.936   5.629  18.957  0.00  0.00    +0.000 C 
ATOM     26  C   UNL     1       1.842   4.886  18.186  0.00  0.00    +0.000 C 
ENDBRANCH   1  25
TORSDOF 3
ENDMDL
MODEL 2
REMARK VINA RESULT:      -8.2      4.834      8.436
REMARK  Name = 
REMARK  4 active torsions:
REMARK  status: ('A' for Active; 'I' for Inactive)
REMARK    1  A    between atoms: C_1  and  N_2
REMARK    2  A    between atoms: C_8  and  N_9
REMARK    3  A    between atoms: C_10  and  C_12
REMARK    4  A    between atoms: C_21  and  N_22
REMARK                            x       y       z     vdW  Elec       q    Type
REMARK                         _______ _______ _______ _____ _____    ______ ____
ROOT
ATOM      1  N   UNL     1       4.321   4.752  18.492  0.00  0.00    +0.000 N 
ATOM      2  C   UNL     1       5.692   4.689  18.278  0.00  0.00    +0.000 C 
ATOM      3  O   UNL     1       6.512   4.596  19.198  0.00  0.00    +0.000 OA
ATOM      4  H   UNL     1       3.749   4.505  17.686  0.00  0.00    +0.000 HD
ENDROOT
BRANCH   2   5
ATOM      5  C   UNL     1       6.185   4.708  16.874  0.00  0.00    +0.000 A 
ATOM      6  C   UNL     1       7.121   5.680  16.545  0.00  0.00    +0.000 A 
ATOM      7  N   UNL     1       7.627   5.863  15.305  0.00  0.00    +0.000 NA
ATOM      8  C   UNL     1       7.200   5.048  14.330  0.00  0.00    +0.000 A 
ATOM      9  C   UNL     1       7.695   5.251  13.049  0.00  0.00    +0.000 A 
ATOM     10  C   UNL     1       7.296   4.460  11.970  0.00  0.00    +0.000 A 
ATOM     11  C   UNL     1       6.396   3.428  12.174  0.00  0.00    +0.000 A 
ATOM     12  C   UNL     1       5.888   3.199  13.452  0.00  0.00    +0.000 A 
ATOM     13  C   UNL     1       6.256   4.013  14.549  0.00  0.00    +0.000 A 
ATOM     14  C   UNL     1       5.696   3.878  15.852  0.00  0.00    +0.000 A 
BRANCH  14  15
ATOM     15  N   UNL     1       4.807   2.810  16.156  0.00  0.00    +0.000 N 
ATOM     16  H   UNL     1       4.729   2.628  17.153  0.00  0.00    +0.000 HD
ATOM     17  H   UNL     1       5.089   1.951  15.680  0.00  0.00    +0.000 HD
ENDBRANCH  14  15
ENDBRANCH   2   5
BRANCH   1  25
ATOM     18  C   UNL     1       1.324   2.455  21.781  0.00  0.00    +0.000 C 
ATOM     19  N   UNL     1       1.373   2.777  20.377  0.00  0.00    +0.000 NA
ATOM     20  C   UNL     1       2.517   2.260  19.640  0.00  0.00    +0.000 C 
ATOM     21  C   UNL     1       1.982   2.581  18.236  0.00  0.00    +0.000 C 
ATOM     22  C   UNL     1       1.126   3.850  18.404  0.00  0.00    +0.000 C 
ATOM     23  C   UNL     1       1.215   4.152  19.902  0.00  0.00    +0.000 C 
ATOM     24  C   UNL     1       2.414   5.102  20.138  0.00  0.00    +0.000 C 
ATOM     25  C   UNL     1       3.795   4.483  19.836  0.00  0.00    +0.000 C 
ATOM     26  C   UNL     1       3.799   2.976  20.107  0.00  0.00    +0.000 C 
ENDBRANCH   1  25
TORSDOF 3
ENDMDL
MODEL 3
REMARK VINA RESULT:      -7.8      0.695      1.773
REMARK  Name = 
REMARK  4 active torsions:
REMARK  status: ('A' for Active; 'I' for Inactive)
REMARK    1  A    between atoms: C_1  and  N_2
REMARK    2  A    between atoms: C_8  and  N_9
REMARK    3  A    between atoms: C_10  and  C_12
REMARK    4  A    between atoms: C_21  and  N_22
REMARK                            x       y       z     vdW  Elec       q    Type
REMARK                         _______ _______ _______ _____ _____    ______ ____
ROOT
ATOM      1  N   UNL     1       2.158   6.647  19.294  0.00  0.00    +0.000 N 
ATOM      2  C   UNL     1       2.204   7.955  18.828  0.00  0.00    +0.000 C 
ATOM      3  O   UNL     1       2.998   8.331  17.958  0.00  0.00    +0.000 OA
ATOM      4  H   UNL     1       1.286   6.385  19.750  0.00  0.00    +0.000 HD
ENDROOT
BRANCH   2   5
ATOM      5  C   UNL     1       1.236   8.936  19.391  0.00  0.00    +0.000 A 
ATOM      6  C   UNL     1       0.566   9.752  18.490  0.00  0.00    +0.000 A 
ATOM      7  N   UNL     1      -0.305  10.725  18.842  0.00  0.00    +0.000 NA
ATOM      8  C   UNL     1      -0.539  10.908  20.149  0.00  0.00    +0.000 A 
ATOM      9  C   UNL     1      -1.410  11.924  20.518  0.00  0.00    +0.000 A 
ATOM     10  C   UNL     1      -1.702  12.196  21.856  0.00  0.00    +0.000 A 
ATOM     11  C   UNL     1      -1.128  11.425  22.853  0.00  0.00    +0.000 A 
ATOM     12  C   UNL     1      -0.255  10.393  22.509  0.00  0.00    +0.000 A 
ATOM     13  C   UNL     1       0.078  10.127  21.160  0.00  0.00    +0.000 A 
ATOM     14  C   UNL     1       1.034   9.148  20.764  0.00  0.00    +0.000 A 
BRANCH  14  15
ATOM     15  N   UNL     1       1.626   8.278  21.722  0.00  0.00    +0.000 N 
ATOM     16  H   UNL     1       2.640   8.343  21.746  0.00  0.00    +0.000 HD
ATOM     17  H   UNL     1       1.357   7.307  21.551  0.00  0.00    +0.000 HD
ENDBRANCH  14  15
ENDBRANCH   2   5
BRANCH   1  25
ATOM     18  C   UNL     1       3.231   1.925  18.016  0.00  0.00    +0.000 C 
ATOM     19  N   UNL     1       2.590   2.658  19.080  0.00  0.00    +0.000 NA
ATOM     20  C   UNL     1       1.463   3.494  18.694  0.00  0.00    +0.000 C 
ATOM     21  C   UNL     1       0.968   3.791  20.117  0.00  0.00    +0.000 C 
ATOM     22  C   UNL     1       2.232   3.798  20.997  0.00  0.00    +0.000 C 
ATOM     23  C   UNL     1       3.361   3.480  20.013  0.00  0.00    +0.000 C 
ATOM     24  C   UNL     1       3.913   4.815  19.458  0.00  0.00    +0.000 C 
ATOM     25  C   UNL     1       2.920   5.610  18.586  0.00  0.00    +0.000 C 
ATOM     26  C   UNL     1       1.963   4.675  17.841  0.00  0.00    +0.000 C 
ENDBRANCH   1  25
TORSDOF 3
ENDMDL
MODEL 4
REMARK VINA RESULT:      -7.5      4.842      8.523
REMARK  Name = 
REMARK  4 active torsions:
REMARK  status: ('A' for Active; 'I' for Inactive)
REMARK    1  A    between atoms: C_1  and  N_2
REMARK    2  A    between atoms: C_8  and  N_9
REMARK    3  A    between atoms: C_10  and  C_12
REMARK    4  A    between atoms: C_21  and  N_22
REMARK                            x       y       z     vdW  Elec       q    Type
REMARK                         _______ _______ _______ _____ _____    ______ ____
ROOT
ATOM      1  N   UNL     1       4.140   4.666  18.257  0.00  0.00    +0.000 N 
ATOM      2  C   UNL     1       5.470   4.503  17.889  0.00  0.00    +0.000 C 
ATOM      3  O   UNL     1       6.386   4.393  18.712  0.00  0.00    +0.000 OA
ATOM      4  H   UNL     1       3.463   4.424  17.536  0.00  0.00    +0.000 HD
ENDROOT
BRANCH   2   5
ATOM      5  C   UNL     1       5.793   4.434  16.438  0.00  0.00    +0.000 A 
ATOM      6  C   UNL     1       5.113   3.489  15.683  0.00  0.00    +0.000 A 
ATOM      7  N   UNL     1       5.327   3.265  14.366  0.00  0.00    +0.000 NA
ATOM      8  C   UNL     1       6.255   4.011  13.751  0.00  0.00    +0.000 A 
ATOM      9  C   UNL     1       6.500   3.767  12.406  0.00  0.00    +0.000 A 
ATOM     10  C   UNL     1       7.458   4.484  11.688  0.00  0.00    +0.000 A 
ATOM     11  C   UNL     1       8.178   5.485  12.318  0.00  0.00    +0.000 A 
ATOM     12  C   UNL     1       7.947   5.756  13.666  0.00  0.00    +0.000 A 
ATOM     13  C   UNL     1       7.005   5.015  14.417  0.00  0.00    +0.000 A 
ATOM     14  C   UNL     1       6.800   5.190  15.815  0.00  0.00    +0.000 A 
BRANCH  14  15
ATOM     15  N   UNL     1       7.460   6.232  16.524  0.00  0.00    +0.000 N 
ATOM     16  H   UNL     1       6.832   6.977  16.812  0.00  0.00    +0.000 HD
ATOM     17  H   UNL     1       8.219   6.631  15.966  0.00  0.00    +0.000 HD
ENDBRANCH  14  15
ENDBRANCH   2   5
BRANCH   1  25
ATOM     18  C   UNL     1       1.569   2.550  21.997  0.00  0.00    +0.000 C 
ATOM     19  N   UNL     1       1.465   2.766  20.575  0.00  0.00    +0.000 NA
ATOM     20  C   UNL     1       2.544   2.223  19.764  0.00  0.00    +0.000 C 
ATOM     21  C   UNL     1       1.860   2.423  18.404  0.00  0.00    +0.000 C 
ATOM     22  C   UNL     1       0.985   3.680  18.566  0.00  0.00    +0.000 C 
ATOM     23  C   UNL     1       1.215   4.096  20.022  0.00  0.00    +0.000 C 
ATOM     24  C   UNL     1       2.400   5.091  20.062  0.00  0.00    +0.000 C 
ATOM     25  C   UNL     1       3.762   4.485  19.665  0.00  0.00    +0.000 C 
ATOM     26  C   UNL     1       3.843   3.004  20.043  0.00  0.00    +0.000 C 
ENDBRANCH   1  25
TORSDOF 3
ENDMDL
MODEL 5
REMARK VINA RESULT:      -7.4      2.109      2.683
REMARK  Name = 
REMARK  4 active torsions:
REMARK  status: ('A' for Active; 'I' for Inactive)
REMARK    1  A    between atoms: C_1  and  N_2
REMARK    2  A    between atoms: C_8  and  N_9
REMARK    3  A    between atoms: C_10  and  C_12
REMARK    4  A    between atoms: C_21  and  N_22
REMARK                            x       y       z     vdW  Elec       q    Type
REMARK                         _______ _______ _______ _____ _____    ______ ____
ROOT
ATOM      1  N   UNL     1       3.240   7.027  18.376  0.00  0.00    +0.000 N 
ATOM      2  C   UNL     1       2.452   8.164  18.245  0.00  0.00    +0.000 C 
ATOM      3  O   UNL     1       2.313   8.766  17.175  0.00  0.00    +0.000 OA
ATOM      4  H   UNL     1       3.028   6.449  19.188  0.00  0.00    +0.000 HD
ENDROOT
BRANCH   2   5
ATOM      5  C   UNL     1       1.726   8.656  19.448  0.00  0.00    +0.000 A 
ATOM      6  C   UNL     1       1.749   7.848  20.576  0.00  0.00    +0.000 A 
ATOM      7  N   UNL     1       1.099   8.127  21.729  0.00  0.00    +0.000 NA
ATOM      8  C   UNL     1       0.390   9.263  21.785  0.00  0.00    +0.000 A 
ATOM      9  C   UNL     1      -0.303   9.541  22.955  0.00  0.00    +0.000 A 
ATOM     10  C   UNL     1      -1.078  10.692  23.099  0.00  0.00    +0.000 A 
ATOM     11  C   UNL     1      -1.151  11.603  22.058  0.00  0.00    +0.000 A 
ATOM     12  C   UNL     1      -0.459  11.352  20.873  0.00  0.00    +0.000 A 
ATOM     13  C   UNL     1       0.302  10.173  20.699  0.00  0.00    +0.000 A 
ATOM     14  C   UNL     1       0.950   9.826  19.479  0.00  0.00    +0.000 A 
BRANCH  14  15
ATOM     15  N   UNL     1       0.968  10.732  18.381  0.00  0.00    +0.000 N 
ATOM     16  H   UNL     1       0.688  11.674  18.638  0.00  0.00    +0.000 HD
ATOM     17  H   UNL     1       0.369  10.400  17.622  0.00  0.00    +0.000 HD
ENDBRANCH  14  15
ENDBRANCH   2   5
BRANCH   1  25
ATOM     18  C   UNL     1       6.028   3.682  15.903  0.00  0.00    +0.000 C 
ATOM     19  N   UNL     1       5.986   4.348  17.181  0.00  0.00    +0.000 NA
ATOM     20  C   UNL     1       4.776   4.153  17.966  0.00  0.00    +0.000 C 
ATOM     21  C   UNL     1       5.314   4.758  19.272  0.00  0.00    +0.000 C 
ATOM     22  C   UNL     1       6.310   5.849  18.838  0.00  0.00    +0.000 C 
ATOM     23  C   UNL     1       6.288   5.774  17.308  0.00  0.00    +0.000 C 
ATOM     24  C   UNL     1       5.208   6.754  16.789  0.00  0.00    +0.000 C 
ATOM     25  C   UNL     1       3.761   6.376  17.167  0.00  0.00    +0.000 C 
ATOM     26  C   UNL     1       3.593   4.859  17.276  0.00  0.00    +0.000 C 
ENDBRANCH   1  25
TORSDOF 3
ENDMDL
MODEL 6
REMARK VINA RESULT:      -7.0      1.379      1.782
REMARK  Name = 
REMARK  4 active torsions:
REMARK  status: ('A' for Active; 'I' for Inactive)
REMARK    1  A    between atoms: C_1  and  N_2
REMARK    2  A    between atoms: C_8  and  N_9
REMARK    3  A    between atoms: C_10  and  C_12
REMARK    4  A    between atoms: C_21  and  N_22
REMARK                            x       y       z     vdW  Elec       q    Type
REMARK                         _______ _______ _______ _____ _____    ______ ____
ROOT
ATOM      1  N   UNL     1       2.266   7.253  18.775  0.00  0.00    +0.000 N 
ATOM      2  C   UNL     1       1.855   8.569  18.606  0.00  0.00    +0.000 C 
ATOM      3  O   UNL     1       2.058   9.209  17.569  0.00  0.00    +0.000 OA
ATOM      4  H   UNL     1       1.778   6.742  19.508  0.00  0.00    +0.000 HD
ENDROOT
BRANCH   2   5
ATOM      5  C   UNL     1       1.116   9.222  19.722  0.00  0.00    +0.000 A 
ATOM      6  C   UNL     1       1.295   8.695  20.993  0.00  0.00    +0.000 A 
ATOM      7  N   UNL     1       0.658   9.139  22.100  0.00  0.00    +0.000 NA
ATOM      8  C   UNL     1      -0.199  10.160  21.959  0.00  0.00    +0.000 A 
ATOM      9  C   UNL     1      -0.877  10.601  23.087  0.00  0.00    +0.000 A 
ATOM     10  C   UNL     1      -1.798  11.648  23.032  0.00  0.00    +0.000 A 
ATOM     11  C   UNL     1      -2.038  12.287  21.827  0.00  0.00    +0.000 A 
ATOM     12  C   UNL     1      -1.365  11.868  20.680  0.00  0.00    +0.000 A 
ATOM     13  C   UNL     1      -0.454  10.786  20.712  0.00  0.00    +0.000 A 
ATOM     14  C   UNL     1       0.187  10.261  19.553  0.00  0.00    +0.000 A 
BRANCH  14  15
ATOM     15  N   UNL     1       0.036  10.894  18.288  0.00  0.00    +0.000 N 
ATOM     16  H   UNL     1      -0.911  11.221  18.116  0.00  0.00    +0.000 HD
ATOM     17  H   UNL     1       0.317  10.269  17.529  0.00  0.00    +0.000 HD
ENDBRANCH  14  15
ENDBRANCH   2   5
BRANCH   1  25
ATOM     18  C   UNL     1       4.567   3.408  16.537  0.00  0.00    +0.000 C 
ATOM     19  N   UNL     1       4.527   4.072  17.817  0.00  0.00    +0.000 NA
ATOM     20  C   UNL     1       3.227   4.128  18.470  0.00  0.00    +0.000 C 
ATOM     21  C   UNL     1       3.737   4.614  19.835  0.00  0.00    +0.000 C 
ATOM     22  C   UNL     1       4.972   5.481  19.526  0.00  0.00    +0.000 C 
ATOM     23  C   UNL     1       5.094   5.409  18.001  0.00  0.00    +0.000 C 
ATOM     24  C   UNL     1       4.293   6.584  17.392  0.00  0.00    +0.000 C 
ATOM     25  C   UNL     1       2.768   6.508  17.613  0.00  0.00    +0.000 C 
ATOM     26  C   UNL     1       2.288   5.055  17.676  0.00  0.00    +0.000 C 
ENDBRANCH   1  25
TORSDOF 3
ENDMDL
MODEL 7
REMARK VINA RESULT:      -6.6      2.022      7.944
REMARK  Name = 
REMARK  4 active torsions:
REMARK  status: ('A' for Active; 'I' for Inactive)
REMARK    1  A    between atoms: C_1  and  N_2
REMARK    2  A    between atoms: C_8  and  N_9
REMARK    3  A    between atoms: C_10  and  C_12
REMARK    4  A    between atoms: C_21  and  N_22
REMARK                            x       y       z     vdW  Elec       q    Type
REMARK                         _______ _______ _______ _____ _____    ______ ____
ROOT
ATOM      1  N   UNL     1       0.783   9.569  19.612  0.00  0.00    +0.000 N 
ATOM      2  C   UNL     1       1.342   8.449  20.217  0.00  0.00    +0.000 C 
ATOM      3  O   UNL     1       1.113   8.135  21.390  0.00  0.00    +0.000 OA
ATOM      4  H   UNL     1       0.779   9.548  18.594  0.00  0.00    +0.000 HD
ENDROOT
BRANCH   2   5
ATOM      5  C   UNL     1       2.236   7.583  19.400  0.00  0.00    +0.000 A 
ATOM      6  C   UNL     1       2.742   8.125  18.227  0.00  0.00    +0.000 A 
ATOM      7  N   UNL     1       3.523   7.453  17.351  0.00  0.00    +0.000 NA
ATOM      8  C   UNL     1       3.833   6.181  17.641  0.00  0.00    +0.000 A 
ATOM      9  C   UNL     1       4.611   5.478  16.731  0.00  0.00    +0.000 A 
ATOM     10  C   UNL     1       4.971   4.146  16.942  0.00  0.00    +0.000 A 
ATOM     11  C   UNL     1       4.563   3.502  18.098  0.00  0.00    +0.000 A 
ATOM     12  C   UNL     1       3.786   4.188  19.032  0.00  0.00    +0.000 A 
ATOM     13  C   UNL     1       3.384   5.526  18.816  0.00  0.00    +0.000 A 
ATOM     14  C   UNL     1       2.516   6.239  19.692  0.00  0.00    +0.000 A 
BRANCH  14  15
ATOM     15  N   UNL     1       2.097   5.667  20.926  0.00  0.00    +0.000 N 
ATOM     16  H   UNL     1       1.267   6.111  21.309  0.00  0.00    +0.000 HD
ATOM     17  H   UNL     1       2.847   5.704  21.620  0.00  0.00    +0.000 HD
ENDBRANCH  14  15
ENDBRANCH   2   5
BRANCH   1  25
ATOM     18  C   UNL     1      -1.972  13.617  20.663  0.00  0.00    +0.000 C 
ATOM     19  N   UNL     1      -0.668  13.277  20.149  0.00  0.00    +0.000 NA
ATOM     20  C   UNL     1      -0.647  12.450  18.951  0.00  0.00    +0.000 C 
ATOM     21  C   UNL     1       0.848  12.620  18.646  0.00  0.00    +0.000 C 
ATOM     22  C   UNL     1       1.531  12.778  20.017  0.00  0.00    +0.000 C 
ATOM     23  C   UNL     1       0.369  12.710  21.011  0.00  0.00    +0.000 C 
ATOM     24  C   UNL     1       0.178  11.234  21.436  0.00  0.00    +0.000 C 
ATOM     25  C   UNL     1      -0.289  10.294  20.306  0.00  0.00    +0.000 C 
ATOM     26  C   UNL     1      -1.160  11.037  19.289  0.00  0.00    +0.000 C 
ENDBRANCH   1  25
TORSDOF 3
ENDMDL
MODEL 8
REMARK VINA RESULT:      -6.3      2.780      8.270
REMARK  Name = 
REMARK  4 active torsions:
REMARK  status: ('A' for Active; 'I' for Inactive)
REMARK    1  A    between atoms: C_1  and  N_2
REMARK    2  A    between atoms: C_8  and  N_9
REMARK    3  A    between atoms: C_10  and  C_12
REMARK    4  A    between atoms: C_21  and  N_22
REMARK                            x       y       z     vdW  Elec       q    Type
REMARK                         _______ _______ _______ _____ _____    ______ ____
ROOT
ATOM      1  N   UNL     1       1.155  11.196  19.491  0.00  0.00    +0.000 N 
ATOM      2  C   UNL     1       0.797   9.872  19.715  0.00  0.00    +0.000 C 
ATOM      3  O   UNL     1      -0.234   9.547  20.314  0.00  0.00    +0.000 OA
ATOM      4  H   UNL     1       1.822  11.338  18.734  0.00  0.00    +0.000 HD
ENDROOT
BRANCH   2   5
ATOM      5  C   UNL     1       1.690   8.805  19.185  0.00  0.00    +0.000 A 
ATOM      6  C   UNL     1       2.178   8.971  17.896  0.00  0.00    +0.000 A 
ATOM      7  N   UNL     1       2.955   8.071  17.252  0.00  0.00    +0.000 NA
ATOM      8  C   UNL     1       3.280   6.947  17.907  0.00  0.00    +0.000 A 
ATOM      9  C   UNL     1       4.054   6.007  17.241  0.00  0.00    +0.000 A 
ATOM     10  C   UNL     1       4.428   4.802  17.838  0.00  0.00    +0.000 A 
ATOM     11  C   UNL     1       4.038   4.533  19.140  0.00  0.00    +0.000 A 
ATOM     12  C   UNL     1       3.266   5.464  19.834  0.00  0.00    +0.000 A 
ATOM     13  C   UNL     1       2.849   6.674  19.231  0.00  0.00    +0.000 A 
ATOM     14  C   UNL     1       1.985   7.612  19.864  0.00  0.00    +0.000 A 
BRANCH  14  15
ATOM     15  N   UNL     1       1.585   7.436  21.218  0.00  0.00    +0.000 N 
ATOM     16  H   UNL     1       0.613   7.684  21.381  0.00  0.00    +0.000 HD
ATOM     17  H   UNL     1       2.179   7.978  21.849  0.00  0.00    +0.000 HD
ENDBRANCH  14  15
ENDBRANCH   2   5
BRANCH   1  25
ATOM     18  C   UNL     1      -0.289  15.958  20.055  0.00  0.00    +0.000 C 
ATOM     19  N   UNL     1       0.910  15.159  20.110  0.00  0.00    +0.000 NA
ATOM     20  C   UNL     1       1.248  14.425  18.900  0.00  0.00    +0.000 C 
ATOM     21  C   UNL     1       2.664  14.016  19.331  0.00  0.00    +0.000 C 
ATOM     22  C   UNL     1       2.595  13.855  20.862  0.00  0.00    +0.000 C 
ATOM     23  C   UNL     1       1.144  14.209  21.199  0.00  0.00    +0.000 C 
ATOM     24  C   UNL     1       0.306  12.909  21.168  0.00  0.00    +0.000 C 
ATOM     25  C   UNL     1       0.179  12.257  19.776  0.00  0.00    +0.000 C 
ATOM     26  C   UNL     1       0.212  13.310  18.665  0.00  0.00    +0.000 C 
ENDBRANCH   1  25
TORSDOF 3
ENDMDL
MODEL 9
REMARK VINA RESULT:      -6.3      2.600      3.952
REMARK  Name = 
REMARK  4 active torsions:
REMARK  status: ('A' for Active; 'I' for Inactive)
REMARK    1  A    between atoms: C_1  and  N_2
REMARK    2  A    between atoms: C_8  and  N_9
REMARK    3  A    between atoms: C_10  and  C_12
REMARK    4  A    between atoms: C_21  and  N_22
REMARK                            x       y       z     vdW  Elec       q    Type
REMARK                         _______ _______ _______ _____ _____    ______ ____
ROOT
ATOM      1  N   UNL     1       3.278   6.367  18.207  0.00  0.00    +0.000 N 
ATOM      2  C   UNL     1       2.550   6.713  19.338  0.00  0.00    +0.000 C 
ATOM      3  O   UNL     1       2.533   6.022  20.363  0.00  0.00    +0.000 OA
ATOM      4  H   UNL     1       3.475   7.139  17.572  0.00  0.00    +0.000 HD
ENDROOT
BRANCH   2   5
ATOM      5  C   UNL     1       1.777   7.985  19.315  0.00  0.00    +0.000 A 
ATOM      6  C   UNL     1       1.566   8.573  18.075  0.00  0.00    +0.000 A 
ATOM      7  N   UNL     1       0.931   9.753  17.889  0.00  0.00    +0.000 NA
ATOM      8  C   UNL     1       0.470  10.391  18.974  0.00  0.00    +0.000 A 
ATOM      9  C   UNL     1      -0.157  11.615  18.791  0.00  0.00    +0.000 A 
ATOM     10  C   UNL     1      -0.655  12.357  19.863  0.00  0.00    +0.000 A 
ATOM     11  C   UNL     1      -0.543  11.860  21.151  0.00  0.00    +0.000 A 
ATOM     12  C   UNL     1       0.077  10.629  21.362  0.00  0.00    +0.000 A 
ATOM     13  C   UNL     1       0.617   9.881  20.289  0.00  0.00    +0.000 A 
ATOM     14  C   UNL     1       1.340   8.666  20.462  0.00  0.00    +0.000 A 
BRANCH  14  15
ATOM     15  N   UNL     1       1.452   8.061  21.745  0.00  0.00    +0.000 N 
ATOM     16  H   UNL     1       1.937   8.646  22.420  0.00  0.00    +0.000 HD
ATOM     17  H   UNL     1       1.927   7.157  21.684  0.00  0.00    +0.000 HD
ENDBRANCH  14  15
ENDBRANCH   2   5
BRANCH   1  25
ATOM     18  C   UNL     1       7.751   4.225  17.510  0.00  0.00    +0.000 C 
ATOM     19  N   UNL     1       6.950   5.298  16.974  0.00  0.00    +0.000 NA
ATOM     20  C   UNL     1       6.549   6.331  17.917  0.00  0.00    +0.000 C 
ATOM     21  C   UNL     1       6.026   7.329  16.874  0.00  0.00    +0.000 C 
ATOM     22  C   UNL     1       5.478   6.467  15.721  0.00  0.00    +0.000 C 
ATOM     23  C   UNL     1       5.750   5.032  16.181  0.00  0.00    +0.000 C 
ATOM     24  C   UNL     1       4.511   4.526  16.959  0.00  0.00    +0.000 C 
ATOM     25  C   UNL     1       4.241   5.261  18.288  0.00  0.00    +0.000 C 
ATOM     26  C   UNL     1       5.544   5.747  18.928  0.00  0.00    +0.000 C 
ENDBRANCH   1  25
TORSDOF 3
ENDMDL
