MODEL 1
REMARK VINA RESULT:      -5.0      0.000      0.000
REMARK  Name = 
REMARK  4 active torsions:
REMARK  status: ('A' for Active; 'I' for Inactive)
REMARK    1  A    between atoms: C_1  and  C_2
REMARK    2  A    between atoms: C_2  and  C_3
REMARK    3  A    between atoms: C_6  and  C_7
REMARK    4  A    between atoms: C_8  and  C_9
REMARK                            x       y       z     vdW  Elec       q    Type
REMARK                         _______ _______ _______ _____ _____    ______ ____
ROOT
ATOM      1  C   UNL     1       6.630   4.834  15.087  0.00  0.00    +0.000 A 
ATOM      2  C   UNL     1       5.731   3.999  15.734  0.00  0.00    +0.000 A 
ATOM      3  N   UNL     1       5.431   4.122  17.046  0.00  0.00    +0.000 NA
ATOM      4  C   UNL     1       6.062   5.124  17.714  0.00  0.00    +0.000 A 
ATOM      5  C   UNL     1       5.777   5.211  19.181  0.00  0.00    +0.000 C 
ATOM      6  C   UNL     1       6.949   5.991  17.065  0.00  0.00    +0.000 A 
ATOM      7  C   UNL     1       7.645   7.126  17.751  0.00  0.00    +0.000 C 
ATOM      8  N   UNL     1       7.244   5.847  15.746  0.00  0.00    +0.000 NA
ENDROOT
BRANCH   1  10
ATOM      9  C   UNL     1       6.063   3.615  12.994  0.00  0.00    +0.000 C 
ATOM     10  C   UNL     1       7.021   4.593  13.658  0.00  0.00    +0.000 C 
ENDBRANCH   1  10
TORSDOF 1
ENDMDL
MODEL 2
REMARK VINA RESULT:      -5.0      1.208      3.968
REMARK  Name = 
REMARK  4 active torsions:
REMARK  status: ('A' for Active; 'I' for Inactive)
REMARK    1  A    between atoms: C_1  and  C_2
REMARK    2  A    between atoms: C_2  and  C_3
REMARK    3  A    between atoms: C_6  and  C_7
REMARK    4  A    between atoms: C_8  and  C_9
REMARK                            x       y       z     vdW  Elec       q    Type
REMARK                         _______ _______ _______ _____ _____    ______ ____
ROOT
ATOM      1  C   UNL     1       6.952   5.127  16.328  0.00  0.00    +0.000 A 
ATOM      2  C   UNL     1       5.977   4.146  16.233  0.00  0.00    +0.000 A 
ATOM      3  N   UNL     1       5.613   3.586  15.058  0.00  0.00    +0.000 NA
ATOM      4  C   UNL     1       6.262   4.037  13.953  0.00  0.00    +0.000 A 
ATOM      5  C   UNL     1       5.806   3.463  12.647  0.00  0.00    +0.000 C 
ATOM      6  C   UNL     1       7.270   5.005  14.039  0.00  0.00    +0.000 A 
ATOM      7  C   UNL     1       8.034   5.511  12.854  0.00  0.00    +0.000 C 
ATOM      8  N   UNL     1       7.617   5.562  15.230  0.00  0.00    +0.000 NA
ENDROOT
BRANCH   1  10
ATOM      9  C   UNL     1       7.445   7.299  17.436  0.00  0.00    +0.000 C 
ATOM     10  C   UNL     1       7.247   5.804  17.635  0.00  0.00    +0.000 C 
ENDBRANCH   1  10
TORSDOF 1
ENDMDL
MODEL 3
REMARK VINA RESULT:      -4.9      1.423      2.753
REMARK  Name = 
REMARK  4 active torsions:
REMARK  status: ('A' for Active; 'I' for Inactive)
REMARK    1  A    between atoms: C_1  and  C_2
REMARK    2  A    between atoms: C_2  and  C_3
REMARK    3  A    between atoms: C_6  and  C_7
REMARK    4  A    between atoms: C_8  and  C_9
REMARK                            x       y       z     vdW  Elec       q    Type
REMARK                         _______ _______ _______ _____ _____    ______ ____
ROOT
ATOM      1  C   UNL     1       6.337   3.968  13.511  0.00  0.00    +0.000 A 
ATOM      2  C   UNL     1       7.410   4.829  13.686  0.00  0.00    +0.000 A 
ATOM      3  N   UNL     1       7.616   5.522  14.827  0.00  0.00    +0.000 NA
ATOM      4  C   UNL     1       6.705   5.330  15.817  0.00  0.00    +0.000 A 
ATOM      5  C   UNL     1       6.900   6.153  17.053  0.00  0.00    +0.000 C 
ATOM      6  C   UNL     1       5.634   4.442  15.664  0.00  0.00    +0.000 A 
ATOM      7  C   UNL     1       4.622   4.176  16.736  0.00  0.00    +0.000 C 
ATOM      8  N   UNL     1       5.439   3.759  14.505  0.00  0.00    +0.000 NA
ENDROOT
BRANCH   1  10
ATOM      9  C   UNL     1       4.605   3.375  11.827  0.00  0.00    +0.000 C 
ATOM     10  C   UNL     1       6.082   3.305  12.189  0.00  0.00    +0.000 C 
ENDBRANCH   1  10
TORSDOF 1
ENDMDL
MODEL 4
REMARK VINA RESULT:      -4.9      1.374      1.518
REMARK  Name = 
REMARK  4 active torsions:
REMARK  status: ('A' for Active; 'I' for Inactive)
REMARK    1  A    between atoms: C_1  and  C_2
REMARK    2  A    between atoms: C_2  and  C_3
REMARK    3  A    between atoms: C_6  and  C_7
REMARK    4  A    between atoms: C_8  and  C_9
REMARK                            x       y       z     vdW  Elec       q    Type
REMARK                         _______ _______ _______ _____ _____    ______ ____
ROOT
ATOM      1  C   UNL     1       6.158   5.332  16.054  0.00  0.00    +0.000 A 
ATOM      2  C   UNL     1       6.214   4.323  17.004  0.00  0.00    +0.000 A 
ATOM      3  N   UNL     1       6.823   4.476  18.200  0.00  0.00    +0.000 NA
ATOM      4  C   UNL     1       7.389   5.689  18.433  0.00  0.00    +0.000 A 
ATOM      5  C   UNL     1       8.123   5.829  19.731  0.00  0.00    +0.000 C 
ATOM      6  C   UNL     1       7.314   6.725  17.495  0.00  0.00    +0.000 A 
ATOM      7  C   UNL     1       7.895   8.087  17.719  0.00  0.00    +0.000 C 
ATOM      8  N   UNL     1       6.702   6.550  16.293  0.00  0.00    +0.000 NA
ENDROOT
BRANCH   1  10
ATOM      9  C   UNL     1       6.263   3.915  14.013  0.00  0.00    +0.000 C 
ATOM     10  C   UNL     1       5.571   5.085  14.695  0.00  0.00    +0.000 C 
ENDBRANCH   1  10
TORSDOF 1
ENDMDL
MODEL 5
REMARK VINA RESULT:      -4.9      3.030      4.317
REMARK  Name = 
REMARK  4 active torsions:
REMARK  status: ('A' for Active; 'I' for Inactive)
REMARK    1  A    between atoms: C_1  and  C_2
REMARK    2  A    between atoms: C_2  and  C_3
REMARK    3  A    between atoms: C_6  and  C_7
REMARK    4  A    between atoms: C_8  and  C_9
REMARK                            x       y       z     vdW  Elec       q    Type
REMARK                         _______ _______ _______ _____ _____    ______ ____
ROOT
ATOM      1  C   UNL     1       6.141   5.416  18.644  0.00  0.00    +0.000 A 
ATOM      2  C   UNL     1       5.279   6.047  17.760  0.00  0.00    +0.000 A 
ATOM      3  N   UNL     1       4.064   5.548  17.438  0.00  0.00    +0.000 NA
ATOM      4  C   UNL     1       3.721   4.376  18.036  0.00  0.00    +0.000 A 
ATOM      5  C   UNL     1       2.405   3.794  17.623  0.00  0.00    +0.000 C 
ATOM      6  C   UNL     1       4.570   3.745  18.952  0.00  0.00    +0.000 A 
ATOM      7  C   UNL     1       4.223   2.471  19.658  0.00  0.00    +0.000 C 
ATOM      8  N   UNL     1       5.791   4.260  19.258  0.00  0.00    +0.000 NA
ENDROOT
BRANCH   1  10
ATOM      9  C   UNL     1       7.794   7.168  18.025  0.00  0.00    +0.000 C 
ATOM     10  C   UNL     1       7.525   5.944  18.887  0.00  0.00    +0.000 C 
ENDBRANCH   1  10
TORSDOF 1
ENDMDL
MODEL 6
REMARK VINA RESULT:      -4.9      1.061      2.287
REMARK  Name = 
REMARK  4 active torsions:
REMARK  status: ('A' for Active; 'I' for Inactive)
REMARK    1  A    between atoms: C_1  and  C_2
REMARK    2  A    between atoms: C_2  and  C_3
REMARK    3  A    between atoms: C_6  and  C_7
REMARK    4  A    between atoms: C_8  and  C_9
REMARK                            x       y       z     vdW  Elec       q    Type
REMARK                         _______ _______ _______ _____ _____    ______ ____
ROOT
ATOM      1  C   UNL     1       5.965   4.200  14.475  0.00  0.00    +0.000 A 
ATOM      2  C   UNL     1       7.094   5.005  14.456  0.00  0.00    +0.000 A 
ATOM      3  N   UNL     1       7.573   5.623  15.558  0.00  0.00    +0.000 NA
ATOM      4  C   UNL     1       6.881   5.414  16.709  0.00  0.00    +0.000 A 
ATOM      5  C   UNL     1       7.376   6.157  17.912  0.00  0.00    +0.000 C 
ATOM      6  C   UNL     1       5.758   4.580  16.748  0.00  0.00    +0.000 A 
ATOM      7  C   UNL     1       4.982   4.296  17.997  0.00  0.00    +0.000 C 
ATOM      8  N   UNL     1       5.288   3.972  15.626  0.00  0.00    +0.000 NA
ENDROOT
BRANCH   1  10
ATOM      9  C   UNL     1       6.491   3.468  12.157  0.00  0.00    +0.000 C 
ATOM     10  C   UNL     1       5.402   3.624  13.208  0.00  0.00    +0.000 C 
ENDBRANCH   1  10
TORSDOF 1
ENDMDL
MODEL 7
REMARK VINA RESULT:      -4.9      3.480      5.625
REMARK  Name = 
REMARK  4 active torsions:
REMARK  status: ('A' for Active; 'I' for Inactive)
REMARK    1  A    between atoms: C_1  and  C_2
REMARK    2  A    between atoms: C_2  and  C_3
REMARK    3  A    between atoms: C_6  and  C_7
REMARK    4  A    between atoms: C_8  and  C_9
REMARK                            x       y       z     vdW  Elec       q    Type
REMARK                         _______ _______ _______ _____ _____    ______ ____
ROOT
ATOM      1  C   UNL     1       2.144   3.533  19.309  0.00  0.00    +0.000 A 
ATOM      2  C   UNL     1       1.955   3.130  17.997  0.00  0.00    +0.000 A 
ATOM      3  N   UNL     1       2.857   3.369  17.019  0.00  0.00    +0.000 NA
ATOM      4  C   UNL     1       3.981   4.037  17.391  0.00  0.00    +0.000 A 
ATOM      5  C   UNL     1       4.943   4.360  16.290  0.00  0.00    +0.000 C 
ATOM      6  C   UNL     1       4.197   4.424  18.718  0.00  0.00    +0.000 A 
ATOM      7  C   UNL     1       5.432   5.133  19.181  0.00  0.00    +0.000 C 
ATOM      8  N   UNL     1       3.275   4.179  19.687  0.00  0.00    +0.000 NA
ENDROOT
BRANCH   1  10
ATOM      9  C   UNL     1       1.647   2.767  21.622  0.00  0.00    +0.000 C 
ATOM     10  C   UNL     1       1.070   3.348  20.341  0.00  0.00    +0.000 C 
ENDBRANCH   1  10
TORSDOF 1
ENDMDL
MODEL 8
REMARK VINA RESULT:      -4.8      2.670      4.171
REMARK  Name = 
REMARK  4 active torsions:
REMARK  status: ('A' for Active; 'I' for Inactive)
REMARK    1  A    between atoms: C_1  and  C_2
REMARK    2  A    between atoms: C_2  and  C_3
REMARK    3  A    between atoms: C_6  and  C_7
REMARK    4  A    between atoms: C_8  and  C_9
REMARK                            x       y       z     vdW  Elec       q    Type
REMARK                         _______ _______ _______ _____ _____    ______ ____
ROOT
ATOM      1  C   UNL     1       3.695   3.145  17.982  0.00  0.00    +0.000 A 
ATOM      2  C   UNL     1       4.434   3.276  19.148  0.00  0.00    +0.000 A 
ATOM      3  N   UNL     1       5.579   3.990  19.213  0.00  0.00    +0.000 NA
ATOM      4  C   UNL     1       5.981   4.585  18.059  0.00  0.00    +0.000 A 
ATOM      5  C   UNL     1       7.286   5.316  18.121  0.00  0.00    +0.000 C 
ATOM      6  C   UNL     1       5.228   4.485  16.883  0.00  0.00    +0.000 A 
ATOM      7  C   UNL     1       5.613   5.148  15.596  0.00  0.00    +0.000 C 
ATOM      8  N   UNL     1       4.081   3.757  16.836  0.00  0.00    +0.000 NA
ENDROOT
BRANCH   1  10
ATOM      9  C   UNL     1       1.277   2.943  18.530  0.00  0.00    +0.000 C 
ATOM     10  C   UNL     1       2.490   2.252  17.924  0.00  0.00    +0.000 C 
ENDBRANCH   1  10
TORSDOF 1
ENDMDL
MODEL 9
REMARK VINA RESULT:      -4.8      3.249      5.461
REMARK  Name = 
REMARK  4 active torsions:
REMARK  status: ('A' for Active; 'I' for Inactive)
REMARK    1  A    between atoms: C_1  and  C_2
REMARK    2  A    between atoms: C_2  and  C_3
REMARK    3  A    between atoms: C_6  and  C_7
REMARK    4  A    between atoms: C_8  and  C_9
REMARK                            x       y       z     vdW  Elec       q    Type
REMARK                         _______ _______ _______ _____ _____    ______ ____
ROOT
ATOM      1  C   UNL     1       2.668   3.856  19.701  0.00  0.00    +0.000 A 
ATOM      2  C   UNL     1       3.771   3.047  19.924  0.00  0.00    +0.000 A 
ATOM      3  N   UNL     1       4.995   3.320  19.422  0.00  0.00    +0.000 NA
ATOM      4  C   UNL     1       5.096   4.450  18.673  0.00  0.00    +0.000 A 
ATOM      5  C   UNL     1       6.438   4.711  18.062  0.00  0.00    +0.000 C 
ATOM      6  C   UNL     1       3.997   5.291  18.464  0.00  0.00    +0.000 A 
ATOM      7  C   UNL     1       4.066   6.561  17.673  0.00  0.00    +0.000 C 
ATOM      8  N   UNL     1       2.771   4.995  18.973  0.00  0.00    +0.000 NA
ENDROOT
BRANCH   1  10
ATOM      9  C   UNL     1       1.392   2.735  21.518  0.00  0.00    +0.000 C 
ATOM     10  C   UNL     1       1.303   3.458  20.182  0.00  0.00    +0.000 C 
ENDBRANCH   1  10
TORSDOF 1
ENDMDL
