MODEL 1
REMARK VINA RESULT:      -7.0      0.000      0.000
REMARK  Name = 
REMARK  7 active torsions:
REMARK  status: ('A' for Active; 'I' for Inactive)
REMARK    1  A    between atoms: C_1  and  C_2
REMARK    2  A    between atoms: C_2  and  C_3
REMARK    3  A    between atoms: C_2  and  N_4
REMARK    4  A    between atoms: C_8  and  C_9
REMARK    5  A    between atoms: C_12  and  O_13
REMARK    6  A    between atoms: C_14  and  O_15
REMARK    7  A    between atoms: N_19  and  C_20
REMARK                            x       y       z     vdW  Elec       q    Type
REMARK                         _______ _______ _______ _____ _____    ______ ____
ROOT
ATOM      1  N   UNL     1       0.308   9.890  21.271  0.00  0.00    +0.000 NA
ATOM      2  C   UNL     1       0.989   9.441  20.286  0.00  0.00    +0.000 C 
ATOM      3  S   UNL     1       1.664   7.829  20.176  0.00  0.00    +0.000 S 
ATOM      4  C   UNL     1       2.246   8.090  18.587  0.00  0.00    +0.000 C 
ATOM      5  C   UNL     1       2.855   7.221  17.771  0.00  0.00    +0.000 C 
ATOM      6  C   UNL     1       1.983   9.489  18.158  0.00  0.00    +0.000 C 
ATOM      7  O   UNL     1       2.431   9.913  17.098  0.00  0.00    +0.000 OA
ATOM      8  N   UNL     1       1.262  10.171  19.134  0.00  0.00    +0.000 N 
ENDROOT
BRANCH   5   9
ATOM      9  C   UNL     1       3.098   5.813  18.082  0.00  0.00    +0.000 A 
ATOM     10  C   UNL     1       2.063   4.871  18.010  0.00  0.00    +0.000 A 
ATOM     11  C   UNL     1       2.316   3.522  18.276  0.00  0.00    +0.000 A 
ATOM     12  C   UNL     1       3.606   3.129  18.613  0.00  0.00    +0.000 A 
ATOM     13  C   UNL     1       4.630   4.068  18.694  0.00  0.00    +0.000 A 
ATOM     14  C   UNL     1       4.390   5.407  18.436  0.00  0.00    +0.000 A 
BRANCH  12  15
ATOM     15  O   UNL     1       3.920   1.824  18.871  0.00  0.00    +0.000 OA
ATOM     16  H   UNL     1       4.213   1.413  18.039  0.00  0.00    +0.000 HD
ENDBRANCH  12  15
BRANCH  13  17
ATOM     17  O   UNL     1       5.896   3.673  19.027  0.00  0.00    +0.000 OA
ATOM     18  H   UNL     1       5.901   3.667  20.005  0.00  0.00    +0.000 HD
ENDBRANCH  13  17
ENDBRANCH   5   9
BRANCH   8  19
ATOM     19  C   UNL     1       0.914  11.562  18.964  0.00  0.00    +0.000 A 
ATOM     20  C   UNL     1       1.837  12.584  19.248  0.00  0.00    +0.000 A 
ATOM     21  C   UNL     1       1.496  13.938  19.129  0.00  0.00    +0.000 A 
ATOM     22  C   UNL     1       0.223  14.304  18.711  0.00  0.00    +0.000 A 
ATOM     23  C   UNL     1      -0.705  13.316  18.411  0.00  0.00    +0.000 A 
ATOM     24  C   UNL     1      -0.363  11.965  18.539  0.00  0.00    +0.000 A 
ENDBRANCH   8  19
BRANCH   1  26
ATOM     25  C   UNL     1       1.434   9.233  23.268  0.00  0.00    +0.000 C 
ATOM     26  C   UNL     1       0.089   9.203  22.535  0.00  0.00    +0.000 C 
ATOM     27  C   UNL     1      -0.963   9.928  23.368  0.00  0.00    +0.000 C 
ENDBRANCH   1  26
TORSDOF 5
ENDMDL
MODEL 2
REMARK VINA RESULT:      -6.9      3.168      7.559
REMARK  Name = 
REMARK  7 active torsions:
REMARK  status: ('A' for Active; 'I' for Inactive)
REMARK    1  A    between atoms: C_1  and  C_2
REMARK    2  A    between atoms: C_2  and  C_3
REMARK    3  A    between atoms: C_2  and  N_4
REMARK    4  A    between atoms: C_8  and  C_9
REMARK    5  A    between atoms: C_12  and  O_13
REMARK    6  A    between atoms: C_14  and  O_15
REMARK    7  A    between atoms: N_19  and  C_20
REMARK                            x       y       z     vdW  Elec       q    Type
REMARK                         _______ _______ _______ _____ _____    ______ ____
ROOT
ATOM      1  N   UNL     1       2.984   4.205  20.009  0.00  0.00    +0.000 NA
ATOM      2  C   UNL     1       2.800   5.410  19.622  0.00  0.00    +0.000 C 
ATOM      3  S   UNL     1       1.685   6.545  20.350  0.00  0.00    +0.000 S 
ATOM      4  C   UNL     1       2.182   7.822  19.323  0.00  0.00    +0.000 C 
ATOM      5  C   UNL     1       1.790   9.102  19.337  0.00  0.00    +0.000 C 
ATOM      6  C   UNL     1       3.180   7.337  18.334  0.00  0.00    +0.000 C 
ATOM      7  O   UNL     1       3.572   8.068  17.430  0.00  0.00    +0.000 OA
ATOM      8  N   UNL     1       3.496   6.003  18.574  0.00  0.00    +0.000 N 
ENDROOT
BRANCH   5   9
ATOM      9  C   UNL     1       0.863   9.681  20.309  0.00  0.00    +0.000 A 
ATOM     10  C   UNL     1      -0.211  10.480  19.890  0.00  0.00    +0.000 A 
ATOM     11  C   UNL     1      -1.111  10.999  20.826  0.00  0.00    +0.000 A 
ATOM     12  C   UNL     1      -0.925  10.712  22.174  0.00  0.00    +0.000 A 
ATOM     13  C   UNL     1       0.147   9.928  22.587  0.00  0.00    +0.000 A 
ATOM     14  C   UNL     1       1.046   9.412  21.670  0.00  0.00    +0.000 A 
BRANCH  12  15
ATOM     15  O   UNL     1      -1.778  11.179  23.136  0.00  0.00    +0.000 OA
ATOM     16  H   UNL     1      -1.287  11.805  23.697  0.00  0.00    +0.000 HD
ENDBRANCH  12  15
BRANCH  13  17
ATOM     17  O   UNL     1       0.322   9.653  23.915  0.00  0.00    +0.000 OA
ATOM     18  H   UNL     1       0.079  10.482  24.371  0.00  0.00    +0.000 HD
ENDBRANCH  13  17
ENDBRANCH   5   9
BRANCH   8  19
ATOM     19  C   UNL     1       4.420   5.293  17.722  0.00  0.00    +0.000 A 
ATOM     20  C   UNL     1       5.811   5.410  17.897  0.00  0.00    +0.000 A 
ATOM     21  C   UNL     1       6.717   4.760  17.049  0.00  0.00    +0.000 A 
ATOM     22  C   UNL     1       6.254   3.968  16.007  0.00  0.00    +0.000 A 
ATOM     23  C   UNL     1       4.886   3.824  15.816  0.00  0.00    +0.000 A 
ATOM     24  C   UNL     1       3.985   4.481  16.662  0.00  0.00    +0.000 A 
ENDBRANCH   8  19
BRANCH   1  26
ATOM     25  C   UNL     1       0.941   3.016  20.323  0.00  0.00    +0.000 C 
ATOM     26  C   UNL     1       2.208   3.511  21.027  0.00  0.00    +0.000 C 
ATOM     27  C   UNL     1       2.984   2.322  21.580  0.00  0.00    +0.000 C 
ENDBRANCH   1  26
TORSDOF 5
ENDMDL
MODEL 3
REMARK VINA RESULT:      -6.9      3.033      7.567
REMARK  Name = 
REMARK  7 active torsions:
REMARK  status: ('A' for Active; 'I' for Inactive)
REMARK    1  A    between atoms: C_1  and  C_2
REMARK    2  A    between atoms: C_2  and  C_3
REMARK    3  A    between atoms: C_2  and  N_4
REMARK    4  A    between atoms: C_8  and  C_9
REMARK    5  A    between atoms: C_12  and  O_13
REMARK    6  A    between atoms: C_14  and  O_15
REMARK    7  A    between atoms: N_19  and  C_20
REMARK                            x       y       z     vdW  Elec       q    Type
REMARK                         _______ _______ _______ _____ _____    ______ ____
ROOT
ATOM      1  N   UNL     1       2.972   4.870  19.884  0.00  0.00    +0.000 NA
ATOM      2  C   UNL     1       2.824   5.973  19.255  0.00  0.00    +0.000 C 
ATOM      3  S   UNL     1       1.593   7.172  19.592  0.00  0.00    +0.000 S 
ATOM      4  C   UNL     1       2.212   8.258  18.422  0.00  0.00    +0.000 C 
ATOM      5  C   UNL     1       1.798   9.500  18.140  0.00  0.00    +0.000 C 
ATOM      6  C   UNL     1       3.353   7.646  17.692  0.00  0.00    +0.000 C 
ATOM      7  O   UNL     1       3.858   8.214  16.730  0.00  0.00    +0.000 OA
ATOM      8  N   UNL     1       3.655   6.394  18.222  0.00  0.00    +0.000 N 
ENDROOT
BRANCH   5   9
ATOM      9  C   UNL     1       0.729  10.205  18.845  0.00  0.00    +0.000 A 
ATOM     10  C   UNL     1      -0.576  10.231  18.332  0.00  0.00    +0.000 A 
ATOM     11  C   UNL     1      -1.597  10.879  19.033  0.00  0.00    +0.000 A 
ATOM     12  C   UNL     1      -1.301  11.496  20.242  0.00  0.00    +0.000 A 
ATOM     13  C   UNL     1      -0.003  11.479  20.744  0.00  0.00    +0.000 A 
ATOM     14  C   UNL     1       1.017  10.843  20.057  0.00  0.00    +0.000 A 
BRANCH  12  15
ATOM     15  O   UNL     1      -2.258  12.135  20.981  0.00  0.00    +0.000 OA
ATOM     16  H   UNL     1      -1.978  13.059  21.105  0.00  0.00    +0.000 HD
ENDBRANCH  12  15
BRANCH  13  17
ATOM     17  O   UNL     1       0.279  12.090  21.934  0.00  0.00    +0.000 OA
ATOM     18  H   UNL     1       0.067  11.418  22.611  0.00  0.00    +0.000 HD
ENDBRANCH  13  17
ENDBRANCH   5   9
BRANCH   8  19
ATOM     19  C   UNL     1       4.706   5.583  17.657  0.00  0.00    +0.000 A 
ATOM     20  C   UNL     1       6.028   5.668  18.130  0.00  0.00    +0.000 A 
ATOM     21  C   UNL     1       7.064   4.917  17.560  0.00  0.00    +0.000 A 
ATOM     22  C   UNL     1       6.803   4.053  16.506  0.00  0.00    +0.000 A 
ATOM     23  C   UNL     1       5.505   3.938  16.025  0.00  0.00    +0.000 A 
ATOM     24  C   UNL     1       4.474   4.696  16.593  0.00  0.00    +0.000 A 
ENDBRANCH   8  19
BRANCH   1  26
ATOM     25  C   UNL     1       0.825   3.862  20.139  0.00  0.00    +0.000 C 
ATOM     26  C   UNL     1       2.068   4.342  20.896  0.00  0.00    +0.000 C 
ATOM     27  C   UNL     1       2.705   3.167  21.628  0.00  0.00    +0.000 C 
ENDBRANCH   1  26
TORSDOF 5
ENDMDL
MODEL 4
REMARK VINA RESULT:      -6.8      3.131      7.506
REMARK  Name = 
REMARK  7 active torsions:
REMARK  status: ('A' for Active; 'I' for Inactive)
REMARK    1  A    between atoms: C_1  and  C_2
REMARK    2  A    between atoms: C_2  and  C_3
REMARK    3  A    between atoms: C_2  and  N_4
REMARK    4  A    between atoms: C_8  and  C_9
REMARK    5  A    between atoms: C_12  and  O_13
REMARK    6  A    between atoms: C_14  and  O_15
REMARK    7  A    between atoms: N_19  and  C_20
REMARK                            x       y       z     vdW  Elec       q    Type
REMARK                         _______ _______ _______ _____ _____    ______ ____
ROOT
ATOM      1  N   UNL     1       2.782   4.611  19.909  0.00  0.00    +0.000 NA
ATOM      2  C   UNL     1       2.535   5.811  19.541  0.00  0.00    +0.000 C 
ATOM      3  S   UNL     1       1.457   6.917  20.363  0.00  0.00    +0.000 S 
ATOM      4  C   UNL     1       1.833   8.206  19.300  0.00  0.00    +0.000 C 
ATOM      5  C   UNL     1       1.410   9.476  19.350  0.00  0.00    +0.000 C 
ATOM      6  C   UNL     1       2.756   7.747  18.230  0.00  0.00    +0.000 C 
ATOM      7  O   UNL     1       3.050   8.487  17.297  0.00  0.00    +0.000 OA
ATOM      8  N   UNL     1       3.125   6.421  18.439  0.00  0.00    +0.000 N 
ENDROOT
BRANCH   5   9
ATOM      9  C   UNL     1       0.554  10.031  20.398  0.00  0.00    +0.000 A 
ATOM     10  C   UNL     1      -0.450  10.960  20.089  0.00  0.00    +0.000 A 
ATOM     11  C   UNL     1      -1.285  11.457  21.095  0.00  0.00    +0.000 A 
ATOM     12  C   UNL     1      -1.105  11.018  22.401  0.00  0.00    +0.000 A 
ATOM     13  C   UNL     1      -0.101  10.103  22.707  0.00  0.00    +0.000 A 
ATOM     14  C   UNL     1       0.733   9.607  21.720  0.00  0.00    +0.000 A 
BRANCH  12  15
ATOM     15  O   UNL     1      -1.897  11.456  23.426  0.00  0.00    +0.000 OA
ATOM     16  H   UNL     1      -2.444  10.709  23.727  0.00  0.00    +0.000 HD
ENDBRANCH  12  15
BRANCH  13  17
ATOM     17  O   UNL     1       0.068   9.678  23.995  0.00  0.00    +0.000 OA
ATOM     18  H   UNL     1       0.886   9.144  23.971  0.00  0.00    +0.000 HD
ENDBRANCH  13  17
ENDBRANCH   5   9
BRANCH   8  19
ATOM     19  C   UNL     1       3.992   5.736  17.510  0.00  0.00    +0.000 A 
ATOM     20  C   UNL     1       3.747   4.404  17.131  0.00  0.00    +0.000 A 
ATOM     21  C   UNL     1       4.606   3.715  16.264  0.00  0.00    +0.000 A 
ATOM     22  C   UNL     1       5.728   4.347  15.745  0.00  0.00    +0.000 A 
ATOM     23  C   UNL     1       5.988   5.667  16.091  0.00  0.00    +0.000 A 
ATOM     24  C   UNL     1       5.132   6.348  16.964  0.00  0.00    +0.000 A 
ENDBRANCH   8  19
BRANCH   1  26
ATOM     25  C   UNL     1       0.784   3.407  20.403  0.00  0.00    +0.000 C 
ATOM     26  C   UNL     1       2.113   3.898  20.987  0.00  0.00    +0.000 C 
ATOM     27  C   UNL     1       2.944   2.704  21.442  0.00  0.00    +0.000 C 
ENDBRANCH   1  26
TORSDOF 5
ENDMDL
MODEL 5
REMARK VINA RESULT:      -6.8      0.757      1.386
REMARK  Name = 
REMARK  7 active torsions:
REMARK  status: ('A' for Active; 'I' for Inactive)
REMARK    1  A    between atoms: C_1  and  C_2
REMARK    2  A    between atoms: C_2  and  C_3
REMARK    3  A    between atoms: C_2  and  N_4
REMARK    4  A    between atoms: C_8  and  C_9
REMARK    5  A    between atoms: C_12  and  O_13
REMARK    6  A    between atoms: C_14  and  O_15
REMARK    7  A    between atoms: N_19  and  C_20
REMARK                            x       y       z     vdW  Elec       q    Type
REMARK                         _______ _______ _______ _____ _____    ______ ____
ROOT
ATOM      1  N   UNL     1       0.414   9.566  21.245  0.00  0.00    +0.000 NA
ATOM      2  C   UNL     1       1.080   9.094  20.261  0.00  0.00    +0.000 C 
ATOM      3  S   UNL     1       1.893   7.544  20.242  0.00  0.00    +0.000 S 
ATOM      4  C   UNL     1       2.363   7.716  18.605  0.00  0.00    +0.000 C 
ATOM      5  C   UNL     1       3.005   6.834  17.827  0.00  0.00    +0.000 C 
ATOM      6  C   UNL     1       1.952   9.044  18.080  0.00  0.00    +0.000 C 
ATOM      7  O   UNL     1       2.302   9.412  16.963  0.00  0.00    +0.000 OA
ATOM      8  N   UNL     1       1.223   9.742  19.039  0.00  0.00    +0.000 N 
ENDROOT
BRANCH   5   9
ATOM      9  C   UNL     1       3.393   5.485  18.237  0.00  0.00    +0.000 A 
ATOM     10  C   UNL     1       4.568   5.266  18.971  0.00  0.00    +0.000 A 
ATOM     11  C   UNL     1       4.910   3.976  19.387  0.00  0.00    +0.000 A 
ATOM     12  C   UNL     1       4.071   2.916  19.063  0.00  0.00    +0.000 A 
ATOM     13  C   UNL     1       2.911   3.135  18.325  0.00  0.00    +0.000 A 
ATOM     14  C   UNL     1       2.564   4.408  17.905  0.00  0.00    +0.000 A 
BRANCH  12  15
ATOM     15  O   UNL     1       4.343   1.634  19.451  0.00  0.00    +0.000 OA
ATOM     16  H   UNL     1       5.270   1.597  19.744  0.00  0.00    +0.000 HD
ENDBRANCH  12  15
BRANCH  13  17
ATOM     17  O   UNL     1       2.093   2.086  18.009  0.00  0.00    +0.000 OA
ATOM     18  H   UNL     1       1.205   2.486  17.921  0.00  0.00    +0.000 HD
ENDBRANCH  13  17
ENDBRANCH   5   9
BRANCH   8  19
ATOM     19  C   UNL     1       0.741  11.078  18.777  0.00  0.00    +0.000 A 
ATOM     20  C   UNL     1       1.596  12.191  18.860  0.00  0.00    +0.000 A 
ATOM     21  C   UNL     1       1.129  13.496  18.651  0.00  0.00    +0.000 A 
ATOM     22  C   UNL     1      -0.206  13.719  18.343  0.00  0.00    +0.000 A 
ATOM     23  C   UNL     1      -1.071  12.637  18.241  0.00  0.00    +0.000 A 
ATOM     24  C   UNL     1      -0.602  11.337  18.459  0.00  0.00    +0.000 A 
ENDBRANCH   8  19
BRANCH   1  26
ATOM     25  C   UNL     1       1.677   9.242  23.241  0.00  0.00    +0.000 C 
ATOM     26  C   UNL     1       0.325   8.975  22.572  0.00  0.00    +0.000 C 
ATOM     27  C   UNL     1      -0.785   9.633  23.383  0.00  0.00    +0.000 C 
ENDBRANCH   1  26
TORSDOF 5
ENDMDL
MODEL 6
REMARK VINA RESULT:      -6.8      4.648      9.043
REMARK  Name = 
REMARK  7 active torsions:
REMARK  status: ('A' for Active; 'I' for Inactive)
REMARK    1  A    between atoms: C_1  and  C_2
REMARK    2  A    between atoms: C_2  and  C_3
REMARK    3  A    between atoms: C_2  and  N_4
REMARK    4  A    between atoms: C_8  and  C_9
REMARK    5  A    between atoms: C_12  and  O_13
REMARK    6  A    between atoms: C_14  and  O_15
REMARK    7  A    between atoms: N_19  and  C_20
REMARK                            x       y       z     vdW  Elec       q    Type
REMARK                         _______ _______ _______ _____ _____    ______ ____
ROOT
ATOM      1  N   UNL     1      -1.492  10.166  18.196  0.00  0.00    +0.000 NA
ATOM      2  C   UNL     1      -1.138  10.611  19.342  0.00  0.00    +0.000 C 
ATOM      3  S   UNL     1      -2.027  11.783  20.290  0.00  0.00    +0.000 S 
ATOM      4  C   UNL     1      -0.937  11.672  21.606  0.00  0.00    +0.000 C 
ATOM      5  C   UNL     1      -1.011  12.272  22.800  0.00  0.00    +0.000 C 
ATOM      6  C   UNL     1       0.192  10.764  21.273  0.00  0.00    +0.000 C 
ATOM      7  O   UNL     1       1.144  10.643  22.036  0.00  0.00    +0.000 OA
ATOM      8  N   UNL     1       0.003  10.191  20.018  0.00  0.00    +0.000 N 
ENDROOT
BRANCH   5   9
ATOM      9  C   UNL     1      -2.112  13.129  23.238  0.00  0.00    +0.000 A 
ATOM     10  C   UNL     1      -2.063  14.517  23.044  0.00  0.00    +0.000 A 
ATOM     11  C   UNL     1      -3.137  15.322  23.435  0.00  0.00    +0.000 A 
ATOM     12  C   UNL     1      -4.251  14.728  24.017  0.00  0.00    +0.000 A 
ATOM     13  C   UNL     1      -4.293  13.352  24.218  0.00  0.00    +0.000 A 
ATOM     14  C   UNL     1      -3.234  12.545  23.838  0.00  0.00    +0.000 A 
BRANCH  12  15
ATOM     15  O   UNL     1      -5.338  15.460  24.409  0.00  0.00    +0.000 OA
ATOM     16  H   UNL     1      -5.211  16.375  24.106  0.00  0.00    +0.000 HD
ENDBRANCH  12  15
BRANCH  13  17
ATOM     17  O   UNL     1      -5.391  12.777  24.793  0.00  0.00    +0.000 OA
ATOM     18  H   UNL     1      -5.126  11.850  24.956  0.00  0.00    +0.000 HD
ENDBRANCH  13  17
ENDBRANCH   5   9
BRANCH   8  19
ATOM     19  C   UNL     1       0.986   9.296  19.455  0.00  0.00    +0.000 A 
ATOM     20  C   UNL     1       1.571   9.551  18.202  0.00  0.00    +0.000 A 
ATOM     21  C   UNL     1       2.494   8.667  17.626  0.00  0.00    +0.000 A 
ATOM     22  C   UNL     1       2.862   7.508  18.296  0.00  0.00    +0.000 A 
ATOM     23  C   UNL     1       2.310   7.236  19.541  0.00  0.00    +0.000 A 
ATOM     24  C   UNL     1       1.383   8.118  20.108  0.00  0.00    +0.000 A 
ENDBRANCH   8  19
BRANCH   1  26
ATOM     25  C   UNL     1      -2.372  10.151  15.980  0.00  0.00    +0.000 C 
ATOM     26  C   UNL     1      -2.615  10.651  17.407  0.00  0.00    +0.000 C 
ATOM     27  C   UNL     1      -3.929  10.083  17.932  0.00  0.00    +0.000 C 
ENDBRANCH   1  26
TORSDOF 5
ENDMDL
MODEL 7
REMARK VINA RESULT:      -6.8      3.019      7.690
REMARK  Name = 
REMARK  7 active torsions:
REMARK  status: ('A' for Active; 'I' for Inactive)
REMARK    1  A    between atoms: C_1  and  C_2
REMARK    2  A    between atoms: C_2  and  C_3
REMARK    3  A    between atoms: C_2  and  N_4
REMARK    4  A    between atoms: C_8  and  C_9
REMARK    5  A    between atoms: C_12  and  O_13
REMARK    6  A    between atoms: C_14  and  O_15
REMARK    7  A    between atoms: N_19  and  C_20
REMARK                            x       y       z     vdW  Elec       q    Type
REMARK                         _______ _______ _______ _____ _____    ______ ____
ROOT
ATOM      1  N   UNL     1       2.936   4.786  19.842  0.00  0.00    +0.000 NA
ATOM      2  C   UNL     1       2.800   5.907  19.243  0.00  0.00    +0.000 C 
ATOM      3  S   UNL     1       1.566   7.098  19.596  0.00  0.00    +0.000 S 
ATOM      4  C   UNL     1       2.205   8.217  18.468  0.00  0.00    +0.000 C 
ATOM      5  C   UNL     1       1.797   9.468  18.216  0.00  0.00    +0.000 C 
ATOM      6  C   UNL     1       3.356   7.624  17.739  0.00  0.00    +0.000 C 
ATOM      7  O   UNL     1       3.878   8.220  16.802  0.00  0.00    +0.000 OA
ATOM      8  N   UNL     1       3.648   6.357  18.236  0.00  0.00    +0.000 N 
ENDROOT
BRANCH   5   9
ATOM      9  C   UNL     1       0.718  10.154  18.924  0.00  0.00    +0.000 A 
ATOM     10  C   UNL     1       0.930  10.708  20.194  0.00  0.00    +0.000 A 
ATOM     11  C   UNL     1      -0.101  11.393  20.846  0.00  0.00    +0.000 A 
ATOM     12  C   UNL     1      -1.335  11.514  20.219  0.00  0.00    +0.000 A 
ATOM     13  C   UNL     1      -1.546  10.952  18.963  0.00  0.00    +0.000 A 
ATOM     14  C   UNL     1      -0.534  10.270  18.310  0.00  0.00    +0.000 A 
BRANCH  12  15
ATOM     15  O   UNL     1      -2.379  12.181  20.799  0.00  0.00    +0.000 OA
ATOM     16  H   UNL     1      -2.116  12.425  21.704  0.00  0.00    +0.000 HD
ENDBRANCH  12  15
BRANCH  13  17
ATOM     17  O   UNL     1      -2.764  11.075  18.355  0.00  0.00    +0.000 OA
ATOM     18  H   UNL     1      -2.609  10.785  17.434  0.00  0.00    +0.000 HD
ENDBRANCH  13  17
ENDBRANCH   5   9
BRANCH   8  19
ATOM     19  C   UNL     1       4.707   5.561  17.665  0.00  0.00    +0.000 A 
ATOM     20  C   UNL     1       6.017   5.615  18.174  0.00  0.00    +0.000 A 
ATOM     21  C   UNL     1       7.062   4.879  17.599  0.00  0.00    +0.000 A 
ATOM     22  C   UNL     1       6.820   4.061  16.504  0.00  0.00    +0.000 A 
ATOM     23  C   UNL     1       5.534   3.977  15.987  0.00  0.00    +0.000 A 
ATOM     24  C   UNL     1       4.495   4.720  16.559  0.00  0.00    +0.000 A 
ENDBRANCH   8  19
BRANCH   1  26
ATOM     25  C   UNL     1       0.838   3.666  20.021  0.00  0.00    +0.000 C 
ATOM     26  C   UNL     1       2.015   4.229  20.823  0.00  0.00    +0.000 C 
ATOM     27  C   UNL     1       2.680   3.108  21.612  0.00  0.00    +0.000 C 
ENDBRANCH   1  26
TORSDOF 5
ENDMDL
MODEL 8
REMARK VINA RESULT:      -6.7      3.085      7.703
REMARK  Name = 
REMARK  7 active torsions:
REMARK  status: ('A' for Active; 'I' for Inactive)
REMARK    1  A    between atoms: C_1  and  C_2
REMARK    2  A    between atoms: C_2  and  C_3
REMARK    3  A    between atoms: C_2  and  N_4
REMARK    4  A    between atoms: C_8  and  C_9
REMARK    5  A    between atoms: C_12  and  O_13
REMARK    6  A    between atoms: C_14  and  O_15
REMARK    7  A    between atoms: N_19  and  C_20
REMARK                            x       y       z     vdW  Elec       q    Type
REMARK                         _______ _______ _______ _____ _____    ______ ____
ROOT
ATOM      1  N   UNL     1       2.983   4.197  20.143  0.00  0.00    +0.000 NA
ATOM      2  C   UNL     1       2.768   5.406  19.785  0.00  0.00    +0.000 C 
ATOM      3  S   UNL     1       1.631   6.498  20.546  0.00  0.00    +0.000 S 
ATOM      4  C   UNL     1       2.091   7.809  19.545  0.00  0.00    +0.000 C 
ATOM      5  C   UNL     1       1.669   9.079  19.591  0.00  0.00    +0.000 C 
ATOM      6  C   UNL     1       3.094   7.371  18.540  0.00  0.00    +0.000 C 
ATOM      7  O   UNL     1       3.462   8.131  17.650  0.00  0.00    +0.000 OA
ATOM      8  N   UNL     1       3.443   6.039  18.747  0.00  0.00    +0.000 N 
ENDROOT
BRANCH   5   9
ATOM      9  C   UNL     1       0.734   9.613  20.581  0.00  0.00    +0.000 A 
ATOM     10  C   UNL     1       0.763   9.168  21.910  0.00  0.00    +0.000 A 
ATOM     11  C   UNL     1      -0.112   9.712  22.856  0.00  0.00    +0.000 A 
ATOM     12  C   UNL     1      -1.009  10.697  22.459  0.00  0.00    +0.000 A 
ATOM     13  C   UNL     1      -1.043  11.129  21.137  0.00  0.00    +0.000 A 
ATOM     14  C   UNL     1      -0.183  10.595  20.192  0.00  0.00    +0.000 A 
BRANCH  12  15
ATOM     15  O   UNL     1      -1.881  11.277  23.338  0.00  0.00    +0.000 OA
ATOM     16  H   UNL     1      -1.814  12.242  23.238  0.00  0.00    +0.000 HD
ENDBRANCH  12  15
BRANCH  13  17
ATOM     17  O   UNL     1      -1.929  12.097  20.755  0.00  0.00    +0.000 OA
ATOM     18  H   UNL     1      -1.591  12.916  21.168  0.00  0.00    +0.000 HD
ENDBRANCH  13  17
ENDBRANCH   5   9
BRANCH   8  19
ATOM     19  C   UNL     1       4.379   5.372  17.873  0.00  0.00    +0.000 A 
ATOM     20  C   UNL     1       5.767   5.504  18.053  0.00  0.00    +0.000 A 
ATOM     21  C   UNL     1       6.684   4.896  17.185  0.00  0.00    +0.000 A 
ATOM     22  C   UNL     1       6.233   4.131  16.118  0.00  0.00    +0.000 A 
ATOM     23  C   UNL     1       4.868   3.972  15.923  0.00  0.00    +0.000 A 
ATOM     24  C   UNL     1       3.956   4.587  16.788  0.00  0.00    +0.000 A 
ENDBRANCH   8  19
BRANCH   1  26
ATOM     25  C   UNL     1       0.929   3.030  20.466  0.00  0.00    +0.000 C 
ATOM     26  C   UNL     1       2.230   3.463  21.149  0.00  0.00    +0.000 C 
ATOM     27  C   UNL     1       3.001   2.230  21.608  0.00  0.00    +0.000 C 
ENDBRANCH   1  26
TORSDOF 5
ENDMDL
MODEL 9
REMARK VINA RESULT:      -6.7      0.646      1.682
REMARK  Name = 
REMARK  7 active torsions:
REMARK  status: ('A' for Active; 'I' for Inactive)
REMARK    1  A    between atoms: C_1  and  C_2
REMARK    2  A    between atoms: C_2  and  C_3
REMARK    3  A    between atoms: C_2  and  N_4
REMARK    4  A    between atoms: C_8  and  C_9
REMARK    5  A    between atoms: C_12  and  O_13
REMARK    6  A    between atoms: C_14  and  O_15
REMARK    7  A    between atoms: N_19  and  C_20
REMARK                            x       y       z     vdW  Elec       q    Type
REMARK                         _______ _______ _______ _____ _____    ______ ____
ROOT
ATOM      1  N   UNL     1       0.215   9.984  21.285  0.00  0.00    +0.000 NA
ATOM      2  C   UNL     1       0.912   9.510  20.323  0.00  0.00    +0.000 C 
ATOM      3  S   UNL     1       1.575   7.891  20.258  0.00  0.00    +0.000 S 
ATOM      4  C   UNL     1       2.192   8.117  18.677  0.00  0.00    +0.000 C 
ATOM      5  C   UNL     1       2.810   7.226  17.891  0.00  0.00    +0.000 C 
ATOM      6  C   UNL     1       1.951   9.509  18.216  0.00  0.00    +0.000 C 
ATOM      7  O   UNL     1       2.424   9.909  17.157  0.00  0.00    +0.000 OA
ATOM      8  N   UNL     1       1.215  10.216  19.164  0.00  0.00    +0.000 N 
ENDROOT
BRANCH   5   9
ATOM      9  C   UNL     1       3.035   5.823  18.234  0.00  0.00    +0.000 A 
ATOM     10  C   UNL     1       4.216   5.419  18.873  0.00  0.00    +0.000 A 
ATOM     11  C   UNL     1       4.404   4.080  19.227  0.00  0.00    +0.000 A 
ATOM     12  C   UNL     1       3.406   3.157  18.937  0.00  0.00    +0.000 A 
ATOM     13  C   UNL     1       2.239   3.558  18.293  0.00  0.00    +0.000 A 
ATOM     14  C   UNL     1       2.044   4.881  17.935  0.00  0.00    +0.000 A 
BRANCH  12  15
ATOM     15  O   UNL     1       3.525   1.835  19.269  0.00  0.00    +0.000 OA
ATOM     16  H   UNL     1       4.355   1.501  18.888  0.00  0.00    +0.000 HD
ENDBRANCH  12  15
BRANCH  13  17
ATOM     17  O   UNL     1       1.264   2.643  18.011  0.00  0.00    +0.000 OA
ATOM     18  H   UNL     1       1.516   2.277  17.141  0.00  0.00    +0.000 HD
ENDBRANCH  13  17
ENDBRANCH   5   9
BRANCH   8  19
ATOM     19  C   UNL     1       0.883  11.606  18.960  0.00  0.00    +0.000 A 
ATOM     20  C   UNL     1      -0.388  11.992  18.500  0.00  0.00    +0.000 A 
ATOM     21  C   UNL     1      -0.707  13.335  18.257  0.00  0.00    +0.000 A 
ATOM     22  C   UNL     1       0.237  14.328  18.480  0.00  0.00    +0.000 A 
ATOM     23  C   UNL     1       1.497  13.978  18.947  0.00  0.00    +0.000 A 
ATOM     24  C   UNL     1       1.814  12.635  19.180  0.00  0.00    +0.000 A 
ENDBRANCH   8  19
BRANCH   1  26
ATOM     25  C   UNL     1       1.314   9.278  23.281  0.00  0.00    +0.000 C 
ATOM     26  C   UNL     1      -0.036   9.324  22.558  0.00  0.00    +0.000 C 
ATOM     27  C   UNL     1      -1.035  10.119  23.390  0.00  0.00    +0.000 C 
ENDBRANCH   1  26
TORSDOF 5
ENDMDL
