MODEL 1
REMARK VINA RESULT:      -6.0      0.000      0.000
REMARK  Name = 
REMARK  8 active torsions:
REMARK  status: ('A' for Active; 'I' for Inactive)
REMARK    1  A    between atoms: C_1  and  N_2
REMARK    2  A    between atoms: N_2  and  C_3
REMARK    3  A    between atoms: N_2  and  C_4
REMARK    4  A    between atoms: C_4  and  C_5
REMARK    5  A    between atoms: C_11  and  C_12
REMARK    6  A    between atoms: C_12  and  C_13
REMARK    7  A    between atoms: C_12  and  C_14
REMARK    8  A    between atoms: C_12  and  O_15
REMARK                            x       y       z     vdW  Elec       q    Type
REMARK                         _______ _______ _______ _____ _____    ______ ____
ROOT
ATOM      1  C   UNL     1       5.010   4.288  19.366  0.00  0.00    +0.000 C 
ATOM      2  O   UNL     1       5.366   3.119  19.543  0.00  0.00    +0.000 OA
ATOM      3  N   UNL     1       3.668   4.640  19.341  0.00  0.00    +0.000 N 
ATOM      4  C   UNL     1       3.151   6.000  19.333  0.00  0.00    +0.000 C 
ATOM      5  C   UNL     1       2.067   5.983  20.389  0.00  0.00    +0.000 C 
ATOM      6  C   UNL     1       1.481   4.584  20.279  0.00  0.00    +0.000 C 
ATOM      7  C   UNL     1       2.631   3.680  19.772  0.00  0.00    +0.000 C 
ENDROOT
BRANCH   7   8
ATOM      8  C   UNL     1       2.142   2.693  18.655  0.00  0.00    +0.000 C 
ATOM      9  C   UNL     1       0.669   2.290  18.773  0.00  0.00    +0.000 C 
ATOM     10  C   UNL     1       2.351   3.291  17.253  0.00  0.00    +0.000 C 
BRANCH   8  11
ATOM     11  O   UNL     1       2.918   1.485  18.721  0.00  0.00    +0.000 OA
ATOM     12  H   UNL     1       3.785   1.747  19.080  0.00  0.00    +0.000 HD
ENDBRANCH   8  11
ENDBRANCH   7   8
BRANCH   1  13
ATOM     13  C   UNL     1       6.070   5.391  19.215  0.00  0.00    +0.000 C 
BRANCH  13  15
ATOM     14  C   UNL     1       6.941   6.924  17.539  0.00  0.00    +0.000 C 
ATOM     15  N   UNL     1       6.454   5.559  17.792  0.00  0.00    +0.000 NA
ATOM     16  C   UNL     1       7.505   4.602  17.437  0.00  0.00    +0.000 C 
ENDBRANCH  13  15
ENDBRANCH   1  13
TORSDOF 4
ENDMDL
MODEL 2
REMARK VINA RESULT:      -5.8      1.329      1.495
REMARK  Name = 
REMARK  8 active torsions:
REMARK  status: ('A' for Active; 'I' for Inactive)
REMARK    1  A    between atoms: C_1  and  N_2
REMARK    2  A    between atoms: N_2  and  C_3
REMARK    3  A    between atoms: N_2  and  C_4
REMARK    4  A    between atoms: C_4  and  C_5
REMARK    5  A    between atoms: C_11  and  C_12
REMARK    6  A    between atoms: C_12  and  C_13
REMARK    7  A    between atoms: C_12  and  C_14
REMARK    8  A    between atoms: C_12  and  O_15
REMARK                            x       y       z     vdW  Elec       q    Type
REMARK                         _______ _______ _______ _____ _____    ______ ____
ROOT
ATOM      1  C   UNL     1       5.001   4.889  18.815  0.00  0.00    +0.000 C 
ATOM      2  O   UNL     1       5.525   3.954  19.429  0.00  0.00    +0.000 OA
ATOM      3  N   UNL     1       3.681   5.251  19.037  0.00  0.00    +0.000 N 
ATOM      4  C   UNL     1       3.031   6.443  18.515  0.00  0.00    +0.000 C 
ATOM      5  C   UNL     1       2.314   7.023  19.715  0.00  0.00    +0.000 C 
ATOM      6  C   UNL     1       1.887   5.794  20.504  0.00  0.00    +0.000 C 
ATOM      7  C   UNL     1       2.933   4.698  20.186  0.00  0.00    +0.000 C 
ENDROOT
BRANCH   7   8
ATOM      8  C   UNL     1       2.254   3.309  19.923  0.00  0.00    +0.000 C 
ATOM      9  C   UNL     1       1.199   2.918  20.963  0.00  0.00    +0.000 C 
ATOM     10  C   UNL     1       1.582   3.270  18.540  0.00  0.00    +0.000 C 
BRANCH   8  11
ATOM     11  O   UNL     1       3.261   2.283  19.935  0.00  0.00    +0.000 OA
ATOM     12  H   UNL     1       4.087   2.720  19.660  0.00  0.00    +0.000 HD
ENDBRANCH   8  11
ENDBRANCH   7   8
BRANCH   1  13
ATOM     13  C   UNL     1       5.837   5.704  17.815  0.00  0.00    +0.000 C 
BRANCH  13  15
ATOM     14  C   UNL     1       5.308   6.101  15.474  0.00  0.00    +0.000 C 
ATOM     15  N   UNL     1       5.763   5.108  16.458  0.00  0.00    +0.000 NA
ATOM     16  C   UNL     1       7.078   4.603  16.058  0.00  0.00    +0.000 C 
ENDBRANCH  13  15
ENDBRANCH   1  13
TORSDOF 4
ENDMDL
MODEL 3
REMARK VINA RESULT:      -5.7      2.120      4.734
REMARK  Name = 
REMARK  8 active torsions:
REMARK  status: ('A' for Active; 'I' for Inactive)
REMARK    1  A    between atoms: C_1  and  N_2
REMARK    2  A    between atoms: N_2  and  C_3
REMARK    3  A    between atoms: N_2  and  C_4
REMARK    4  A    between atoms: C_4  and  C_5
REMARK    5  A    between atoms: C_11  and  C_12
REMARK    6  A    between atoms: C_12  and  C_13
REMARK    7  A    between atoms: C_12  and  C_14
REMARK    8  A    between atoms: C_12  and  O_15
REMARK                            x       y       z     vdW  Elec       q    Type
REMARK                         _______ _______ _______ _____ _____    ______ ____
ROOT
ATOM      1  C   UNL     1       3.960   3.163  18.563  0.00  0.00    +0.000 C 
ATOM      2  O   UNL     1       3.838   2.246  17.745  0.00  0.00    +0.000 OA
ATOM      3  N   UNL     1       4.469   4.400  18.194  0.00  0.00    +0.000 N 
ATOM      4  C   UNL     1       4.475   5.594  19.025  0.00  0.00    +0.000 C 
ATOM      5  C   UNL     1       3.961   6.681  18.105  0.00  0.00    +0.000 C 
ATOM      6  C   UNL     1       4.512   6.287  16.744  0.00  0.00    +0.000 C 
ATOM      7  C   UNL     1       4.646   4.744  16.768  0.00  0.00    +0.000 C 
ENDROOT
BRANCH   7   8
ATOM      8  C   UNL     1       6.003   4.271  16.139  0.00  0.00    +0.000 C 
ATOM      9  C   UNL     1       6.356   4.956  14.816  0.00  0.00    +0.000 C 
ATOM     10  C   UNL     1       7.176   4.498  17.110  0.00  0.00    +0.000 C 
BRANCH   8  11
ATOM     11  O   UNL     1       5.935   2.859  15.880  0.00  0.00    +0.000 OA
ATOM     12  H   UNL     1       5.587   2.456  16.697  0.00  0.00    +0.000 HD
ENDBRANCH   8  11
ENDBRANCH   7   8
BRANCH   1  13
ATOM     13  C   UNL     1       3.499   2.952  20.014  0.00  0.00    +0.000 C 
BRANCH  13  15
ATOM     14  C   UNL     1       1.579   2.589  21.462  0.00  0.00    +0.000 C 
ATOM     15  N   UNL     1       2.040   2.688  20.069  0.00  0.00    +0.000 NA
ATOM     16  C   UNL     1       1.308   3.764  19.397  0.00  0.00    +0.000 C 
ENDBRANCH  13  15
ENDBRANCH   1  13
TORSDOF 4
ENDMDL
MODEL 4
REMARK VINA RESULT:      -5.7      1.728      4.899
REMARK  Name = 
REMARK  8 active torsions:
REMARK  status: ('A' for Active; 'I' for Inactive)
REMARK    1  A    between atoms: C_1  and  N_2
REMARK    2  A    between atoms: N_2  and  C_3
REMARK    3  A    between atoms: N_2  and  C_4
REMARK    4  A    between atoms: C_4  and  C_5
REMARK    5  A    between atoms: C_11  and  C_12
REMARK    6  A    between atoms: C_12  and  C_13
REMARK    7  A    between atoms: C_12  and  C_14
REMARK    8  A    between atoms: C_12  and  O_15
REMARK                            x       y       z     vdW  Elec       q    Type
REMARK                         _______ _______ _______ _____ _____    ______ ____
ROOT
ATOM      1  C   UNL     1       3.879   3.543  18.336  0.00  0.00    +0.000 C 
ATOM      2  O   UNL     1       4.205   2.672  17.523  0.00  0.00    +0.000 OA
ATOM      3  N   UNL     1       4.291   4.859  18.192  0.00  0.00    +0.000 N 
ATOM      4  C   UNL     1       3.812   5.986  18.976  0.00  0.00    +0.000 C 
ATOM      5  C   UNL     1       3.509   7.048  17.940  0.00  0.00    +0.000 C 
ATOM      6  C   UNL     1       4.572   6.823  16.876  0.00  0.00    +0.000 C 
ATOM      7  C   UNL     1       4.922   5.316  16.935  0.00  0.00    +0.000 C 
ENDROOT
BRANCH   7   8
ATOM      8  C   UNL     1       6.470   5.077  16.850  0.00  0.00    +0.000 C 
ATOM      9  C   UNL     1       6.950   4.543  15.497  0.00  0.00    +0.000 C 
ATOM     10  C   UNL     1       7.250   6.370  17.145  0.00  0.00    +0.000 C 
BRANCH   8  11
ATOM     11  O   UNL     1       6.853   4.114  17.845  0.00  0.00    +0.000 OA
ATOM     12  H   UNL     1       7.816   4.001  17.747  0.00  0.00    +0.000 HD
ENDBRANCH   8  11
ENDBRANCH   7   8
BRANCH   1  13
ATOM     13  C   UNL     1       2.959   3.177  19.512  0.00  0.00    +0.000 C 
BRANCH  13  15
ATOM     14  C   UNL     1       0.827   2.281  18.757  0.00  0.00    +0.000 C 
ATOM     15  N   UNL     1       1.544   3.490  19.189  0.00  0.00    +0.000 NA
ATOM     16  C   UNL     1       0.873   4.052  20.363  0.00  0.00    +0.000 C 
ENDBRANCH  13  15
ENDBRANCH   1  13
TORSDOF 4
ENDMDL
MODEL 5
REMARK VINA RESULT:      -5.7      1.218      1.596
REMARK  Name = 
REMARK  8 active torsions:
REMARK  status: ('A' for Active; 'I' for Inactive)
REMARK    1  A    between atoms: C_1  and  N_2
REMARK    2  A    between atoms: N_2  and  C_3
REMARK    3  A    between atoms: N_2  and  C_4
REMARK    4  A    between atoms: C_4  and  C_5
REMARK    5  A    between atoms: C_11  and  C_12
REMARK    6  A    between atoms: C_12  and  C_13
REMARK    7  A    between atoms: C_12  and  C_14
REMARK    8  A    between atoms: C_12  and  O_15
REMARK                            x       y       z     vdW  Elec       q    Type
REMARK                         _______ _______ _______ _____ _____    ______ ____
ROOT
ATOM      1  C   UNL     1       4.862   4.231  18.934  0.00  0.00    +0.000 C 
ATOM      2  O   UNL     1       5.298   3.334  19.662  0.00  0.00    +0.000 OA
ATOM      3  N   UNL     1       3.590   4.753  19.112  0.00  0.00    +0.000 N 
ATOM      4  C   UNL     1       3.057   5.929  18.442  0.00  0.00    +0.000 C 
ATOM      5  C   UNL     1       2.424   6.731  19.559  0.00  0.00    +0.000 C 
ATOM      6  C   UNL     1       1.887   5.666  20.503  0.00  0.00    +0.000 C 
ATOM      7  C   UNL     1       2.809   4.435  20.326  0.00  0.00    +0.000 C 
ENDROOT
BRANCH   7   8
ATOM      8  C   UNL     1       1.987   3.101  20.250  0.00  0.00    +0.000 C 
ATOM      9  C   UNL     1       1.545   2.556  21.611  0.00  0.00    +0.000 C 
ATOM     10  C   UNL     1       0.726   3.273  19.384  0.00  0.00    +0.000 C 
BRANCH   8  11
ATOM     11  O   UNL     1       2.793   2.086  19.629  0.00  0.00    +0.000 OA
ATOM     12  H   UNL     1       3.442   2.562  19.081  0.00  0.00    +0.000 HD
ENDBRANCH   8  11
ENDBRANCH   7   8
BRANCH   1  13
ATOM     13  C   UNL     1       5.759   4.818  17.833  0.00  0.00    +0.000 C 
BRANCH  13  15
ATOM     14  C   UNL     1       7.804   5.652  18.853  0.00  0.00    +0.000 C 
ATOM     15  N   UNL     1       6.480   6.018  18.327  0.00  0.00    +0.000 NA
ATOM     16  C   UNL     1       6.648   6.987  17.242  0.00  0.00    +0.000 C 
ENDBRANCH  13  15
ENDBRANCH   1  13
TORSDOF 4
ENDMDL
MODEL 6
REMARK VINA RESULT:      -5.6      1.867      5.385
REMARK  Name = 
REMARK  8 active torsions:
REMARK  status: ('A' for Active; 'I' for Inactive)
REMARK    1  A    between atoms: C_1  and  N_2
REMARK    2  A    between atoms: N_2  and  C_3
REMARK    3  A    between atoms: N_2  and  C_4
REMARK    4  A    between atoms: C_4  and  C_5
REMARK    5  A    between atoms: C_11  and  C_12
REMARK    6  A    between atoms: C_12  and  C_13
REMARK    7  A    between atoms: C_12  and  C_14
REMARK    8  A    between atoms: C_12  and  O_15
REMARK                            x       y       z     vdW  Elec       q    Type
REMARK                         _______ _______ _______ _____ _____    ______ ____
ROOT
ATOM      1  C   UNL     1       4.570   3.354  18.299  0.00  0.00    +0.000 C 
ATOM      2  O   UNL     1       5.056   3.184  19.421  0.00  0.00    +0.000 OA
ATOM      3  N   UNL     1       5.229   4.094  17.329  0.00  0.00    +0.000 N 
ATOM      4  C   UNL     1       4.840   4.194  15.930  0.00  0.00    +0.000 C 
ATOM      5  C   UNL     1       6.134   3.975  15.176  0.00  0.00    +0.000 C 
ATOM      6  C   UNL     1       7.183   4.614  16.073  0.00  0.00    +0.000 C 
ATOM      7  C   UNL     1       6.639   4.494  17.518  0.00  0.00    +0.000 C 
ENDROOT
BRANCH   7   8
ATOM      8  C   UNL     1       6.846   5.822  18.326  0.00  0.00    +0.000 C 
ATOM      9  C   UNL     1       7.868   5.716  19.461  0.00  0.00    +0.000 C 
ATOM     10  C   UNL     1       7.290   6.972  17.404  0.00  0.00    +0.000 C 
BRANCH   8  11
ATOM     11  O   UNL     1       5.595   6.212  18.918  0.00  0.00    +0.000 OA
ATOM     12  H   UNL     1       5.537   5.723  19.760  0.00  0.00    +0.000 HD
ENDBRANCH   8  11
ENDBRANCH   7   8
BRANCH   1  13
ATOM     13  C   UNL     1       3.227   2.695  17.945  0.00  0.00    +0.000 C 
BRANCH  13  15
ATOM     14  C   UNL     1       1.572   4.466  17.746  0.00  0.00    +0.000 C 
ATOM     15  N   UNL     1       2.104   3.401  18.609  0.00  0.00    +0.000 NA
ATOM     16  C   UNL     1       1.029   2.456  18.922  0.00  0.00    +0.000 C 
ENDBRANCH  13  15
ENDBRANCH   1  13
TORSDOF 4
ENDMDL
MODEL 7
REMARK VINA RESULT:      -5.6      0.787      1.132
REMARK  Name = 
REMARK  8 active torsions:
REMARK  status: ('A' for Active; 'I' for Inactive)
REMARK    1  A    between atoms: C_1  and  N_2
REMARK    2  A    between atoms: N_2  and  C_3
REMARK    3  A    between atoms: N_2  and  C_4
REMARK    4  A    between atoms: C_4  and  C_5
REMARK    5  A    between atoms: C_11  and  C_12
REMARK    6  A    between atoms: C_12  and  C_13
REMARK    7  A    between atoms: C_12  and  C_14
REMARK    8  A    between atoms: C_12  and  O_15
REMARK                            x       y       z     vdW  Elec       q    Type
REMARK                         _______ _______ _______ _____ _____    ______ ____
ROOT
ATOM      1  C   UNL     1       5.037   4.415  19.257  0.00  0.00    +0.000 C 
ATOM      2  O   UNL     1       5.388   3.245  19.440  0.00  0.00    +0.000 OA
ATOM      3  N   UNL     1       3.697   4.772  19.221  0.00  0.00    +0.000 N 
ATOM      4  C   UNL     1       3.185   6.133  19.205  0.00  0.00    +0.000 C 
ATOM      5  C   UNL     1       2.092   6.124  20.252  0.00  0.00    +0.000 C 
ATOM      6  C   UNL     1       1.502   4.727  20.141  0.00  0.00    +0.000 C 
ATOM      7  C   UNL     1       2.653   3.816  19.646  0.00  0.00    +0.000 C 
ENDROOT
BRANCH   7   8
ATOM      8  C   UNL     1       2.169   2.828  18.528  0.00  0.00    +0.000 C 
ATOM      9  C   UNL     1       3.033   1.572  18.381  0.00  0.00    +0.000 C 
ATOM     10  C   UNL     1       0.721   2.371  18.778  0.00  0.00    +0.000 C 
BRANCH   8  11
ATOM     11  O   UNL     1       2.188   3.506  17.261  0.00  0.00    +0.000 OA
ATOM     12  H   UNL     1       1.492   3.084  16.725  0.00  0.00    +0.000 HD
ENDBRANCH   8  11
ENDBRANCH   7   8
BRANCH   1  13
ATOM     13  C   UNL     1       6.103   5.513  19.112  0.00  0.00    +0.000 C 
BRANCH  13  15
ATOM     14  C   UNL     1       7.099   7.010  17.474  0.00  0.00    +0.000 C 
ATOM     15  N   UNL     1       6.480   5.693  17.688  0.00  0.00    +0.000 NA
ATOM     16  C   UNL     1       7.423   4.649  17.281  0.00  0.00    +0.000 C 
ENDBRANCH  13  15
ENDBRANCH   1  13
TORSDOF 4
ENDMDL
MODEL 8
REMARK VINA RESULT:      -5.6      1.155      1.548
REMARK  Name = 
REMARK  8 active torsions:
REMARK  status: ('A' for Active; 'I' for Inactive)
REMARK    1  A    between atoms: C_1  and  N_2
REMARK    2  A    between atoms: N_2  and  C_3
REMARK    3  A    between atoms: N_2  and  C_4
REMARK    4  A    between atoms: C_4  and  C_5
REMARK    5  A    between atoms: C_11  and  C_12
REMARK    6  A    between atoms: C_12  and  C_13
REMARK    7  A    between atoms: C_12  and  C_14
REMARK    8  A    between atoms: C_12  and  O_15
REMARK                            x       y       z     vdW  Elec       q    Type
REMARK                         _______ _______ _______ _____ _____    ______ ____
ROOT
ATOM      1  C   UNL     1       4.755   5.159  18.738  0.00  0.00    +0.000 C 
ATOM      2  O   UNL     1       5.417   4.249  19.247  0.00  0.00    +0.000 OA
ATOM      3  N   UNL     1       3.439   5.391  19.107  0.00  0.00    +0.000 N 
ATOM      4  C   UNL     1       2.641   6.543  18.716  0.00  0.00    +0.000 C 
ATOM      5  C   UNL     1       2.005   7.002  20.011  0.00  0.00    +0.000 C 
ATOM      6  C   UNL     1       1.765   5.707  20.771  0.00  0.00    +0.000 C 
ATOM      7  C   UNL     1       2.862   4.724  20.293  0.00  0.00    +0.000 C 
ENDROOT
BRANCH   7   8
ATOM      8  C   UNL     1       2.279   3.292  20.026  0.00  0.00    +0.000 C 
ATOM      9  C   UNL     1       1.275   2.815  21.079  0.00  0.00    +0.000 C 
ATOM     10  C   UNL     1       1.586   3.221  18.654  0.00  0.00    +0.000 C 
BRANCH   8  11
ATOM     11  O   UNL     1       3.357   2.341  20.007  0.00  0.00    +0.000 OA
ATOM     12  H   UNL     1       2.988   1.515  20.370  0.00  0.00    +0.000 HD
ENDBRANCH   8  11
ENDBRANCH   7   8
BRANCH   1  13
ATOM     13  C   UNL     1       5.412   6.090  17.705  0.00  0.00    +0.000 C 
BRANCH  13  15
ATOM     14  C   UNL     1       7.146   5.140  16.288  0.00  0.00    +0.000 C 
ATOM     15  N   UNL     1       6.860   5.792  17.575  0.00  0.00    +0.000 NA
ATOM     16  C   UNL     1       7.638   7.029  17.669  0.00  0.00    +0.000 C 
ENDBRANCH  13  15
ENDBRANCH   1  13
TORSDOF 4
ENDMDL
MODEL 9
REMARK VINA RESULT:      -5.6      1.744      4.653
REMARK  Name = 
REMARK  8 active torsions:
REMARK  status: ('A' for Active; 'I' for Inactive)
REMARK    1  A    between atoms: C_1  and  N_2
REMARK    2  A    between atoms: N_2  and  C_3
REMARK    3  A    between atoms: N_2  and  C_4
REMARK    4  A    between atoms: C_4  and  C_5
REMARK    5  A    between atoms: C_11  and  C_12
REMARK    6  A    between atoms: C_12  and  C_13
REMARK    7  A    between atoms: C_12  and  C_14
REMARK    8  A    between atoms: C_12  and  O_15
REMARK                            x       y       z     vdW  Elec       q    Type
REMARK                         _______ _______ _______ _____ _____    ______ ____
ROOT
ATOM      1  C   UNL     1       3.493   3.590  18.222  0.00  0.00    +0.000 C 
ATOM      2  O   UNL     1       3.929   2.735  17.446  0.00  0.00    +0.000 OA
ATOM      3  N   UNL     1       3.971   4.892  18.208  0.00  0.00    +0.000 N 
ATOM      4  C   UNL     1       3.399   6.012  18.939  0.00  0.00    +0.000 C 
ATOM      5  C   UNL     1       3.326   7.120  17.910  0.00  0.00    +0.000 C 
ATOM      6  C   UNL     1       4.555   6.886  17.044  0.00  0.00    +0.000 C 
ATOM      7  C   UNL     1       4.834   5.364  17.104  0.00  0.00    +0.000 C 
ENDROOT
BRANCH   7   8
ATOM      8  C   UNL     1       6.362   5.062  17.287  0.00  0.00    +0.000 C 
ATOM      9  C   UNL     1       7.038   4.463  16.049  0.00  0.00    +0.000 C 
ATOM     10  C   UNL     1       7.138   6.334  17.672  0.00  0.00    +0.000 C 
BRANCH   8  11
ATOM     11  O   UNL     1       6.531   4.120  18.359  0.00  0.00    +0.000 OA
ATOM     12  H   UNL     1       7.472   3.865  18.341  0.00  0.00    +0.000 HD
ENDBRANCH   8  11
ENDBRANCH   7   8
BRANCH   1  13
ATOM     13  C   UNL     1       2.364   3.225  19.199  0.00  0.00    +0.000 C 
BRANCH  13  15
ATOM     14  C   UNL     1       1.809   2.752  21.519  0.00  0.00    +0.000 C 
ATOM     15  N   UNL     1       2.870   3.175  20.593  0.00  0.00    +0.000 NA
ATOM     16  C   UNL     1       3.990   2.237  20.688  0.00  0.00    +0.000 C 
ENDBRANCH  13  15
ENDBRANCH   1  13
TORSDOF 4
ENDMDL
