MODEL 1
REMARK VINA RESULT:      -8.4      0.000      0.000
REMARK  Name = 
REMARK  9 active torsions:
REMARK  status: ('A' for Active; 'I' for Inactive)
REMARK    1  A    between atoms: C_1  and  C_2
REMARK    2  A    between atoms: C_2  and  O_3
REMARK    3  A    between atoms: O_3  and  C_4
REMARK    4  A    between atoms: C_4  and  C_6
REMARK    5  A    between atoms: C_6  and  C_7
REMARK    6  A    between atoms: C_7  and  N_8
REMARK    7  A    between atoms: C_14  and  O_15
REMARK    8  A    between atoms: C_20  and  O_21
REMARK    9  A    between atoms: O_21  and  C_22
REMARK                            x       y       z     vdW  Elec       q    Type
REMARK                         _______ _______ _______ _____ _____    ______ ____
ROOT
ATOM      1  N   UNL     1       6.075   6.004  17.326  0.00  0.00    +0.000 NA
ATOM      2  C   UNL     1       6.023   4.904  18.321  0.00  0.00    +0.000 C 
ATOM      3  C   UNL     1       5.082   5.080  19.543  0.00  0.00    +0.000 C 
ATOM      4  C   UNL     1       3.597   4.886  19.154  0.00  0.00    +0.000 C 
ATOM      5  C   UNL     1       3.464   3.650  18.277  0.00  0.00    +0.000 C 
ATOM      6  C   UNL     1       3.500   2.505  18.996  0.00  0.00    +0.000 C 
ATOM      7  C   UNL     1       2.181   2.207  19.654  0.00  0.00    +0.000 C 
ATOM      8  C   UNL     1       1.503   3.553  20.042  0.00  0.00    +0.000 C 
ATOM      9  C   UNL     1       2.539   4.717  20.319  0.00  0.00    +0.000 C 
ATOM     10  O   UNL     1       1.801   5.957  20.498  0.00  0.00    +0.000 OA
ATOM     11  C   UNL     1       2.207   6.787  19.475  0.00  0.00    +0.000 A 
ATOM     12  C   UNL     1       1.832   8.128  19.359  0.00  0.00    +0.000 A 
ATOM     13  C   UNL     1       2.430   8.882  18.335  0.00  0.00    +0.000 A 
ATOM     14  C   UNL     1       3.368   8.295  17.484  0.00  0.00    +0.000 A 
ATOM     15  C   UNL     1       3.737   6.950  17.616  0.00  0.00    +0.000 A 
ATOM     16  C   UNL     1       3.142   6.209  18.629  0.00  0.00    +0.000 A 
ATOM     17  C   UNL     1       4.771   6.341  16.714  0.00  0.00    +0.000 C 
ENDROOT
BRANCH   7  18
ATOM     18  O   UNL     1       1.415   1.453  18.725  0.00  0.00    +0.000 OA
ATOM     19  H   UNL     1       2.040   0.934  18.190  0.00  0.00    +0.000 HD
ENDBRANCH   7  18
BRANCH  12  20
ATOM     20  O   UNL     1       0.959   8.639  20.280  0.00  0.00    +0.000 OA
ATOM     21  C   UNL     1       0.478   9.962  20.041  0.00  0.00    +0.000 C 
ENDBRANCH  12  20
BRANCH   1  22
ATOM     22  C   UNL     1       7.008   5.571  16.245  0.00  0.00    +0.000 C 
BRANCH  22  23
ATOM     23  C   UNL     1       6.525   4.320  15.522  0.00  0.00    +0.000 C 
BRANCH  23  24
ATOM     24  C   UNL     1       6.594   4.473  14.031  0.00  0.00    +0.000 C 
ATOM     25  O   UNL     1       7.370   5.184  13.411  0.00  0.00    +0.000 OA
BRANCH  24  26
ATOM     26  O   UNL     1       5.569   3.751  13.497  0.00  0.00    +0.000 OA
BRANCH  26  28
ATOM     27  C   UNL     1       4.458   3.222  11.458  0.00  0.00    +0.000 C 
ATOM     28  C   UNL     1       5.799   3.272  12.171  0.00  0.00    +0.000 C 
ENDBRANCH  26  28
ENDBRANCH  24  26
ENDBRANCH  23  24
ENDBRANCH  22  23
ENDBRANCH   1  22
TORSDOF 7
ENDMDL
MODEL 2
REMARK VINA RESULT:      -7.6      0.837      1.388
REMARK  Name = 
REMARK  9 active torsions:
REMARK  status: ('A' for Active; 'I' for Inactive)
REMARK    1  A    between atoms: C_1  and  C_2
REMARK    2  A    between atoms: C_2  and  O_3
REMARK    3  A    between atoms: O_3  and  C_4
REMARK    4  A    between atoms: C_4  and  C_6
REMARK    5  A    between atoms: C_6  and  C_7
REMARK    6  A    between atoms: C_7  and  N_8
REMARK    7  A    between atoms: C_14  and  O_15
REMARK    8  A    between atoms: C_20  and  O_21
REMARK    9  A    between atoms: O_21  and  C_22
REMARK                            x       y       z     vdW  Elec       q    Type
REMARK                         _______ _______ _______ _____ _____    ______ ____
ROOT
ATOM      1  N   UNL     1       5.951   5.544  17.326  0.00  0.00    +0.000 NA
ATOM      2  C   UNL     1       5.793   4.478  18.348  0.00  0.00    +0.000 C 
ATOM      3  C   UNL     1       4.867   4.771  19.559  0.00  0.00    +0.000 C 
ATOM      4  C   UNL     1       3.372   4.707  19.164  0.00  0.00    +0.000 C 
ATOM      5  C   UNL     1       3.128   3.467  18.316  0.00  0.00    +0.000 C 
ATOM      6  C   UNL     1       3.054   2.342  19.063  0.00  0.00    +0.000 C 
ATOM      7  C   UNL     1       1.709   2.185  19.720  0.00  0.00    +0.000 C 
ATOM      8  C   UNL     1       1.158   3.598  20.070  0.00  0.00    +0.000 C 
ATOM      9  C   UNL     1       2.297   4.666  20.326  0.00  0.00    +0.000 C 
ATOM     10  O   UNL     1       1.677   5.974  20.469  0.00  0.00    +0.000 OA
ATOM     11  C   UNL     1       2.164   6.737  19.430  0.00  0.00    +0.000 A 
ATOM     12  C   UNL     1       1.917   8.103  19.278  0.00  0.00    +0.000 A 
ATOM     13  C   UNL     1       2.587   8.773  18.240  0.00  0.00    +0.000 A 
ATOM     14  C   UNL     1       3.470   8.080  17.411  0.00  0.00    +0.000 A 
ATOM     15  C   UNL     1       3.711   6.710  17.578  0.00  0.00    +0.000 A 
ATOM     16  C   UNL     1       3.045   6.053  18.605  0.00  0.00    +0.000 A 
ATOM     17  C   UNL     1       4.688   5.985  16.698  0.00  0.00    +0.000 C 
ENDROOT
BRANCH   7  18
ATOM     18  O   UNL     1       0.881   1.483  18.804  0.00  0.00    +0.000 OA
ATOM     19  H   UNL     1       0.155   1.087  19.317  0.00  0.00    +0.000 HD
ENDBRANCH   7  18
BRANCH  12  20
ATOM     20  O   UNL     1       1.091   8.717  20.181  0.00  0.00    +0.000 OA
ATOM     21  C   UNL     1       0.407   9.887  19.731  0.00  0.00    +0.000 C 
ENDBRANCH  12  20
BRANCH   1  22
ATOM     22  C   UNL     1       6.845   4.999  16.263  0.00  0.00    +0.000 C 
BRANCH  22  23
ATOM     23  C   UNL     1       6.185   3.886  15.458  0.00  0.00    +0.000 C 
BRANCH  23  24
ATOM     24  C   UNL     1       6.366   4.081  13.981  0.00  0.00    +0.000 C 
ATOM     25  O   UNL     1       6.012   3.311  13.100  0.00  0.00    +0.000 OA
BRANCH  24  26
ATOM     26  O   UNL     1       7.084   5.225  13.803  0.00  0.00    +0.000 OA
BRANCH  26  28
ATOM     27  C   UNL     1       9.076   6.005  12.757  0.00  0.00    +0.000 C 
ATOM     28  C   UNL     1       7.730   5.336  12.533  0.00  0.00    +0.000 C 
ENDBRANCH  26  28
ENDBRANCH  24  26
ENDBRANCH  23  24
ENDBRANCH  22  23
ENDBRANCH   1  22
TORSDOF 7
ENDMDL
MODEL 3
REMARK VINA RESULT:      -7.0      1.595      2.451
REMARK  Name = 
REMARK  9 active torsions:
REMARK  status: ('A' for Active; 'I' for Inactive)
REMARK    1  A    between atoms: C_1  and  C_2
REMARK    2  A    between atoms: C_2  and  O_3
REMARK    3  A    between atoms: O_3  and  C_4
REMARK    4  A    between atoms: C_4  and  C_6
REMARK    5  A    between atoms: C_6  and  C_7
REMARK    6  A    between atoms: C_7  and  N_8
REMARK    7  A    between atoms: C_14  and  O_15
REMARK    8  A    between atoms: C_20  and  O_21
REMARK    9  A    between atoms: O_21  and  C_22
REMARK                            x       y       z     vdW  Elec       q    Type
REMARK                         _______ _______ _______ _____ _____    ______ ____
ROOT
ATOM      1  N   UNL     1       4.576   6.966  17.251  0.00  0.00    +0.000 NA
ATOM      2  C   UNL     1       4.725   5.658  17.936  0.00  0.00    +0.000 C 
ATOM      3  C   UNL     1       4.120   5.516  19.359  0.00  0.00    +0.000 C 
ATOM      4  C   UNL     1       2.578   5.394  19.315  0.00  0.00    +0.000 C 
ATOM      5  C   UNL     1       2.183   4.403  18.230  0.00  0.00    +0.000 C 
ATOM      6  C   UNL     1       2.346   3.119  18.624  0.00  0.00    +0.000 C 
ATOM      7  C   UNL     1       1.217   2.646  19.498  0.00  0.00    +0.000 C 
ATOM      8  C   UNL     1       0.711   3.846  20.351  0.00  0.00    +0.000 C 
ATOM      9  C   UNL     1       1.831   4.928  20.632  0.00  0.00    +0.000 C 
ATOM     10  O   UNL     1       1.212   6.075  21.277  0.00  0.00    +0.000 OA
ATOM     11  C   UNL     1       1.389   7.135  20.414  0.00  0.00    +0.000 A 
ATOM     12  C   UNL     1       1.054   8.456  20.716  0.00  0.00    +0.000 A 
ATOM     13  C   UNL     1       1.413   9.446  19.786  0.00  0.00    +0.000 A 
ATOM     14  C   UNL     1       2.089   9.099  18.615  0.00  0.00    +0.000 A 
ATOM     15  C   UNL     1       2.422   7.769  18.328  0.00  0.00    +0.000 A 
ATOM     16  C   UNL     1       2.063   6.795  19.250  0.00  0.00    +0.000 A 
ATOM     17  C   UNL     1       3.178   7.415  17.079  0.00  0.00    +0.000 C 
ENDROOT
BRANCH   7  18
ATOM     18  O   UNL     1       0.216   2.123  18.636  0.00  0.00    +0.000 OA
ATOM     19  H   UNL     1      -0.618   2.571  18.857  0.00  0.00    +0.000 HD
ENDBRANCH   7  18
BRANCH  12  20
ATOM     20  O   UNL     1       0.455   8.714  21.920  0.00  0.00    +0.000 OA
ATOM     21  C   UNL     1      -0.269   9.940  22.025  0.00  0.00    +0.000 C 
ENDBRANCH  12  20
BRANCH   1  22
ATOM     22  C   UNL     1       5.197   6.825  15.901  0.00  0.00    +0.000 C 
BRANCH  22  23
ATOM     23  C   UNL     1       5.340   5.369  15.473  0.00  0.00    +0.000 C 
BRANCH  23  24
ATOM     24  C   UNL     1       6.746   5.042  15.062  0.00  0.00    +0.000 C 
ATOM     25  O   UNL     1       7.086   4.466  14.040  0.00  0.00    +0.000 OA
BRANCH  24  26
ATOM     26  O   UNL     1       7.569   5.416  16.081  0.00  0.00    +0.000 OA
BRANCH  26  28
ATOM     27  C   UNL     1       7.882   5.216  18.433  0.00  0.00    +0.000 C 
ATOM     28  C   UNL     1       7.700   4.456  17.130  0.00  0.00    +0.000 C 
ENDBRANCH  26  28
ENDBRANCH  24  26
ENDBRANCH  23  24
ENDBRANCH  22  23
ENDBRANCH   1  22
TORSDOF 7
ENDMDL
MODEL 4
REMARK VINA RESULT:      -7.0      1.862      2.805
REMARK  Name = 
REMARK  9 active torsions:
REMARK  status: ('A' for Active; 'I' for Inactive)
REMARK    1  A    between atoms: C_1  and  C_2
REMARK    2  A    between atoms: C_2  and  O_3
REMARK    3  A    between atoms: O_3  and  C_4
REMARK    4  A    between atoms: C_4  and  C_6
REMARK    5  A    between atoms: C_6  and  C_7
REMARK    6  A    between atoms: C_7  and  N_8
REMARK    7  A    between atoms: C_14  and  O_15
REMARK    8  A    between atoms: C_20  and  O_21
REMARK    9  A    between atoms: O_21  and  C_22
REMARK                            x       y       z     vdW  Elec       q    Type
REMARK                         _______ _______ _______ _____ _____    ______ ____
ROOT
ATOM      1  N   UNL     1       4.644   6.597  16.926  0.00  0.00    +0.000 NA
ATOM      2  C   UNL     1       4.799   5.257  17.545  0.00  0.00    +0.000 C 
ATOM      3  C   UNL     1       4.280   5.067  18.995  0.00  0.00    +0.000 C 
ATOM      4  C   UNL     1       2.735   4.984  19.044  0.00  0.00    +0.000 C 
ATOM      5  C   UNL     1       2.247   4.052  17.945  0.00  0.00    +0.000 C 
ATOM      6  C   UNL     1       2.399   2.749  18.273  0.00  0.00    +0.000 C 
ATOM      7  C   UNL     1       1.314   2.265  19.195  0.00  0.00    +0.000 C 
ATOM      8  C   UNL     1       0.895   3.438  20.128  0.00  0.00    +0.000 C 
ATOM      9  C   UNL     1       2.059   4.479  20.384  0.00  0.00    +0.000 C 
ATOM     10  O   UNL     1       1.512   5.611  21.115  0.00  0.00    +0.000 OA
ATOM     11  C   UNL     1       1.664   6.703  20.289  0.00  0.00    +0.000 A 
ATOM     12  C   UNL     1       1.384   8.018  20.668  0.00  0.00    +0.000 A 
ATOM     13  C   UNL     1       1.712   9.039  19.760  0.00  0.00    +0.000 A 
ATOM     14  C   UNL     1       2.304   8.728  18.535  0.00  0.00    +0.000 A 
ATOM     15  C   UNL     1       2.583   7.404  18.170  0.00  0.00    +0.000 A 
ATOM     16  C   UNL     1       2.256   6.399  19.071  0.00  0.00    +0.000 A 
ATOM     17  C   UNL     1       3.250   7.087  16.863  0.00  0.00    +0.000 C 
ENDROOT
BRANCH   7  18
ATOM     18  O   UNL     1       0.248   1.806  18.376  0.00  0.00    +0.000 OA
ATOM     19  H   UNL     1      -0.057   2.563  17.847  0.00  0.00    +0.000 HD
ENDBRANCH   7  18
BRANCH  12  20
ATOM     20  O   UNL     1       0.868   8.237  21.916  0.00  0.00    +0.000 OA
ATOM     21  C   UNL     1       0.899   9.581  22.396  0.00  0.00    +0.000 C 
ENDBRANCH  12  20
BRANCH   1  22
ATOM     22  C   UNL     1       5.175   6.500  15.535  0.00  0.00    +0.000 C 
BRANCH  22  23
ATOM     23  C   UNL     1       6.095   5.301  15.343  0.00  0.00    +0.000 C 
BRANCH  23  24
ATOM     24  C   UNL     1       7.325   5.395  16.198  0.00  0.00    +0.000 C 
ATOM     25  O   UNL     1       7.925   4.462  16.709  0.00  0.00    +0.000 OA
BRANCH  24  26
ATOM     26  O   UNL     1       7.594   6.718  16.385  0.00  0.00    +0.000 OA
BRANCH  26  28
ATOM     27  C   UNL     1       7.988   8.605  17.782  0.00  0.00    +0.000 C 
ATOM     28  C   UNL     1       7.853   7.093  17.739  0.00  0.00    +0.000 C 
ENDBRANCH  26  28
ENDBRANCH  24  26
ENDBRANCH  23  24
ENDBRANCH  22  23
ENDBRANCH   1  22
TORSDOF 7
ENDMDL
MODEL 5
REMARK VINA RESULT:      -6.7      1.917      6.830
REMARK  Name = 
REMARK  9 active torsions:
REMARK  status: ('A' for Active; 'I' for Inactive)
REMARK    1  A    between atoms: C_1  and  C_2
REMARK    2  A    between atoms: C_2  and  O_3
REMARK    3  A    between atoms: O_3  and  C_4
REMARK    4  A    between atoms: C_4  and  C_6
REMARK    5  A    between atoms: C_6  and  C_7
REMARK    6  A    between atoms: C_7  and  N_8
REMARK    7  A    between atoms: C_14  and  O_15
REMARK    8  A    between atoms: C_20  and  O_21
REMARK    9  A    between atoms: O_21  and  C_22
REMARK                            x       y       z     vdW  Elec       q    Type
REMARK                         _______ _______ _______ _____ _____    ______ ____
ROOT
ATOM      1  N   UNL     1       2.225   7.866  17.911  0.00  0.00    +0.000 NA
ATOM      2  C   UNL     1       1.300   6.775  18.310  0.00  0.00    +0.000 C 
ATOM      3  C   UNL     1       1.547   5.365  17.709  0.00  0.00    +0.000 C 
ATOM      4  C   UNL     1       2.761   4.667  18.367  0.00  0.00    +0.000 C 
ATOM      5  C   UNL     1       2.679   4.834  19.877  0.00  0.00    +0.000 C 
ATOM      6  C   UNL     1       1.792   3.983  20.440  0.00  0.00    +0.000 C 
ATOM      7  C   UNL     1       2.359   2.599  20.602  0.00  0.00    +0.000 C 
ATOM      8  C   UNL     1       3.329   2.317  19.418  0.00  0.00    +0.000 C 
ATOM      9  C   UNL     1       2.960   3.118  18.104  0.00  0.00    +0.000 C 
ATOM     10  O   UNL     1       4.021   2.917  17.130  0.00  0.00    +0.000 OA
ATOM     11  C   UNL     1       4.562   4.164  16.899  0.00  0.00    +0.000 A 
ATOM     12  C   UNL     1       5.526   4.432  15.925  0.00  0.00    +0.000 A 
ATOM     13  C   UNL     1       5.887   5.775  15.720  0.00  0.00    +0.000 A 
ATOM     14  C   UNL     1       5.282   6.787  16.468  0.00  0.00    +0.000 A 
ATOM     15  C   UNL     1       4.313   6.503  17.439  0.00  0.00    +0.000 A 
ATOM     16  C   UNL     1       3.962   5.174  17.638  0.00  0.00    +0.000 A 
ATOM     17  C   UNL     1       3.649   7.605  18.212  0.00  0.00    +0.000 C 
ENDROOT
BRANCH   7  18
ATOM     18  O   UNL     1       3.007   2.561  21.865  0.00  0.00    +0.000 OA
ATOM     19  H   UNL     1       3.943   2.779  21.716  0.00  0.00    +0.000 HD
ENDBRANCH   7  18
BRANCH  12  20
ATOM     20  O   UNL     1       6.014   3.385  15.191  0.00  0.00    +0.000 OA
ATOM     21  C   UNL     1       6.277   3.638  13.810  0.00  0.00    +0.000 C 
ENDBRANCH  12  20
BRANCH   1  22
ATOM     22  C   UNL     1       1.801   9.090  18.653  0.00  0.00    +0.000 C 
BRANCH  22  23
ATOM     23  C   UNL     1       0.508   9.685  18.110  0.00  0.00    +0.000 C 
BRANCH  23  24
ATOM     24  C   UNL     1      -0.370  10.212  19.207  0.00  0.00    +0.000 C 
ATOM     25  O   UNL     1      -1.190  11.113  19.109  0.00  0.00    +0.000 OA
BRANCH  24  26
ATOM     26  O   UNL     1      -0.019   9.571  20.357  0.00  0.00    +0.000 OA
BRANCH  26  28
ATOM     27  C   UNL     1      -0.332   9.372  22.709  0.00  0.00    +0.000 C 
ATOM     28  C   UNL     1      -0.187  10.341  21.549  0.00  0.00    +0.000 C 
ENDBRANCH  26  28
ENDBRANCH  24  26
ENDBRANCH  23  24
ENDBRANCH  22  23
ENDBRANCH   1  22
TORSDOF 7
ENDMDL
MODEL 6
REMARK VINA RESULT:      -6.7      2.175      6.557
REMARK  Name = 
REMARK  9 active torsions:
REMARK  status: ('A' for Active; 'I' for Inactive)
REMARK    1  A    between atoms: C_1  and  C_2
REMARK    2  A    between atoms: C_2  and  O_3
REMARK    3  A    between atoms: O_3  and  C_4
REMARK    4  A    between atoms: C_4  and  C_6
REMARK    5  A    between atoms: C_6  and  C_7
REMARK    6  A    between atoms: C_7  and  N_8
REMARK    7  A    between atoms: C_14  and  O_15
REMARK    8  A    between atoms: C_20  and  O_21
REMARK    9  A    between atoms: O_21  and  C_22
REMARK                            x       y       z     vdW  Elec       q    Type
REMARK                         _______ _______ _______ _____ _____    ______ ____
ROOT
ATOM      1  N   UNL     1       2.199   7.772  17.942  0.00  0.00    +0.000 NA
ATOM      2  C   UNL     1       1.305   6.661  18.354  0.00  0.00    +0.000 C 
ATOM      3  C   UNL     1       1.563   5.260  17.738  0.00  0.00    +0.000 C 
ATOM      4  C   UNL     1       2.805   4.580  18.364  0.00  0.00    +0.000 C 
ATOM      5  C   UNL     1       2.756   4.737  19.876  0.00  0.00    +0.000 C 
ATOM      6  C   UNL     1       1.898   3.865  20.454  0.00  0.00    +0.000 C 
ATOM      7  C   UNL     1       2.494   2.491  20.594  0.00  0.00    +0.000 C 
ATOM      8  C   UNL     1       3.441   2.234  19.386  0.00  0.00    +0.000 C 
ATOM      9  C   UNL     1       3.027   3.037  18.086  0.00  0.00    +0.000 C 
ATOM     10  O   UNL     1       4.068   2.862  17.086  0.00  0.00    +0.000 OA
ATOM     11  C   UNL     1       4.580   4.120  16.851  0.00  0.00    +0.000 A 
ATOM     12  C   UNL     1       5.516   4.412  15.856  0.00  0.00    +0.000 A 
ATOM     13  C   UNL     1       5.847   5.762  15.652  0.00  0.00    +0.000 A 
ATOM     14  C   UNL     1       5.241   6.758  16.420  0.00  0.00    +0.000 A 
ATOM     15  C   UNL     1       4.301   6.450  17.411  0.00  0.00    +0.000 A 
ATOM     16  C   UNL     1       3.979   5.114  17.610  0.00  0.00    +0.000 A 
ATOM     17  C   UNL     1       3.635   7.535  18.208  0.00  0.00    +0.000 C 
ENDROOT
BRANCH   7  18
ATOM     18  O   UNL     1       3.172   2.458  21.841  0.00  0.00    +0.000 OA
ATOM     19  H   UNL     1       2.919   3.260  22.329  0.00  0.00    +0.000 HD
ENDBRANCH   7  18
BRANCH  12  20
ATOM     20  O   UNL     1       6.005   3.378  15.103  0.00  0.00    +0.000 OA
ATOM     21  C   UNL     1       6.303   3.667  13.737  0.00  0.00    +0.000 C 
ENDBRANCH  12  20
BRANCH   1  22
ATOM     22  C   UNL     1       1.770   8.982  18.702  0.00  0.00    +0.000 C 
BRANCH  22  23
ATOM     23  C   UNL     1       0.631   9.728  18.019  0.00  0.00    +0.000 C 
BRANCH  23  24
ATOM     24  C   UNL     1      -0.177  10.532  18.995  0.00  0.00    +0.000 C 
ATOM     25  O   UNL     1       0.145  10.820  20.138  0.00  0.00    +0.000 OA
BRANCH  24  26
ATOM     26  O   UNL     1      -1.378  10.799  18.411  0.00  0.00    +0.000 OA
BRANCH  26  28
ATOM     27  C   UNL     1      -3.223   9.783  17.299  0.00  0.00    +0.000 C 
ATOM     28  C   UNL     1      -1.713   9.951  17.311  0.00  0.00    +0.000 C 
ENDBRANCH  26  28
ENDBRANCH  24  26
ENDBRANCH  23  24
ENDBRANCH  22  23
ENDBRANCH   1  22
TORSDOF 7
ENDMDL
MODEL 7
REMARK VINA RESULT:      -6.6      2.453      3.518
REMARK  Name = 
REMARK  9 active torsions:
REMARK  status: ('A' for Active; 'I' for Inactive)
REMARK    1  A    between atoms: C_1  and  C_2
REMARK    2  A    between atoms: C_2  and  O_3
REMARK    3  A    between atoms: O_3  and  C_4
REMARK    4  A    between atoms: C_4  and  C_6
REMARK    5  A    between atoms: C_6  and  C_7
REMARK    6  A    between atoms: C_7  and  N_8
REMARK    7  A    between atoms: C_14  and  O_15
REMARK    8  A    between atoms: C_20  and  O_21
REMARK    9  A    between atoms: O_21  and  C_22
REMARK                            x       y       z     vdW  Elec       q    Type
REMARK                         _______ _______ _______ _____ _____    ______ ____
ROOT
ATOM      1  N   UNL     1       5.356   6.273  17.629  0.00  0.00    +0.000 NA
ATOM      2  C   UNL     1       5.272   5.039  18.451  0.00  0.00    +0.000 C 
ATOM      3  C   UNL     1       4.374   5.075  19.717  0.00  0.00    +0.000 C 
ATOM      4  C   UNL     1       2.871   5.016  19.353  0.00  0.00    +0.000 C 
ATOM      5  C   UNL     1       2.649   3.933  18.307  0.00  0.00    +0.000 C 
ATOM      6  C   UNL     1       2.642   2.693  18.847  0.00  0.00    +0.000 C 
ATOM      7  C   UNL     1       1.327   2.364  19.497  0.00  0.00    +0.000 C 
ATOM      8  C   UNL     1       0.732   3.668  20.104  0.00  0.00    +0.000 C 
ATOM      9  C   UNL     1       1.836   4.725  20.516  0.00  0.00    +0.000 C 
ATOM     10  O   UNL     1       1.170   5.959  20.902  0.00  0.00    +0.000 OA
ATOM     11  C   UNL     1       1.593   6.913  20.001  0.00  0.00    +0.000 A 
ATOM     12  C   UNL     1       1.288   8.272  20.098  0.00  0.00    +0.000 A 
ATOM     13  C   UNL     1       1.899   9.142  19.178  0.00  0.00    +0.000 A 
ATOM     14  C   UNL     1       2.781   8.644  18.218  0.00  0.00    +0.000 A 
ATOM     15  C   UNL     1       3.081   7.277  18.136  0.00  0.00    +0.000 A 
ATOM     16  C   UNL     1       2.473   6.423  19.047  0.00  0.00    +0.000 A 
ATOM     17  C   UNL     1       4.057   6.761  17.119  0.00  0.00    +0.000 C 
ENDROOT
BRANCH   7  18
ATOM     18  O   UNL     1       0.498   1.797  18.493  0.00  0.00    +0.000 OA
ATOM     19  H   UNL     1      -0.065   2.510  18.147  0.00  0.00    +0.000 HD
ENDBRANCH   7  18
BRANCH  12  20
ATOM     20  O   UNL     1       0.468   8.682  21.114  0.00  0.00    +0.000 OA
ATOM     21  C   UNL     1      -0.282   9.875  20.890  0.00  0.00    +0.000 C 
ENDBRANCH  12  20
BRANCH   1  22
ATOM     22  C   UNL     1       6.236   5.962  16.465  0.00  0.00    +0.000 C 
BRANCH  22  23
ATOM     23  C   UNL     1       7.471   6.852  16.411  0.00  0.00    +0.000 C 
BRANCH  23  24
ATOM     24  C   UNL     1       7.845   7.374  17.767  0.00  0.00    +0.000 C 
ATOM     25  O   UNL     1       8.100   6.703  18.756  0.00  0.00    +0.000 OA
BRANCH  24  26
ATOM     26  O   UNL     1       7.753   8.732  17.723  0.00  0.00    +0.000 OA
BRANCH  26  28
ATOM     27  C   UNL     1       8.890  10.809  17.988  0.00  0.00    +0.000 C 
ATOM     28  C   UNL     1       8.671   9.424  18.573  0.00  0.00    +0.000 C 
ENDBRANCH  26  28
ENDBRANCH  24  26
ENDBRANCH  23  24
ENDBRANCH  22  23
ENDBRANCH   1  22
TORSDOF 7
ENDMDL
MODEL 8
REMARK VINA RESULT:      -6.6      1.907      6.660
REMARK  Name = 
REMARK  9 active torsions:
REMARK  status: ('A' for Active; 'I' for Inactive)
REMARK    1  A    between atoms: C_1  and  C_2
REMARK    2  A    between atoms: C_2  and  O_3
REMARK    3  A    between atoms: O_3  and  C_4
REMARK    4  A    between atoms: C_4  and  C_6
REMARK    5  A    between atoms: C_6  and  C_7
REMARK    6  A    between atoms: C_7  and  N_8
REMARK    7  A    between atoms: C_14  and  O_15
REMARK    8  A    between atoms: C_20  and  O_21
REMARK    9  A    between atoms: O_21  and  C_22
REMARK                            x       y       z     vdW  Elec       q    Type
REMARK                         _______ _______ _______ _____ _____    ______ ____
ROOT
ATOM      1  N   UNL     1       2.211   7.778  17.873  0.00  0.00    +0.000 NA
ATOM      2  C   UNL     1       1.307   6.672  18.276  0.00  0.00    +0.000 C 
ATOM      3  C   UNL     1       1.580   5.264  17.682  0.00  0.00    +0.000 C 
ATOM      4  C   UNL     1       2.807   4.593  18.345  0.00  0.00    +0.000 C 
ATOM      5  C   UNL     1       2.721   4.766  19.854  0.00  0.00    +0.000 C 
ATOM      6  C   UNL     1       1.850   3.900  20.421  0.00  0.00    +0.000 C 
ATOM      7  C   UNL     1       2.443   2.528  20.590  0.00  0.00    +0.000 C 
ATOM      8  C   UNL     1       3.419   2.259  19.408  0.00  0.00    +0.000 C 
ATOM      9  C   UNL     1       3.037   3.046  18.090  0.00  0.00    +0.000 C 
ATOM     10  O   UNL     1       4.102   2.861  17.118  0.00  0.00    +0.000 OA
ATOM     11  C   UNL     1       4.619   4.116  16.881  0.00  0.00    +0.000 A 
ATOM     12  C   UNL     1       5.578   4.398  15.906  0.00  0.00    +0.000 A 
ATOM     13  C   UNL     1       5.913   5.746  15.695  0.00  0.00    +0.000 A 
ATOM     14  C   UNL     1       5.289   6.751  16.437  0.00  0.00    +0.000 A 
ATOM     15  C   UNL     1       4.325   6.453  17.409  0.00  0.00    +0.000 A 
ATOM     16  C   UNL     1       3.999   5.118  17.614  0.00  0.00    +0.000 A 
ATOM     17  C   UNL     1       3.639   7.546  18.176  0.00  0.00    +0.000 C 
ENDROOT
BRANCH   7  18
ATOM     18  O   UNL     1       3.091   2.509  21.854  0.00  0.00    +0.000 OA
ATOM     19  H   UNL     1       2.523   2.006  22.462  0.00  0.00    +0.000 HD
ENDBRANCH   7  18
BRANCH  12  20
ATOM     20  O   UNL     1       6.087   3.357  15.177  0.00  0.00    +0.000 OA
ATOM     21  C   UNL     1       6.283   3.588  13.782  0.00  0.00    +0.000 C 
ENDBRANCH  12  20
BRANCH   1  22
ATOM     22  C   UNL     1       1.763   8.997  18.608  0.00  0.00    +0.000 C 
BRANCH  22  23
ATOM     23  C   UNL     1       1.435   8.712  20.069  0.00  0.00    +0.000 C 
BRANCH  23  24
ATOM     24  C   UNL     1       0.274   9.531  20.552  0.00  0.00    +0.000 C 
ATOM     25  O   UNL     1      -0.466   9.258  21.485  0.00  0.00    +0.000 OA
BRANCH  24  26
ATOM     26  O   UNL     1       0.134  10.586  19.701  0.00  0.00    +0.000 OA
BRANCH  26  28
ATOM     27  C   UNL     1      -1.712  10.303  18.223  0.00  0.00    +0.000 C 
ATOM     28  C   UNL     1      -1.215  11.001  19.478  0.00  0.00    +0.000 C 
ENDBRANCH  26  28
ENDBRANCH  24  26
ENDBRANCH  23  24
ENDBRANCH  22  23
ENDBRANCH   1  22
TORSDOF 7
ENDMDL
MODEL 9
REMARK VINA RESULT:      -6.5      2.103      6.798
REMARK  Name = 
REMARK  9 active torsions:
REMARK  status: ('A' for Active; 'I' for Inactive)
REMARK    1  A    between atoms: C_1  and  C_2
REMARK    2  A    between atoms: C_2  and  O_3
REMARK    3  A    between atoms: O_3  and  C_4
REMARK    4  A    between atoms: C_4  and  C_6
REMARK    5  A    between atoms: C_6  and  C_7
REMARK    6  A    between atoms: C_7  and  N_8
REMARK    7  A    between atoms: C_14  and  O_15
REMARK    8  A    between atoms: C_20  and  O_21
REMARK    9  A    between atoms: O_21  and  C_22
REMARK                            x       y       z     vdW  Elec       q    Type
REMARK                         _______ _______ _______ _____ _____    ______ ____
ROOT
ATOM      1  N   UNL     1       2.224   7.778  17.948  0.00  0.00    +0.000 NA
ATOM      2  C   UNL     1       1.321   6.667  18.342  0.00  0.00    +0.000 C 
ATOM      3  C   UNL     1       1.591   5.266  17.732  0.00  0.00    +0.000 C 
ATOM      4  C   UNL     1       2.820   4.587  18.383  0.00  0.00    +0.000 C 
ATOM      5  C   UNL     1       2.740   4.744  19.894  0.00  0.00    +0.000 C 
ATOM      6  C   UNL     1       1.871   3.872  20.455  0.00  0.00    +0.000 C 
ATOM      7  C   UNL     1       2.464   2.498  20.607  0.00  0.00    +0.000 C 
ATOM      8  C   UNL     1       3.435   2.241  19.419  0.00  0.00    +0.000 C 
ATOM      9  C   UNL     1       3.048   3.043  18.111  0.00  0.00    +0.000 C 
ATOM     10  O   UNL     1       4.109   2.868  17.132  0.00  0.00    +0.000 OA
ATOM     11  C   UNL     1       4.626   4.126  16.907  0.00  0.00    +0.000 A 
ATOM     12  C   UNL     1       5.582   4.417  15.931  0.00  0.00    +0.000 A 
ATOM     13  C   UNL     1       5.917   5.768  15.733  0.00  0.00    +0.000 A 
ATOM     14  C   UNL     1       5.296   6.764  16.489  0.00  0.00    +0.000 A 
ATOM     15  C   UNL     1       4.335   6.456  17.461  0.00  0.00    +0.000 A 
ATOM     16  C   UNL     1       4.010   5.120  17.653  0.00  0.00    +0.000 A 
ATOM     17  C   UNL     1       3.653   7.542  18.243  0.00  0.00    +0.000 C 
ENDROOT
BRANCH   7  18
ATOM     18  O   UNL     1       3.117   2.465  21.868  0.00  0.00    +0.000 OA
ATOM     19  H   UNL     1       3.131   1.538  22.162  0.00  0.00    +0.000 HD
ENDBRANCH   7  18
BRANCH  12  20
ATOM     20  O   UNL     1       6.087   3.384  15.189  0.00  0.00    +0.000 OA
ATOM     21  C   UNL     1       6.271   3.627  13.795  0.00  0.00    +0.000 C 
ENDBRANCH  12  20
BRANCH   1  22
ATOM     22  C   UNL     1       1.779   8.989  18.698  0.00  0.00    +0.000 C 
BRANCH  22  23
ATOM     23  C   UNL     1       0.671   9.749  17.979  0.00  0.00    +0.000 C 
BRANCH  23  24
ATOM     24  C   UNL     1      -0.366  10.262  18.934  0.00  0.00    +0.000 C 
ATOM     25  O   UNL     1      -0.502   9.932  20.103  0.00  0.00    +0.000 OA
BRANCH  24  26
ATOM     26  O   UNL     1      -1.191  11.092  18.236  0.00  0.00    +0.000 OA
BRANCH  26  28
ATOM     27  C   UNL     1      -0.413  13.338  18.369  0.00  0.00    +0.000 C 
ATOM     28  C   UNL     1      -1.452  12.348  18.865  0.00  0.00    +0.000 C 
ENDBRANCH  26  28
ENDBRANCH  24  26
ENDBRANCH  23  24
ENDBRANCH  22  23
ENDBRANCH   1  22
TORSDOF 7
ENDMDL
