MODEL 1
REMARK VINA RESULT:      -6.8      0.000      0.000
REMARK  Name = 
REMARK  5 active torsions:
REMARK  status: ('A' for Active; 'I' for Inactive)
REMARK    1  A    between atoms: C_1  and  C_2
REMARK    2  A    between atoms: C_4  and  O_5
REMARK    3  A    between atoms: C_6  and  C_7
REMARK    4  A    between atoms: C_7  and  C_9
REMARK    5  A    between atoms: C_10  and  C_11
REMARK                            x       y       z     vdW  Elec       q    Type
REMARK                         _______ _______ _______ _____ _____    ______ ____
ROOT
ATOM      1  C   UNL     1       6.653   4.392  13.780  0.00  0.00    +0.000 C 
ATOM      2  C   UNL     1       6.247   4.341  15.217  0.00  0.00    +0.000 A 
ATOM      3  C   UNL     1       7.054   4.583  16.252  0.00  0.00    +0.000 A 
ATOM      4  C   UNL     1       6.521   4.544  17.590  0.00  0.00    +0.000 A 
ATOM      5  C   UNL     1       5.234   4.222  17.837  0.00  0.00    +0.000 A 
ATOM      6  C   UNL     1       4.376   3.862  16.675  0.00  0.00    +0.000 A 
ATOM      7  O   UNL     1       3.226   3.455  16.810  0.00  0.00    +0.000 OA
ATOM      8  O   UNL     1       4.897   4.000  15.417  0.00  0.00    +0.000 OA
ENDROOT
BRANCH   4   9
ATOM      9  O   UNL     1       7.415   4.896  18.578  0.00  0.00    +0.000 OA
ATOM     10  H   UNL     1       8.267   5.156  18.195  0.00  0.00    +0.000 HD
ENDBRANCH   4   9
BRANCH   5  11
ATOM     11  C   UNL     1       4.713   4.175  19.246  0.00  0.00    +0.000 C 
ATOM     12  O   UNL     1       5.007   3.281  20.037  0.00  0.00    +0.000 OA
BRANCH  11  13
ATOM     13  C   UNL     1       3.786   5.265  19.670  0.00  0.00    +0.000 C 
ATOM     14  C   UNL     1       3.302   6.144  18.779  0.00  0.00    +0.000 C 
BRANCH  14  15
ATOM     15  C   UNL     1       2.484   7.238  19.194  0.00  0.00    +0.000 A 
ATOM     16  C   UNL     1       1.887   7.496  20.423  0.00  0.00    +0.000 A 
ATOM     17  C   UNL     1       1.141   8.700  20.424  0.00  0.00    +0.000 A 
ATOM     18 BR   UNL     1       0.211   9.298  21.951  0.00  0.00    +0.000 Br
ATOM     19  C   UNL     1       1.177   9.358  19.224  0.00  0.00    +0.000 A 
ATOM     20  S   UNL     1       2.144   8.521  18.088  0.00  0.00    +0.000 S 
ENDBRANCH  14  15
ENDBRANCH  11  13
ENDBRANCH   5  11
TORSDOF 4
ENDMDL
MODEL 2
REMARK VINA RESULT:      -6.6      1.248      2.284
REMARK  Name = 
REMARK  5 active torsions:
REMARK  status: ('A' for Active; 'I' for Inactive)
REMARK    1  A    between atoms: C_1  and  C_2
REMARK    2  A    between atoms: C_4  and  O_5
REMARK    3  A    between atoms: C_6  and  C_7
REMARK    4  A    between atoms: C_7  and  C_9
REMARK    5  A    between atoms: C_10  and  C_11
REMARK                            x       y       z     vdW  Elec       q    Type
REMARK                         _______ _______ _______ _____ _____    ______ ____
ROOT
ATOM      1  C   UNL     1       6.460   4.178  15.056  0.00  0.00    +0.000 C 
ATOM      2  C   UNL     1       5.555   4.118  16.243  0.00  0.00    +0.000 A 
ATOM      3  C   UNL     1       4.270   3.760  16.212  0.00  0.00    +0.000 A 
ATOM      4  C   UNL     1       3.520   3.703  17.442  0.00  0.00    +0.000 A 
ATOM      5  C   UNL     1       4.066   4.046  18.627  0.00  0.00    +0.000 A 
ATOM      6  C   UNL     1       5.472   4.535  18.626  0.00  0.00    +0.000 A 
ATOM      7  O   UNL     1       6.017   4.969  19.637  0.00  0.00    +0.000 OA
ATOM      8  O   UNL     1       6.173   4.488  17.451  0.00  0.00    +0.000 OA
ENDROOT
BRANCH   4   9
ATOM      9  O   UNL     1       2.231   3.236  17.310  0.00  0.00    +0.000 OA
ATOM     10  H   UNL     1       1.593   3.965  17.360  0.00  0.00    +0.000 HD
ENDBRANCH   4   9
BRANCH   5  11
ATOM     11  C   UNL     1       3.252   3.990  19.890  0.00  0.00    +0.000 C 
ATOM     12  O   UNL     1       3.149   2.973  20.573  0.00  0.00    +0.000 OA
BRANCH  11  13
ATOM     13  C   UNL     1       2.535   5.233  20.299  0.00  0.00    +0.000 C 
ATOM     14  C   UNL     1       2.413   6.268  19.453  0.00  0.00    +0.000 C 
BRANCH  14  15
ATOM     15  C   UNL     1       1.803   7.490  19.869  0.00  0.00    +0.000 A 
ATOM     16  C   UNL     1       1.241   7.841  21.091  0.00  0.00    +0.000 A 
ATOM     17  C   UNL     1       0.730   9.163  21.096  0.00  0.00    +0.000 A 
ATOM     18 BR   UNL     1      -0.103   9.907  22.615  0.00  0.00    +0.000 Br
ATOM     19  C   UNL     1       0.909   9.815  19.905  0.00  0.00    +0.000 A 
ATOM     20  S   UNL     1       1.726   8.824  18.774  0.00  0.00    +0.000 S 
ENDBRANCH  14  15
ENDBRANCH  11  13
ENDBRANCH   5  11
TORSDOF 4
ENDMDL
MODEL 3
REMARK VINA RESULT:      -6.6      0.902      2.003
REMARK  Name = 
REMARK  5 active torsions:
REMARK  status: ('A' for Active; 'I' for Inactive)
REMARK    1  A    between atoms: C_1  and  C_2
REMARK    2  A    between atoms: C_4  and  O_5
REMARK    3  A    between atoms: C_6  and  C_7
REMARK    4  A    between atoms: C_7  and  C_9
REMARK    5  A    between atoms: C_10  and  C_11
REMARK                            x       y       z     vdW  Elec       q    Type
REMARK                         _______ _______ _______ _____ _____    ______ ____
ROOT
ATOM      1  C   UNL     1       7.115   4.388  13.367  0.00  0.00    +0.000 C 
ATOM      2  C   UNL     1       6.509   4.415  14.732  0.00  0.00    +0.000 A 
ATOM      3  C   UNL     1       5.211   4.260  14.999  0.00  0.00    +0.000 A 
ATOM      4  C   UNL     1       4.763   4.263  16.369  0.00  0.00    +0.000 A 
ATOM      5  C   UNL     1       5.614   4.465  17.397  0.00  0.00    +0.000 A 
ATOM      6  C   UNL     1       7.041   4.732  17.072  0.00  0.00    +0.000 A 
ATOM      7  O   UNL     1       7.866   5.030  17.931  0.00  0.00    +0.000 OA
ATOM      8  O   UNL     1       7.438   4.630  15.765  0.00  0.00    +0.000 OA
ENDROOT
BRANCH   4   9
ATOM      9  O   UNL     1       3.420   4.006  16.538  0.00  0.00    +0.000 OA
ATOM     10  H   UNL     1       2.954   4.796  16.850  0.00  0.00    +0.000 HD
ENDBRANCH   4   9
BRANCH   5  11
ATOM     11  C   UNL     1       5.113   4.477  18.814  0.00  0.00    +0.000 C 
ATOM     12  O   UNL     1       5.269   3.533  19.586  0.00  0.00    +0.000 OA
BRANCH  11  13
ATOM     13  C   UNL     1       4.382   5.695  19.272  0.00  0.00    +0.000 C 
ATOM     14  C   UNL     1       3.047   5.686  19.410  0.00  0.00    +0.000 C 
BRANCH  14  15
ATOM     15  C   UNL     1       2.336   6.873  19.764  0.00  0.00    +0.000 A 
ATOM     16  C   UNL     1       1.648   7.192  20.929  0.00  0.00    +0.000 A 
ATOM     17  C   UNL     1       1.067   8.483  20.882  0.00  0.00    +0.000 A 
ATOM     18 BR   UNL     1       0.062   9.179  22.317  0.00  0.00    +0.000 Br
ATOM     19  C   UNL     1       1.317   9.145  19.710  0.00  0.00    +0.000 A 
ATOM     20  S   UNL     1       2.285   8.202  18.661  0.00  0.00    +0.000 S 
ENDBRANCH  14  15
ENDBRANCH  11  13
ENDBRANCH   5  11
TORSDOF 4
ENDMDL
MODEL 4
REMARK VINA RESULT:      -6.6      1.263      1.603
REMARK  Name = 
REMARK  5 active torsions:
REMARK  status: ('A' for Active; 'I' for Inactive)
REMARK    1  A    between atoms: C_1  and  C_2
REMARK    2  A    between atoms: C_4  and  O_5
REMARK    3  A    between atoms: C_6  and  C_7
REMARK    4  A    between atoms: C_7  and  C_9
REMARK    5  A    between atoms: C_10  and  C_11
REMARK                            x       y       z     vdW  Elec       q    Type
REMARK                         _______ _______ _______ _____ _____    ______ ____
ROOT
ATOM      1  C   UNL     1       5.694   4.055  14.920  0.00  0.00    +0.000 C 
ATOM      2  C   UNL     1       5.073   4.122  16.277  0.00  0.00    +0.000 A 
ATOM      3  C   UNL     1       5.694   4.527  17.386  0.00  0.00    +0.000 A 
ATOM      4  C   UNL     1       4.963   4.584  18.627  0.00  0.00    +0.000 A 
ATOM      5  C   UNL     1       3.674   4.195  18.715  0.00  0.00    +0.000 A 
ATOM      6  C   UNL     1       3.030   3.655  17.487  0.00  0.00    +0.000 A 
ATOM      7  O   UNL     1       1.898   3.179  17.494  0.00  0.00    +0.000 OA
ATOM      8  O   UNL     1       3.731   3.703  16.312  0.00  0.00    +0.000 OA
ENDROOT
BRANCH   4   9
ATOM      9  O   UNL     1       5.671   5.102  19.690  0.00  0.00    +0.000 OA
ATOM     10  H   UNL     1       6.409   5.649  19.380  0.00  0.00    +0.000 HD
ENDBRANCH   4   9
BRANCH   5  11
ATOM     11  C   UNL     1       2.944   4.253  20.028  0.00  0.00    +0.000 C 
ATOM     12  O   UNL     1       2.967   3.335  20.845  0.00  0.00    +0.000 OA
BRANCH  11  13
ATOM     13  C   UNL     1       2.151   5.483  20.316  0.00  0.00    +0.000 C 
ATOM     14  C   UNL     1       2.418   6.639  19.688  0.00  0.00    +0.000 C 
BRANCH  14  15
ATOM     15  C   UNL     1       1.719   7.837  20.024  0.00  0.00    +0.000 A 
ATOM     16  C   UNL     1       1.106   8.215  21.213  0.00  0.00    +0.000 A 
ATOM     17  C   UNL     1       0.509   9.497  21.134  0.00  0.00    +0.000 A 
ATOM     18 BR   UNL     1      -0.408  10.264  22.593  0.00  0.00    +0.000 Br
ATOM     19  C   UNL     1       0.672  10.095  19.913  0.00  0.00    +0.000 A 
ATOM     20  S   UNL     1       1.579   9.102  18.856  0.00  0.00    +0.000 S 
ENDBRANCH  14  15
ENDBRANCH  11  13
ENDBRANCH   5  11
TORSDOF 4
ENDMDL
MODEL 5
REMARK VINA RESULT:      -6.5      3.530      4.532
REMARK  Name = 
REMARK  5 active torsions:
REMARK  status: ('A' for Active; 'I' for Inactive)
REMARK    1  A    between atoms: C_1  and  C_2
REMARK    2  A    between atoms: C_4  and  O_5
REMARK    3  A    between atoms: C_6  and  C_7
REMARK    4  A    between atoms: C_7  and  C_9
REMARK    5  A    between atoms: C_10  and  C_11
REMARK                            x       y       z     vdW  Elec       q    Type
REMARK                         _______ _______ _______ _____ _____    ______ ____
ROOT
ATOM      1  C   UNL     1       8.167   8.962  18.234  0.00  0.00    +0.000 C 
ATOM      2  C   UNL     1       7.651   7.665  17.700  0.00  0.00    +0.000 A 
ATOM      3  C   UNL     1       8.087   6.457  18.063  0.00  0.00    +0.000 A 
ATOM      4  C   UNL     1       7.470   5.283  17.500  0.00  0.00    +0.000 A 
ATOM      5  C   UNL     1       6.490   5.364  16.576  0.00  0.00    +0.000 A 
ATOM      6  C   UNL     1       6.087   6.720  16.113  0.00  0.00    +0.000 A 
ATOM      7  O   UNL     1       5.282   6.891  15.202  0.00  0.00    +0.000 OA
ATOM      8  O   UNL     1       6.634   7.808  16.739  0.00  0.00    +0.000 OA
ENDROOT
BRANCH   4   9
ATOM      9  O   UNL     1       7.931   4.088  18.009  0.00  0.00    +0.000 OA
ATOM     10  H   UNL     1       7.454   3.851  18.819  0.00  0.00    +0.000 HD
ENDBRANCH   4   9
BRANCH   5  11
ATOM     11  C   UNL     1       5.877   4.120  15.997  0.00  0.00    +0.000 C 
ATOM     12  O   UNL     1       6.256   3.618  14.940  0.00  0.00    +0.000 OA
BRANCH  11  13
ATOM     13  C   UNL     1       4.750   3.497  16.750  0.00  0.00    +0.000 C 
ATOM     14  C   UNL     1       4.254   4.078  17.853  0.00  0.00    +0.000 C 
BRANCH  14  15
ATOM     15  C   UNL     1       3.234   3.443  18.624  0.00  0.00    +0.000 A 
ATOM     16  C   UNL     1       2.988   3.482  19.992  0.00  0.00    +0.000 A 
ATOM     17  C   UNL     1       1.868   2.700  20.366  0.00  0.00    +0.000 A 
ATOM     18 BR   UNL     1       1.306   2.554  22.160  0.00  0.00    +0.000 Br
ATOM     19  C   UNL     1       1.261   2.084  19.305  0.00  0.00    +0.000 A 
ATOM     20  S   UNL     1       2.041   2.475  17.834  0.00  0.00    +0.000 S 
ENDBRANCH  14  15
ENDBRANCH  11  13
ENDBRANCH   5  11
TORSDOF 4
ENDMDL
MODEL 6
REMARK VINA RESULT:      -6.5      1.595      1.845
REMARK  Name = 
REMARK  5 active torsions:
REMARK  status: ('A' for Active; 'I' for Inactive)
REMARK    1  A    between atoms: C_1  and  C_2
REMARK    2  A    between atoms: C_4  and  O_5
REMARK    3  A    between atoms: C_6  and  C_7
REMARK    4  A    between atoms: C_7  and  C_9
REMARK    5  A    between atoms: C_10  and  C_11
REMARK                            x       y       z     vdW  Elec       q    Type
REMARK                         _______ _______ _______ _____ _____    ______ ____
ROOT
ATOM      1  C   UNL     1       6.334   4.143  14.909  0.00  0.00    +0.000 C 
ATOM      2  C   UNL     1       5.597   4.196  16.207  0.00  0.00    +0.000 A 
ATOM      3  C   UNL     1       6.146   4.477  17.391  0.00  0.00    +0.000 A 
ATOM      4  C   UNL     1       5.309   4.537  18.563  0.00  0.00    +0.000 A 
ATOM      5  C   UNL     1       3.987   4.272  18.511  0.00  0.00    +0.000 A 
ATOM      6  C   UNL     1       3.414   3.866  17.199  0.00  0.00    +0.000 A 
ATOM      7  O   UNL     1       2.247   3.504  17.075  0.00  0.00    +0.000 OA
ATOM      8  O   UNL     1       4.224   3.909  16.096  0.00  0.00    +0.000 OA
ENDROOT
BRANCH   4   9
ATOM      9  O   UNL     1       5.958   4.923  19.715  0.00  0.00    +0.000 OA
ATOM     10  H   UNL     1       6.869   4.593  19.726  0.00  0.00    +0.000 HD
ENDBRANCH   4   9
BRANCH   5  11
ATOM     11  C   UNL     1       3.145   4.329  19.755  0.00  0.00    +0.000 C 
ATOM     12  O   UNL     1       3.143   3.437  20.601  0.00  0.00    +0.000 OA
BRANCH  11  13
ATOM     13  C   UNL     1       2.270   5.524  19.935  0.00  0.00    +0.000 C 
ATOM     14  C   UNL     1       2.668   6.738  19.524  0.00  0.00    +0.000 C 
BRANCH  14  15
ATOM     15  C   UNL     1       1.871   7.896  19.772  0.00  0.00    +0.000 A 
ATOM     16  C   UNL     1       1.517   8.940  18.923  0.00  0.00    +0.000 A 
ATOM     17  C   UNL     1       0.709   9.912  19.564  0.00  0.00    +0.000 A 
ATOM     18 BR   UNL     1       0.090  11.447  18.662  0.00  0.00    +0.000 Br
ATOM     19  C   UNL     1       0.440   9.612  20.873  0.00  0.00    +0.000 A 
ATOM     20  S   UNL     1       1.153   8.125  21.326  0.00  0.00    +0.000 S 
ENDBRANCH  14  15
ENDBRANCH  11  13
ENDBRANCH   5  11
TORSDOF 4
ENDMDL
MODEL 7
REMARK VINA RESULT:      -6.5      4.198      6.595
REMARK  Name = 
REMARK  5 active torsions:
REMARK  status: ('A' for Active; 'I' for Inactive)
REMARK    1  A    between atoms: C_1  and  C_2
REMARK    2  A    between atoms: C_4  and  O_5
REMARK    3  A    between atoms: C_6  and  C_7
REMARK    4  A    between atoms: C_7  and  C_9
REMARK    5  A    between atoms: C_10  and  C_11
REMARK                            x       y       z     vdW  Elec       q    Type
REMARK                         _______ _______ _______ _____ _____    ______ ____
ROOT
ATOM      1  C   UNL     1       0.795   4.014  20.335  0.00  0.00    +0.000 C 
ATOM      2  C   UNL     1       2.215   4.101  19.878  0.00  0.00    +0.000 A 
ATOM      3  C   UNL     1       3.134   3.147  20.040  0.00  0.00    +0.000 A 
ATOM      4  C   UNL     1       4.460   3.343  19.511  0.00  0.00    +0.000 A 
ATOM      5  C   UNL     1       4.820   4.487  18.893  0.00  0.00    +0.000 A 
ATOM      6  C   UNL     1       3.809   5.575  18.809  0.00  0.00    +0.000 A 
ATOM      7  O   UNL     1       4.076   6.687  18.361  0.00  0.00    +0.000 OA
ATOM      8  O   UNL     1       2.537   5.314  19.243  0.00  0.00    +0.000 OA
ENDROOT
BRANCH   4   9
ATOM      9  O   UNL     1       5.303   2.262  19.653  0.00  0.00    +0.000 OA
ATOM     10  H   UNL     1       6.219   2.510  19.452  0.00  0.00    +0.000 HD
ENDBRANCH   4   9
BRANCH   5  11
ATOM     11  C   UNL     1       6.217   4.666  18.366  0.00  0.00    +0.000 C 
ATOM     12  O   UNL     1       7.137   5.110  19.049  0.00  0.00    +0.000 OA
BRANCH  11  13
ATOM     13  C   UNL     1       6.463   4.296  16.942  0.00  0.00    +0.000 C 
ATOM     14  C   UNL     1       5.799   4.904  15.946  0.00  0.00    +0.000 C 
BRANCH  14  15
ATOM     15  C   UNL     1       5.969   4.494  14.589  0.00  0.00    +0.000 A 
ATOM     16  C   UNL     1       5.088   3.845  13.732  0.00  0.00    +0.000 A 
ATOM     17  C   UNL     1       5.649   3.609  12.452  0.00  0.00    +0.000 A 
ATOM     18 BR   UNL     1       4.690   2.732  11.087  0.00  0.00    +0.000 Br
ATOM     19  C   UNL     1       6.929   4.080  12.329  0.00  0.00    +0.000 A 
ATOM     20  S   UNL     1       7.451   4.838  13.771  0.00  0.00    +0.000 S 
ENDBRANCH  14  15
ENDBRANCH  11  13
ENDBRANCH   5  11
TORSDOF 4
ENDMDL
MODEL 8
REMARK VINA RESULT:      -6.4      5.073      6.197
REMARK  Name = 
REMARK  5 active torsions:
REMARK  status: ('A' for Active; 'I' for Inactive)
REMARK    1  A    between atoms: C_1  and  C_2
REMARK    2  A    between atoms: C_4  and  O_5
REMARK    3  A    between atoms: C_6  and  C_7
REMARK    4  A    between atoms: C_7  and  C_9
REMARK    5  A    between atoms: C_10  and  C_11
REMARK                            x       y       z     vdW  Elec       q    Type
REMARK                         _______ _______ _______ _____ _____    ______ ____
ROOT
ATOM      1  C   UNL     1       2.974   4.055  19.357  0.00  0.00    +0.000 C 
ATOM      2  C   UNL     1       4.105   4.828  18.762  0.00  0.00    +0.000 A 
ATOM      3  C   UNL     1       4.081   5.429  17.571  0.00  0.00    +0.000 A 
ATOM      4  C   UNL     1       5.230   6.181  17.134  0.00  0.00    +0.000 A 
ATOM      5  C   UNL     1       6.356   6.261  17.874  0.00  0.00    +0.000 A 
ATOM      6  C   UNL     1       6.396   5.503  19.155  0.00  0.00    +0.000 A 
ATOM      7  O   UNL     1       7.410   5.428  19.842  0.00  0.00    +0.000 OA
ATOM      8  O   UNL     1       5.253   4.876  19.574  0.00  0.00    +0.000 OA
ENDROOT
BRANCH   4   9
ATOM      9  O   UNL     1       5.068   6.836  15.933  0.00  0.00    +0.000 OA
ATOM     10  H   UNL     1       5.363   7.758  15.999  0.00  0.00    +0.000 HD
ENDBRANCH   4   9
BRANCH   5  11
ATOM     11  C   UNL     1       7.543   7.041  17.383  0.00  0.00    +0.000 C 
ATOM     12  O   UNL     1       8.100   6.806  16.313  0.00  0.00    +0.000 OA
BRANCH  11  13
ATOM     13  C   UNL     1       8.056   8.132  18.262  0.00  0.00    +0.000 C 
ATOM     14  C   UNL     1       8.401   9.324  17.752  0.00  0.00    +0.000 C 
BRANCH  14  15
ATOM     15  C   UNL     1       8.973  10.340  18.576  0.00  0.00    +0.000 A 
ATOM     16  C   UNL     1       8.680  10.702  19.886  0.00  0.00    +0.000 A 
ATOM     17  C   UNL     1       9.479  11.779  20.344  0.00  0.00    +0.000 A 
ATOM     18 BR   UNL     1       9.293  12.493  22.080  0.00  0.00    +0.000 Br
ATOM     19  C   UNL     1      10.374  12.224  19.409  0.00  0.00    +0.000 A 
ATOM     20  S   UNL     1      10.263  11.313  17.965  0.00  0.00    +0.000 S 
ENDBRANCH  14  15
ENDBRANCH  11  13
ENDBRANCH   5  11
TORSDOF 4
ENDMDL
MODEL 9
REMARK VINA RESULT:      -6.3      5.185      6.296
REMARK  Name = 
REMARK  5 active torsions:
REMARK  status: ('A' for Active; 'I' for Inactive)
REMARK    1  A    between atoms: C_1  and  C_2
REMARK    2  A    between atoms: C_4  and  O_5
REMARK    3  A    between atoms: C_6  and  C_7
REMARK    4  A    between atoms: C_7  and  C_9
REMARK    5  A    between atoms: C_10  and  C_11
REMARK                            x       y       z     vdW  Elec       q    Type
REMARK                         _______ _______ _______ _____ _____    ______ ____
ROOT
ATOM      1  C   UNL     1       3.611   3.610  19.841  0.00  0.00    +0.000 C 
ATOM      2  C   UNL     1       4.521   4.534  19.099  0.00  0.00    +0.000 A 
ATOM      3  C   UNL     1       4.220   5.154  17.957  0.00  0.00    +0.000 A 
ATOM      4  C   UNL     1       5.176   6.056  17.367  0.00  0.00    +0.000 A 
ATOM      5  C   UNL     1       6.395   6.261  17.911  0.00  0.00    +0.000 A 
ATOM      6  C   UNL     1       6.746   5.485  19.131  0.00  0.00    +0.000 A 
ATOM      7  O   UNL     1       7.865   5.525  19.635  0.00  0.00    +0.000 OA
ATOM      8  O   UNL     1       5.776   4.709  19.708  0.00  0.00    +0.000 OA
ENDROOT
BRANCH   4   9
ATOM      9  O   UNL     1       4.732   6.712  16.240  0.00  0.00    +0.000 OA
ATOM     10  H   UNL     1       5.458   7.191  15.810  0.00  0.00    +0.000 HD
ENDBRANCH   4   9
BRANCH   5  11
ATOM     11  C   UNL     1       7.376   7.197  17.262  0.00  0.00    +0.000 C 
ATOM     12  O   UNL     1       8.028   6.895  16.265  0.00  0.00    +0.000 OA
BRANCH  11  13
ATOM     13  C   UNL     1       7.559   8.538  17.889  0.00  0.00    +0.000 C 
ATOM     14  C   UNL     1       8.647   9.279  17.628  0.00  0.00    +0.000 C 
BRANCH  14  15
ATOM     15  C   UNL     1       8.867  10.524  18.291  0.00  0.00    +0.000 A 
ATOM     16  C   UNL     1       8.687  11.826  17.837  0.00  0.00    +0.000 A 
ATOM     17  C   UNL     1       9.029  12.794  18.813  0.00  0.00    +0.000 A 
ATOM     18 BR   UNL     1       8.898  14.644  18.473  0.00  0.00    +0.000 Br
ATOM     19  C   UNL     1       9.451  12.245  19.994  0.00  0.00    +0.000 A 
ATOM     20  S   UNL     1       9.410  10.536  19.931  0.00  0.00    +0.000 S 
ENDBRANCH  14  15
ENDBRANCH  11  13
ENDBRANCH   5  11
TORSDOF 4
ENDMDL
