MODEL 1
REMARK VINA RESULT:      -8.5      0.000      0.000
REMARK  Name = 
REMARK  9 active torsions:
REMARK  status: ('A' for Active; 'I' for Inactive)
REMARK    1  A    between atoms: C_1  and  C_2
REMARK    2  A    between atoms: C_2  and  N_3
REMARK    3  A    between atoms: C_9  and  C_10
REMARK    4  A    between atoms: C_13  and  N_14
REMARK    5  A    between atoms: C_15  and  C_17
REMARK    6  A    between atoms: C_20  and  C_21
REMARK    7  A    between atoms: C_21  and  C_22
REMARK    8  A    between atoms: C_21  and  C_23
REMARK    9  A    between atoms: C_21  and  C_24
REMARK                            x       y       z     vdW  Elec       q    Type
REMARK                         _______ _______ _______ _____ _____    ______ ____
ROOT
ATOM      1  N   UNL     1      -4.553  15.777  23.087  0.00  0.00    +0.000 NA
ATOM      2  C   UNL     1      -3.297  15.334  23.740  0.00  0.00    +0.000 C 
ATOM      3  C   UNL     1      -3.128  13.803  23.840  0.00  0.00    +0.000 C 
ATOM      4  N   UNL     1      -3.277  13.190  22.522  0.00  0.00    +0.000 N 
ATOM      5  C   UNL     1      -2.354  12.292  22.037  0.00  0.00    +0.000 A 
ATOM      6  C   UNL     1      -1.684  11.448  22.917  0.00  0.00    +0.000 A 
ATOM      7  C   UNL     1      -0.716  10.564  22.465  0.00  0.00    +0.000 A 
ATOM      8  C   UNL     1      -0.029   9.661  23.451  0.00  0.00    +0.000 C 
ATOM      9  C   UNL     1      -0.434  10.550  21.092  0.00  0.00    +0.000 A 
ATOM     10  C   UNL     1       0.524   9.681  20.553  0.00  0.00    +0.000 A 
ATOM     11  C   UNL     1       0.791   9.637  19.192  0.00  0.00    +0.000 A 
ATOM     12  C   UNL     1       0.142  10.538  18.356  0.00  0.00    +0.000 A 
ATOM     13  C   UNL     1      -0.825  11.408  18.888  0.00  0.00    +0.000 A 
ATOM     14  C   UNL     1      -1.143  11.422  20.246  0.00  0.00    +0.000 A 
ATOM     15  N   UNL     1      -2.093  12.259  20.712  0.00  0.00    +0.000 NA
ATOM     16  C   UNL     1      -4.429  13.593  21.718  0.00  0.00    +0.000 C 
ATOM     17  C   UNL     1      -4.628  15.127  21.755  0.00  0.00    +0.000 C 
ENDROOT
BRANCH  11  18
ATOM     18  N   UNL     1       1.708   8.714  18.646  0.00  0.00    +0.000 N 
ATOM     19  C   UNL     1       2.190   7.600  19.319  0.00  0.00    +0.000 C 
ATOM     20  O   UNL     1       1.838   7.211  20.425  0.00  0.00    +0.000 OA
ATOM     21  H   UNL     1       1.986   8.868  17.689  0.00  0.00    +0.000 HD
BRANCH  19  22
ATOM     22  C   UNL     1       3.234   6.807  18.629  0.00  0.00    +0.000 A 
ATOM     23  C   UNL     1       3.682   7.299  17.403  0.00  0.00    +0.000 A 
ATOM     24  C   UNL     1       4.682   6.635  16.698  0.00  0.00    +0.000 A 
ATOM     25  C   UNL     1       5.270   5.464  17.202  0.00  0.00    +0.000 A 
ATOM     26  C   UNL     1       4.802   4.979  18.441  0.00  0.00    +0.000 A 
ATOM     27  C   UNL     1       3.799   5.647  19.156  0.00  0.00    +0.000 A 
BRANCH  25  28
ATOM     28  C   UNL     1       6.415   4.754  16.459  0.00  0.00    +0.000 C 
ATOM     29  C   UNL     1       6.998   5.604  15.307  0.00  0.00    +0.000 C 
ATOM     30  C   UNL     1       7.562   4.457  17.448  0.00  0.00    +0.000 C 
ATOM     31  C   UNL     1       5.922   3.428  15.847  0.00  0.00    +0.000 C 
ENDBRANCH  25  28
ENDBRANCH  19  22
ENDBRANCH  11  18
BRANCH   1  33
ATOM     32  C   UNL     1      -7.001  16.181  23.563  0.00  0.00    +0.000 C 
ATOM     33  C   UNL     1      -5.693  15.520  23.977  0.00  0.00    +0.000 C 
ENDBRANCH   1  33
TORSDOF 4
ENDMDL
MODEL 2
REMARK VINA RESULT:      -8.3      0.974      2.237
REMARK  Name = 
REMARK  9 active torsions:
REMARK  status: ('A' for Active; 'I' for Inactive)
REMARK    1  A    between atoms: C_1  and  C_2
REMARK    2  A    between atoms: C_2  and  N_3
REMARK    3  A    between atoms: C_9  and  C_10
REMARK    4  A    between atoms: C_13  and  N_14
REMARK    5  A    between atoms: C_15  and  C_17
REMARK    6  A    between atoms: C_20  and  C_21
REMARK    7  A    between atoms: C_21  and  C_22
REMARK    8  A    between atoms: C_21  and  C_23
REMARK    9  A    between atoms: C_21  and  C_24
REMARK                            x       y       z     vdW  Elec       q    Type
REMARK                         _______ _______ _______ _____ _____    ______ ____
ROOT
ATOM      1  N   UNL     1      -5.022  14.419  24.194  0.00  0.00    +0.000 NA
ATOM      2  C   UNL     1      -5.436  13.612  23.022  0.00  0.00    +0.000 C 
ATOM      3  C   UNL     1      -4.551  13.790  21.770  0.00  0.00    +0.000 C 
ATOM      4  N   UNL     1      -3.149  13.550  22.103  0.00  0.00    +0.000 N 
ATOM      5  C   UNL     1      -2.366  12.703  21.350  0.00  0.00    +0.000 A 
ATOM      6  C   UNL     1      -2.591  12.590  19.983  0.00  0.00    +0.000 A 
ATOM      7  C   UNL     1      -1.849  11.712  19.206  0.00  0.00    +0.000 A 
ATOM      8  C   UNL     1      -2.117  11.634  17.729  0.00  0.00    +0.000 C 
ATOM      9  C   UNL     1      -0.865  10.944  19.845  0.00  0.00    +0.000 A 
ATOM     10  C   UNL     1      -0.067  10.041  19.131  0.00  0.00    +0.000 A 
ATOM     11  C   UNL     1       0.929   9.296  19.748  0.00  0.00    +0.000 A 
ATOM     12  C   UNL     1       1.080   9.398  21.125  0.00  0.00    +0.000 A 
ATOM     13  C   UNL     1       0.288  10.306  21.848  0.00  0.00    +0.000 A 
ATOM     14  C   UNL     1      -0.678  11.102  21.230  0.00  0.00    +0.000 A 
ATOM     15  N   UNL     1      -1.403  11.976  21.957  0.00  0.00    +0.000 NA
ATOM     16  C   UNL     1      -2.614  14.215  23.289  0.00  0.00    +0.000 C 
ATOM     17  C   UNL     1      -3.598  14.114  24.478  0.00  0.00    +0.000 C 
ENDROOT
BRANCH  11  18
ATOM     18  N   UNL     1       1.774   8.438  19.013  0.00  0.00    +0.000 N 
ATOM     19  C   UNL     1       2.168   7.176  19.437  0.00  0.00    +0.000 C 
ATOM     20  O   UNL     1       1.784   6.596  20.444  0.00  0.00    +0.000 OA
ATOM     21  H   UNL     1       2.065   8.764  18.105  0.00  0.00    +0.000 HD
BRANCH  19  22
ATOM     22  C   UNL     1       3.150   6.466  18.586  0.00  0.00    +0.000 A 
ATOM     23  C   UNL     1       3.819   7.233  17.632  0.00  0.00    +0.000 A 
ATOM     24  C   UNL     1       4.780   6.655  16.808  0.00  0.00    +0.000 A 
ATOM     25  C   UNL     1       5.109   5.295  16.920  0.00  0.00    +0.000 A 
ATOM     26  C   UNL     1       4.420   4.533  17.887  0.00  0.00    +0.000 A 
ATOM     27  C   UNL     1       3.455   5.112  18.721  0.00  0.00    +0.000 A 
BRANCH  25  28
ATOM     28  C   UNL     1       6.210   4.658  16.053  0.00  0.00    +0.000 C 
ATOM     29  C   UNL     1       5.824   3.254  15.534  0.00  0.00    +0.000 C 
ATOM     30  C   UNL     1       6.478   5.553  14.826  0.00  0.00    +0.000 C 
ATOM     31  C   UNL     1       7.514   4.506  16.861  0.00  0.00    +0.000 C 
ENDBRANCH  25  28
ENDBRANCH  19  22
ENDBRANCH  11  18
BRANCH   1  33
ATOM     32  C   UNL     1      -4.625  16.817  24.885  0.00  0.00    +0.000 C 
ATOM     33  C   UNL     1      -5.324  15.836  23.953  0.00  0.00    +0.000 C 
ENDBRANCH   1  33
TORSDOF 4
ENDMDL
MODEL 3
REMARK VINA RESULT:      -7.9      0.732      1.338
REMARK  Name = 
REMARK  9 active torsions:
REMARK  status: ('A' for Active; 'I' for Inactive)
REMARK    1  A    between atoms: C_1  and  C_2
REMARK    2  A    between atoms: C_2  and  N_3
REMARK    3  A    between atoms: C_9  and  C_10
REMARK    4  A    between atoms: C_13  and  N_14
REMARK    5  A    between atoms: C_15  and  C_17
REMARK    6  A    between atoms: C_20  and  C_21
REMARK    7  A    between atoms: C_21  and  C_22
REMARK    8  A    between atoms: C_21  and  C_23
REMARK    9  A    between atoms: C_21  and  C_24
REMARK                            x       y       z     vdW  Elec       q    Type
REMARK                         _______ _______ _______ _____ _____    ______ ____
ROOT
ATOM      1  N   UNL     1      -3.862  16.168  23.478  0.00  0.00    +0.000 NA
ATOM      2  C   UNL     1      -2.686  15.515  24.105  0.00  0.00    +0.000 C 
ATOM      3  C   UNL     1      -2.695  13.973  24.043  0.00  0.00    +0.000 C 
ATOM      4  N   UNL     1      -2.872  13.523  22.665  0.00  0.00    +0.000 N 
ATOM      5  C   UNL     1      -2.042  12.578  22.105  0.00  0.00    +0.000 A 
ATOM      6  C   UNL     1      -1.501  11.575  22.902  0.00  0.00    +0.000 A 
ATOM      7  C   UNL     1      -0.626  10.636  22.377  0.00  0.00    +0.000 A 
ATOM      8  C   UNL     1      -0.078   9.561  23.273  0.00  0.00    +0.000 C 
ATOM      9  C   UNL     1      -0.304  10.732  21.015  0.00  0.00    +0.000 A 
ATOM     10  C   UNL     1       0.565   9.818  20.406  0.00  0.00    +0.000 A 
ATOM     11  C   UNL     1       0.869   9.886  19.052  0.00  0.00    +0.000 A 
ATOM     12  C   UNL     1       0.353  10.938  18.306  0.00  0.00    +0.000 A 
ATOM     13  C   UNL     1      -0.525  11.855  18.909  0.00  0.00    +0.000 A 
ATOM     14  C   UNL     1      -0.882  11.764  20.255  0.00  0.00    +0.000 A 
ATOM     15  N   UNL     1      -1.745  12.653  20.789  0.00  0.00    +0.000 NA
ATOM     16  C   UNL     1      -3.945  14.138  21.887  0.00  0.00    +0.000 C 
ATOM     17  C   UNL     1      -3.969  15.673  22.084  0.00  0.00    +0.000 C 
ENDROOT
BRANCH  11  18
ATOM     18  N   UNL     1       1.691   8.924  18.429  0.00  0.00    +0.000 N 
ATOM     19  C   UNL     1       2.163   7.777  19.052  0.00  0.00    +0.000 C 
ATOM     20  O   UNL     1       1.877   7.391  20.178  0.00  0.00    +0.000 OA
ATOM     21  H   UNL     1       1.903   9.077  17.456  0.00  0.00    +0.000 HD
BRANCH  19  22
ATOM     22  C   UNL     1       3.108   6.940  18.276  0.00  0.00    +0.000 A 
ATOM     23  C   UNL     1       2.849   5.569  18.248  0.00  0.00    +0.000 A 
ATOM     24  C   UNL     1       3.667   4.711  17.520  0.00  0.00    +0.000 A 
ATOM     25  C   UNL     1       4.763   5.197  16.790  0.00  0.00    +0.000 A 
ATOM     26  C   UNL     1       5.012   6.585  16.832  0.00  0.00    +0.000 A 
ATOM     27  C   UNL     1       4.189   7.453  17.561  0.00  0.00    +0.000 A 
BRANCH  25  28
ATOM     28  C   UNL     1       5.640   4.265  15.936  0.00  0.00    +0.000 C 
ATOM     29  C   UNL     1       5.370   2.769  16.215  0.00  0.00    +0.000 C 
ATOM     30  C   UNL     1       5.357   4.520  14.441  0.00  0.00    +0.000 C 
ATOM     31  C   UNL     1       7.134   4.521  16.216  0.00  0.00    +0.000 C 
ENDBRANCH  25  28
ENDBRANCH  19  22
ENDBRANCH  11  18
BRANCH   1  33
ATOM     32  C   UNL     1      -6.347  16.529  23.756  0.00  0.00    +0.000 C 
ATOM     33  C   UNL     1      -5.051  15.954  24.314  0.00  0.00    +0.000 C 
ENDBRANCH   1  33
TORSDOF 4
ENDMDL
MODEL 4
REMARK VINA RESULT:      -7.9      1.389      2.459
REMARK  Name = 
REMARK  9 active torsions:
REMARK  status: ('A' for Active; 'I' for Inactive)
REMARK    1  A    between atoms: C_1  and  C_2
REMARK    2  A    between atoms: C_2  and  N_3
REMARK    3  A    between atoms: C_9  and  C_10
REMARK    4  A    between atoms: C_13  and  N_14
REMARK    5  A    between atoms: C_15  and  C_17
REMARK    6  A    between atoms: C_20  and  C_21
REMARK    7  A    between atoms: C_21  and  C_22
REMARK    8  A    between atoms: C_21  and  C_23
REMARK    9  A    between atoms: C_21  and  C_24
REMARK                            x       y       z     vdW  Elec       q    Type
REMARK                         _______ _______ _______ _____ _____    ______ ____
ROOT
ATOM      1  N   UNL     1      -6.012  15.625  23.762  0.00  0.00    +0.000 NA
ATOM      2  C   UNL     1      -6.358  14.627  22.722  0.00  0.00    +0.000 C 
ATOM      3  C   UNL     1      -5.386  14.579  21.524  0.00  0.00    +0.000 C 
ATOM      4  N   UNL     1      -4.015  14.393  21.993  0.00  0.00    +0.000 N 
ATOM      5  C   UNL     1      -3.197  13.424  21.457  0.00  0.00    +0.000 A 
ATOM      6  C   UNL     1      -3.328  13.074  20.118  0.00  0.00    +0.000 A 
ATOM      7  C   UNL     1      -2.549  12.070  19.561  0.00  0.00    +0.000 A 
ATOM      8  C   UNL     1      -2.716  11.735  18.105  0.00  0.00    +0.000 C 
ATOM      9  C   UNL     1      -1.626  11.421  20.393  0.00  0.00    +0.000 A 
ATOM     10  C   UNL     1      -0.796  10.403  19.906  0.00  0.00    +0.000 A 
ATOM     11  C   UNL     1       0.142   9.773  20.713  0.00  0.00    +0.000 A 
ATOM     12  C   UNL     1       0.200  10.114  22.058  0.00  0.00    +0.000 A 
ATOM     13  C   UNL     1      -0.625  11.139  22.553  0.00  0.00    +0.000 A 
ATOM     14  C   UNL     1      -1.532  11.818  21.739  0.00  0.00    +0.000 A 
ATOM     15  N   UNL     1      -2.290  12.810  22.249  0.00  0.00    +0.000 NA
ATOM     16  C   UNL     1      -3.551  15.254  23.079  0.00  0.00    +0.000 C 
ATOM     17  C   UNL     1      -4.617  15.368  24.196  0.00  0.00    +0.000 C 
ENDROOT
BRANCH  11  18
ATOM     18  N   UNL     1       1.022   8.795  20.201  0.00  0.00    +0.000 N 
ATOM     19  C   UNL     1       1.667   8.888  18.976  0.00  0.00    +0.000 C 
ATOM     20  O   UNL     1       1.641   9.844  18.212  0.00  0.00    +0.000 OA
ATOM     21  H   UNL     1       1.213   8.007  20.799  0.00  0.00    +0.000 HD
BRANCH  19  22
ATOM     22  C   UNL     1       2.463   7.713  18.554  0.00  0.00    +0.000 A 
ATOM     23  C   UNL     1       3.359   7.911  17.502  0.00  0.00    +0.000 A 
ATOM     24  C   UNL     1       4.169   6.870  17.059  0.00  0.00    +0.000 A 
ATOM     25  C   UNL     1       4.116   5.602  17.659  0.00  0.00    +0.000 A 
ATOM     26  C   UNL     1       3.203   5.418  18.719  0.00  0.00    +0.000 A 
ATOM     27  C   UNL     1       2.388   6.465  19.171  0.00  0.00    +0.000 A 
BRANCH  25  28
ATOM     28  C   UNL     1       5.048   4.461  17.215  0.00  0.00    +0.000 C 
ATOM     29  C   UNL     1       5.358   4.498  15.700  0.00  0.00    +0.000 C 
ATOM     30  C   UNL     1       6.389   4.570  17.969  0.00  0.00    +0.000 C 
ATOM     31  C   UNL     1       4.408   3.092  17.518  0.00  0.00    +0.000 C 
ENDBRANCH  25  28
ENDBRANCH  19  22
ENDBRANCH  11  18
BRANCH   1  33
ATOM     32  C   UNL     1      -7.734  17.295  22.968  0.00  0.00    +0.000 C 
ATOM     33  C   UNL     1      -6.272  16.980  23.256  0.00  0.00    +0.000 C 
ENDBRANCH   1  33
TORSDOF 4
ENDMDL
MODEL 5
REMARK VINA RESULT:      -7.9      2.455     11.873
REMARK  Name = 
REMARK  9 active torsions:
REMARK  status: ('A' for Active; 'I' for Inactive)
REMARK    1  A    between atoms: C_1  and  C_2
REMARK    2  A    between atoms: C_2  and  N_3
REMARK    3  A    between atoms: C_9  and  C_10
REMARK    4  A    between atoms: C_13  and  N_14
REMARK    5  A    between atoms: C_15  and  C_17
REMARK    6  A    between atoms: C_20  and  C_21
REMARK    7  A    between atoms: C_21  and  C_22
REMARK    8  A    between atoms: C_21  and  C_23
REMARK    9  A    between atoms: C_21  and  C_24
REMARK                            x       y       z     vdW  Elec       q    Type
REMARK                         _______ _______ _______ _____ _____    ______ ____
ROOT
ATOM      1  N   UNL     1       4.244   3.717  19.485  0.00  0.00    +0.000 NA
ATOM      2  C   UNL     1       4.742   5.072  19.144  0.00  0.00    +0.000 C 
ATOM      3  C   UNL     1       3.695   5.999  18.491  0.00  0.00    +0.000 C 
ATOM      4  N   UNL     1       2.497   6.074  19.323  0.00  0.00    +0.000 N 
ATOM      5  C   UNL     1       1.935   7.283  19.667  0.00  0.00    +0.000 A 
ATOM      6  C   UNL     1       2.009   8.354  18.784  0.00  0.00    +0.000 A 
ATOM      7  C   UNL     1       1.493   9.597  19.120  0.00  0.00    +0.000 A 
ATOM      8  C   UNL     1       1.582  10.722  18.127  0.00  0.00    +0.000 C 
ATOM      9  C   UNL     1       0.895   9.737  20.380  0.00  0.00    +0.000 A 
ATOM     10  C   UNL     1       0.342  10.957  20.793  0.00  0.00    +0.000 A 
ATOM     11  C   UNL     1      -0.278  11.100  22.027  0.00  0.00    +0.000 A 
ATOM     12  C   UNL     1      -0.278  10.021  22.902  0.00  0.00    +0.000 A 
ATOM     13  C   UNL     1       0.268   8.792  22.493  0.00  0.00    +0.000 A 
ATOM     14  C   UNL     1       0.844   8.620  21.233  0.00  0.00    +0.000 A 
ATOM     15  N   UNL     1       1.339   7.419  20.872  0.00  0.00    +0.000 NA
ATOM     16  C   UNL     1       1.932   4.817  19.809  0.00  0.00    +0.000 C 
ATOM     17  C   UNL     1       3.040   3.874  20.337  0.00  0.00    +0.000 C 
ENDROOT
BRANCH  11  18
ATOM     18  N   UNL     1      -0.892  12.311  22.411  0.00  0.00    +0.000 N 
ATOM     19  C   UNL     1      -2.110  12.396  23.071  0.00  0.00    +0.000 C 
ATOM     20  O   UNL     1      -2.778  11.458  23.486  0.00  0.00    +0.000 OA
ATOM     21  H   UNL     1      -0.376  13.156  22.223  0.00  0.00    +0.000 HD
BRANCH  19  22
ATOM     22  C   UNL     1      -2.653  13.756  23.292  0.00  0.00    +0.000 A 
ATOM     23  C   UNL     1      -3.125  14.039  24.574  0.00  0.00    +0.000 A 
ATOM     24  C   UNL     1      -3.626  15.300  24.880  0.00  0.00    +0.000 A 
ATOM     25  C   UNL     1      -3.661  16.321  23.917  0.00  0.00    +0.000 A 
ATOM     26  C   UNL     1      -3.183  16.017  22.625  0.00  0.00    +0.000 A 
ATOM     27  C   UNL     1      -2.675  14.749  22.314  0.00  0.00    +0.000 A 
BRANCH  25  28
ATOM     28  C   UNL     1      -4.160  17.736  24.259  0.00  0.00    +0.000 C 
ATOM     29  C   UNL     1      -5.601  17.742  24.821  0.00  0.00    +0.000 C 
ATOM     30  C   UNL     1      -3.239  18.360  25.328  0.00  0.00    +0.000 C 
ATOM     31  C   UNL     1      -4.154  18.631  23.004  0.00  0.00    +0.000 C 
ENDBRANCH  25  28
ENDBRANCH  19  22
ENDBRANCH  11  18
BRANCH   1  33
ATOM     32  C   UNL     1       3.265   1.641  18.428  0.00  0.00    +0.000 C 
ATOM     33  C   UNL     1       4.045   2.937  18.255  0.00  0.00    +0.000 C 
ENDBRANCH   1  33
TORSDOF 4
ENDMDL
MODEL 6
REMARK VINA RESULT:      -7.9      1.461      2.640
REMARK  Name = 
REMARK  9 active torsions:
REMARK  status: ('A' for Active; 'I' for Inactive)
REMARK    1  A    between atoms: C_1  and  C_2
REMARK    2  A    between atoms: C_2  and  N_3
REMARK    3  A    between atoms: C_9  and  C_10
REMARK    4  A    between atoms: C_13  and  N_14
REMARK    5  A    between atoms: C_15  and  C_17
REMARK    6  A    between atoms: C_20  and  C_21
REMARK    7  A    between atoms: C_21  and  C_22
REMARK    8  A    between atoms: C_21  and  C_23
REMARK    9  A    between atoms: C_21  and  C_24
REMARK                            x       y       z     vdW  Elec       q    Type
REMARK                         _______ _______ _______ _____ _____    ______ ____
ROOT
ATOM      1  N   UNL     1      -6.056  14.919  23.384  0.00  0.00    +0.000 NA
ATOM      2  C   UNL     1      -6.338  13.920  22.324  0.00  0.00    +0.000 C 
ATOM      3  C   UNL     1      -5.376  13.970  21.118  0.00  0.00    +0.000 C 
ATOM      4  N   UNL     1      -3.991  13.877  21.571  0.00  0.00    +0.000 N 
ATOM      5  C   UNL     1      -3.108  12.984  21.008  0.00  0.00    +0.000 A 
ATOM      6  C   UNL     1      -3.226  12.653  19.662  0.00  0.00    +0.000 A 
ATOM      7  C   UNL     1      -2.380  11.723  19.077  0.00  0.00    +0.000 A 
ATOM      8  C   UNL     1      -2.536  11.408  17.615  0.00  0.00    +0.000 C 
ATOM      9  C   UNL     1      -1.403  11.126  19.886  0.00  0.00    +0.000 A 
ATOM     10  C   UNL     1      -0.505  10.183  19.370  0.00  0.00    +0.000 A 
ATOM     11  C   UNL     1       0.485   9.607  20.155  0.00  0.00    +0.000 A 
ATOM     12  C   UNL     1       0.530   9.922  21.507  0.00  0.00    +0.000 A 
ATOM     13  C   UNL     1      -0.363  10.872  22.031  0.00  0.00    +0.000 A 
ATOM     14  C   UNL     1      -1.326  11.500  21.240  0.00  0.00    +0.000 A 
ATOM     15  N   UNL     1      -2.151  12.422  21.778  0.00  0.00    +0.000 NA
ATOM     16  C   UNL     1      -3.582  14.746  22.673  0.00  0.00    +0.000 C 
ATOM     17  C   UNL     1      -4.642  14.756  23.800  0.00  0.00    +0.000 C 
ENDROOT
BRANCH  11  18
ATOM     18  N   UNL     1       1.429   8.709  19.614  0.00  0.00    +0.000 N 
ATOM     19  C   UNL     1       2.042   8.868  18.379  0.00  0.00    +0.000 C 
ATOM     20  O   UNL     1       1.926   9.828  17.628  0.00  0.00    +0.000 OA
ATOM     21  H   UNL     1       1.694   7.931  20.198  0.00  0.00    +0.000 HD
BRANCH  19  22
ATOM     22  C   UNL     1       2.921   7.765  17.927  0.00  0.00    +0.000 A 
ATOM     23  C   UNL     1       2.569   6.478  18.337  0.00  0.00    +0.000 A 
ATOM     24  C   UNL     1       3.321   5.378  17.935  0.00  0.00    +0.000 A 
ATOM     25  C   UNL     1       4.442   5.530  17.103  0.00  0.00    +0.000 A 
ATOM     26  C   UNL     1       4.786   6.837  16.702  0.00  0.00    +0.000 A 
ATOM     27  C   UNL     1       4.029   7.947  17.101  0.00  0.00    +0.000 A 
BRANCH  25  28
ATOM     28  C   UNL     1       5.246   4.315  16.607  0.00  0.00    +0.000 C 
ATOM     29  C   UNL     1       4.640   2.969  17.066  0.00  0.00    +0.000 C 
ATOM     30  C   UNL     1       5.274   4.314  15.064  0.00  0.00    +0.000 C 
ATOM     31  C   UNL     1       6.693   4.371  17.136  0.00  0.00    +0.000 C 
ENDBRANCH  25  28
ENDBRANCH  19  22
ENDBRANCH  11  18
BRANCH   1  33
ATOM     32  C   UNL     1      -6.145  17.392  23.891  0.00  0.00    +0.000 C 
ATOM     33  C   UNL     1      -6.421  16.261  22.910  0.00  0.00    +0.000 C 
ENDBRANCH   1  33
TORSDOF 4
ENDMDL
MODEL 7
REMARK VINA RESULT:      -7.9      1.225      2.358
REMARK  Name = 
REMARK  9 active torsions:
REMARK  status: ('A' for Active; 'I' for Inactive)
REMARK    1  A    between atoms: C_1  and  C_2
REMARK    2  A    between atoms: C_2  and  N_3
REMARK    3  A    between atoms: C_9  and  C_10
REMARK    4  A    between atoms: C_13  and  N_14
REMARK    5  A    between atoms: C_15  and  C_17
REMARK    6  A    between atoms: C_20  and  C_21
REMARK    7  A    between atoms: C_21  and  C_22
REMARK    8  A    between atoms: C_21  and  C_23
REMARK    9  A    between atoms: C_21  and  C_24
REMARK                            x       y       z     vdW  Elec       q    Type
REMARK                         _______ _______ _______ _____ _____    ______ ____
ROOT
ATOM      1  N   UNL     1      -5.320  14.925  23.131  0.00  0.00    +0.000 NA
ATOM      2  C   UNL     1      -5.756  13.762  22.321  0.00  0.00    +0.000 C 
ATOM      3  C   UNL     1      -5.133  13.688  20.911  0.00  0.00    +0.000 C 
ATOM      4  N   UNL     1      -3.676  13.749  20.998  0.00  0.00    +0.000 N 
ATOM      5  C   UNL     1      -2.878  12.835  20.347  0.00  0.00    +0.000 A 
ATOM      6  C   UNL     1      -3.292  12.299  19.133  0.00  0.00    +0.000 A 
ATOM      7  C   UNL     1      -2.532  11.343  18.476  0.00  0.00    +0.000 A 
ATOM      8  C   UNL     1      -3.013  10.802  17.158  0.00  0.00    +0.000 C 
ATOM      9  C   UNL     1      -1.332  10.936  19.076  0.00  0.00    +0.000 A 
ATOM     10  C   UNL     1      -0.502   9.982  18.472  0.00  0.00    +0.000 A 
ATOM     11  C   UNL     1       0.703   9.592  19.043  0.00  0.00    +0.000 A 
ATOM     12  C   UNL     1       1.050  10.110  20.284  0.00  0.00    +0.000 A 
ATOM     13  C   UNL     1       0.226  11.073  20.892  0.00  0.00    +0.000 A 
ATOM     14  C   UNL     1      -0.959  11.514  20.302  0.00  0.00    +0.000 A 
ATOM     15  N   UNL     1      -1.710  12.455  20.910  0.00  0.00    +0.000 NA
ATOM     16  C   UNL     1      -3.093  14.797  21.833  0.00  0.00    +0.000 C 
ATOM     17  C   UNL     1      -3.837  14.913  23.185  0.00  0.00    +0.000 C 
ENDROOT
BRANCH  11  18
ATOM     18  N   UNL     1       1.567   8.681  18.398  0.00  0.00    +0.000 N 
ATOM     19  C   UNL     1       2.086   7.541  18.994  0.00  0.00    +0.000 C 
ATOM     20  O   UNL     1       1.814   7.116  20.110  0.00  0.00    +0.000 OA
ATOM     21  H   UNL     1       1.773   8.867  17.429  0.00  0.00    +0.000 HD
BRANCH  19  22
ATOM     22  C   UNL     1       3.066   6.764  18.201  0.00  0.00    +0.000 A 
ATOM     23  C   UNL     1       4.059   7.496  17.548  0.00  0.00    +0.000 A 
ATOM     24  C   UNL     1       5.039   6.847  16.804  0.00  0.00    +0.000 A 
ATOM     25  C   UNL     1       5.064   5.447  16.698  0.00  0.00    +0.000 A 
ATOM     26  C   UNL     1       4.051   4.724  17.362  0.00  0.00    +0.000 A 
ATOM     27  C   UNL     1       3.064   5.373  18.115  0.00  0.00    +0.000 A 
BRANCH  25  28
ATOM     28  C   UNL     1       6.176   4.717  15.925  0.00  0.00    +0.000 C 
ATOM     29  C   UNL     1       5.729   3.334  15.398  0.00  0.00    +0.000 C 
ATOM     30  C   UNL     1       6.599   5.566  14.708  0.00  0.00    +0.000 C 
ATOM     31  C   UNL     1       7.403   4.487  16.830  0.00  0.00    +0.000 C 
ENDBRANCH  25  28
ENDBRANCH  19  22
ENDBRANCH  11  18
BRANCH   1  33
ATOM     32  C   UNL     1      -5.207  17.445  22.984  0.00  0.00    +0.000 C 
ATOM     33  C   UNL     1      -5.919  16.156  22.596  0.00  0.00    +0.000 C 
ENDBRANCH   1  33
TORSDOF 4
ENDMDL
MODEL 8
REMARK VINA RESULT:      -7.8      1.300      2.248
REMARK  Name = 
REMARK  9 active torsions:
REMARK  status: ('A' for Active; 'I' for Inactive)
REMARK    1  A    between atoms: C_1  and  C_2
REMARK    2  A    between atoms: C_2  and  N_3
REMARK    3  A    between atoms: C_9  and  C_10
REMARK    4  A    between atoms: C_13  and  N_14
REMARK    5  A    between atoms: C_15  and  C_17
REMARK    6  A    between atoms: C_20  and  C_21
REMARK    7  A    between atoms: C_21  and  C_22
REMARK    8  A    between atoms: C_21  and  C_23
REMARK    9  A    between atoms: C_21  and  C_24
REMARK                            x       y       z     vdW  Elec       q    Type
REMARK                         _______ _______ _______ _____ _____    ______ ____
ROOT
ATOM      1  N   UNL     1      -5.228  15.817  23.507  0.00  0.00    +0.000 NA
ATOM      2  C   UNL     1      -5.710  14.536  22.936  0.00  0.00    +0.000 C 
ATOM      3  C   UNL     1      -5.260  14.266  21.484  0.00  0.00    +0.000 C 
ATOM      4  N   UNL     1      -3.807  14.373  21.378  0.00  0.00    +0.000 N 
ATOM      5  C   UNL     1      -3.056  13.391  20.771  0.00  0.00    +0.000 A 
ATOM      6  C   UNL     1      -3.592  12.670  19.710  0.00  0.00    +0.000 A 
ATOM      7  C   UNL     1      -2.878  11.644  19.108  0.00  0.00    +0.000 A 
ATOM      8  C   UNL     1      -3.492  10.901  17.954  0.00  0.00    +0.000 C 
ATOM      9  C   UNL     1      -1.598  11.360  19.604  0.00  0.00    +0.000 A 
ATOM     10  C   UNL     1      -0.808  10.346  19.046  0.00  0.00    +0.000 A 
ATOM     11  C   UNL     1       0.472  10.075  19.511  0.00  0.00    +0.000 A 
ATOM     12  C   UNL     1       0.945  10.780  20.610  0.00  0.00    +0.000 A 
ATOM     13  C   UNL     1       0.162  11.804  21.170  0.00  0.00    +0.000 A 
ATOM     14  C   UNL     1      -1.103  12.124  20.677  0.00  0.00    +0.000 A 
ATOM     15  N   UNL     1      -1.814  13.127  21.231  0.00  0.00    +0.000 NA
ATOM     16  C   UNL     1      -3.172  15.548  21.971  0.00  0.00    +0.000 C 
ATOM     17  C   UNL     1      -3.750  15.848  23.374  0.00  0.00    +0.000 C 
ENDROOT
BRANCH  11  18
ATOM     18  N   UNL     1       1.288   9.098  18.902  0.00  0.00    +0.000 N 
ATOM     19  C   UNL     1       1.787   7.979  19.554  0.00  0.00    +0.000 C 
ATOM     20  O   UNL     1       1.532   7.632  20.700  0.00  0.00    +0.000 OA
ATOM     21  H   UNL     1       1.474   9.217  17.919  0.00  0.00    +0.000 HD
BRANCH  19  22
ATOM     22  C   UNL     1       2.720   7.123  18.785  0.00  0.00    +0.000 A 
ATOM     23  C   UNL     1       3.432   7.743  17.757  0.00  0.00    +0.000 A 
ATOM     24  C   UNL     1       4.352   7.023  17.002  0.00  0.00    +0.000 A 
ATOM     25  C   UNL     1       4.598   5.665  17.257  0.00  0.00    +0.000 A 
ATOM     26  C   UNL     1       3.867   5.053  18.298  0.00  0.00    +0.000 A 
ATOM     27  C   UNL     1       2.942   5.775  19.063  0.00  0.00    +0.000 A 
BRANCH  25  28
ATOM     28  C   UNL     1       5.654   4.874  16.466  0.00  0.00    +0.000 C 
ATOM     29  C   UNL     1       7.042   4.885  17.147  0.00  0.00    +0.000 C 
ATOM     30  C   UNL     1       5.207   3.403  16.340  0.00  0.00    +0.000 C 
ATOM     31  C   UNL     1       5.831   5.469  15.055  0.00  0.00    +0.000 C 
ENDBRANCH  25  28
ENDBRANCH  19  22
ENDBRANCH  11  18
BRANCH   1  33
ATOM     32  C   UNL     1      -6.409  18.026  23.836  0.00  0.00    +0.000 C 
ATOM     33  C   UNL     1      -5.938  16.939  22.879  0.00  0.00    +0.000 C 
ENDBRANCH   1  33
TORSDOF 4
ENDMDL
MODEL 9
REMARK VINA RESULT:      -7.8      1.458      2.709
REMARK  Name = 
REMARK  9 active torsions:
REMARK  status: ('A' for Active; 'I' for Inactive)
REMARK    1  A    between atoms: C_1  and  C_2
REMARK    2  A    between atoms: C_2  and  N_3
REMARK    3  A    between atoms: C_9  and  C_10
REMARK    4  A    between atoms: C_13  and  N_14
REMARK    5  A    between atoms: C_15  and  C_17
REMARK    6  A    between atoms: C_20  and  C_21
REMARK    7  A    between atoms: C_21  and  C_22
REMARK    8  A    between atoms: C_21  and  C_23
REMARK    9  A    between atoms: C_21  and  C_24
REMARK                            x       y       z     vdW  Elec       q    Type
REMARK                         _______ _______ _______ _____ _____    ______ ____
ROOT
ATOM      1  N   UNL     1      -6.186  15.946  24.102  0.00  0.00    +0.000 NA
ATOM      2  C   UNL     1      -6.588  14.714  23.382  0.00  0.00    +0.000 C 
ATOM      3  C   UNL     1      -6.020  14.587  21.953  0.00  0.00    +0.000 C 
ATOM      4  N   UNL     1      -4.566  14.734  21.971  0.00  0.00    +0.000 N 
ATOM      5  C   UNL     1      -3.744  13.828  21.340  0.00  0.00    +0.000 A 
ATOM      6  C   UNL     1      -4.176  13.195  20.180  0.00  0.00    +0.000 A 
ATOM      7  C   UNL     1      -3.389  12.245  19.547  0.00  0.00    +0.000 A 
ATOM      8  C   UNL     1      -3.892  11.598  18.286  0.00  0.00    +0.000 C 
ATOM      9  C   UNL     1      -2.144  11.943  20.115  0.00  0.00    +0.000 A 
ATOM     10  C   UNL     1      -1.286  11.001  19.533  0.00  0.00    +0.000 A 
ATOM     11  C   UNL     1      -0.038  10.714  20.071  0.00  0.00    +0.000 A 
ATOM     12  C   UNL     1       0.329  11.326  21.263  0.00  0.00    +0.000 A 
ATOM     13  C   UNL     1      -0.523  12.277  21.849  0.00  0.00    +0.000 A 
ATOM     14  C   UNL     1      -1.755  12.615  21.288  0.00  0.00    +0.000 A 
ATOM     15  N   UNL     1      -2.534  13.548  21.872  0.00  0.00    +0.000 NA
ATOM     16  C   UNL     1      -4.011  15.862  22.716  0.00  0.00    +0.000 C 
ATOM     17  C   UNL     1      -4.705  16.020  24.090  0.00  0.00    +0.000 C 
ENDROOT
BRANCH  11  18
ATOM     18  N   UNL     1       0.850   9.815  19.444  0.00  0.00    +0.000 N 
ATOM     19  C   UNL     1       1.162   8.554  19.934  0.00  0.00    +0.000 C 
ATOM     20  O   UNL     1       0.664   8.011  20.911  0.00  0.00    +0.000 OA
ATOM     21  H   UNL     1       1.238  10.109  18.562  0.00  0.00    +0.000 HD
BRANCH  19  22
ATOM     22  C   UNL     1       2.201   7.796  19.201  0.00  0.00    +0.000 A 
ATOM     23  C   UNL     1       2.533   6.540  19.711  0.00  0.00    +0.000 A 
ATOM     24  C   UNL     1       3.478   5.744  19.071  0.00  0.00    +0.000 A 
ATOM     25  C   UNL     1       4.114   6.175  17.896  0.00  0.00    +0.000 A 
ATOM     26  C   UNL     1       3.769   7.449  17.395  0.00  0.00    +0.000 A 
ATOM     27  C   UNL     1       2.815   8.251  18.035  0.00  0.00    +0.000 A 
BRANCH  25  28
ATOM     28  C   UNL     1       5.118   5.281  17.148  0.00  0.00    +0.000 C 
ATOM     29  C   UNL     1       5.218   5.623  15.643  0.00  0.00    +0.000 C 
ATOM     30  C   UNL     1       6.522   5.460  17.762  0.00  0.00    +0.000 C 
ATOM     31  C   UNL     1       4.707   3.799  17.255  0.00  0.00    +0.000 C 
ENDBRANCH  25  28
ENDBRANCH  19  22
ENDBRANCH  11  18
BRANCH   1  33
ATOM     32  C   UNL     1      -6.503  18.453  24.129  0.00  0.00    +0.000 C 
ATOM     33  C   UNL     1      -6.877  17.106  23.523  0.00  0.00    +0.000 C 
ENDBRANCH   1  33
TORSDOF 4
ENDMDL
