MODEL 1
REMARK VINA RESULT:      -6.6      0.000      0.000
REMARK  Name = 
REMARK  8 active torsions:
REMARK  status: ('A' for Active; 'I' for Inactive)
REMARK    1  A    between atoms: C_1  and  C_2
REMARK    2  A    between atoms: C_2  and  C_3
REMARK    3  A    between atoms: C_3  and  C_4
REMARK    4  A    between atoms: C_6  and  S_7
REMARK    5  A    between atoms: S_7  and  C_8
REMARK    6  A    between atoms: C_8  and  C_9
REMARK    7  A    between atoms: C_9  and  O_11
REMARK    8  A    between atoms: N_16  and  C_17
REMARK                            x       y       z     vdW  Elec       q    Type
REMARK                         _______ _______ _______ _____ _____    ______ ____
ROOT
ATOM      1  C   UNL     1       6.613   7.401  17.307  0.00  0.00    +0.000 A 
ATOM      2  N   UNL     1       7.213   6.347  16.708  0.00  0.00    +0.000 NA
ATOM      3  C   UNL     1       6.449   5.244  16.533  0.00  0.00    +0.000 A 
ATOM      4  C   UNL     1       5.151   5.169  16.995  0.00  0.00    +0.000 A 
ATOM      5  S   UNL     1       3.979   3.867  16.868  0.00  0.00    +0.000 S 
ATOM      6  C   UNL     1       2.769   4.802  17.762  0.00  0.00    +0.000 A 
ATOM      7  S   UNL     1       1.342   4.055  18.216  0.00  0.00    +0.000 S 
ATOM      8  N   UNL     1       3.270   6.088  18.041  0.00  0.00    +0.000 N 
ATOM      9  C   UNL     1       4.635   6.276  17.631  0.00  0.00    +0.000 A 
ATOM     10  N   UNL     1       5.346   7.411  17.773  0.00  0.00    +0.000 NA
ENDROOT
BRANCH   8  11
ATOM     11  C   UNL     1       2.529   7.164  18.632  0.00  0.00    +0.000 A 
ATOM     12  C   UNL     1       2.075   8.261  17.885  0.00  0.00    +0.000 A 
ATOM     13  C   UNL     1       1.365   9.310  18.486  0.00  0.00    +0.000 A 
ATOM     14  C   UNL     1       1.097   9.286  19.852  0.00  0.00    +0.000 A 
ATOM     15  C   UNL     1       1.537   8.214  20.614  0.00  0.00    +0.000 A 
ATOM     16  C   UNL     1       2.234   7.163  20.007  0.00  0.00    +0.000 A 
ENDBRANCH   8  11
BRANCH   1  17
ATOM     17  C   UNL     1       7.424   8.669  17.440  0.00  0.00    +0.000 C 
BRANCH  17  19
ATOM     18  C   UNL     1       9.080   9.961  18.885  0.00  0.00    +0.000 C 
ATOM     19  C   UNL     1       8.537   8.596  18.487  0.00  0.00    +0.000 C 
ENDBRANCH  17  19
ENDBRANCH   1  17
BRANCH   3  20
ATOM     20  S   UNL     1       7.133   3.901  15.568  0.00  0.00    +0.000 S 
BRANCH  20  21
ATOM     21  C   UNL     1       6.453   4.195  13.918  0.00  0.00    +0.000 C 
BRANCH  21  22
ATOM     22  C   UNL     1       7.434   4.892  13.005  0.00  0.00    +0.000 C 
ATOM     23  O   UNL     1       7.498   4.719  11.796  0.00  0.00    +0.000 OA
BRANCH  22  24
ATOM     24  O   UNL     1       8.260   5.745  13.654  0.00  0.00    +0.000 OA
ATOM     25  H   UNL     1       7.988   6.682  13.543  0.00  0.00    +0.000 HD
ENDBRANCH  22  24
ENDBRANCH  21  22
ENDBRANCH  20  21
ENDBRANCH   3  20
TORSDOF 7
ENDMDL
MODEL 2
REMARK VINA RESULT:      -6.6      0.091      1.177
REMARK  Name = 
REMARK  8 active torsions:
REMARK  status: ('A' for Active; 'I' for Inactive)
REMARK    1  A    between atoms: C_1  and  C_2
REMARK    2  A    between atoms: C_2  and  C_3
REMARK    3  A    between atoms: C_3  and  C_4
REMARK    4  A    between atoms: C_6  and  S_7
REMARK    5  A    between atoms: S_7  and  C_8
REMARK    6  A    between atoms: C_8  and  C_9
REMARK    7  A    between atoms: C_9  and  O_11
REMARK    8  A    between atoms: N_16  and  C_17
REMARK                            x       y       z     vdW  Elec       q    Type
REMARK                         _______ _______ _______ _____ _____    ______ ____
ROOT
ATOM      1  C   UNL     1       6.628   7.436  17.336  0.00  0.00    +0.000 A 
ATOM      2  N   UNL     1       7.228   6.391  16.721  0.00  0.00    +0.000 NA
ATOM      3  C   UNL     1       6.466   5.288  16.538  0.00  0.00    +0.000 A 
ATOM      4  C   UNL     1       5.171   5.203  17.005  0.00  0.00    +0.000 A 
ATOM      5  S   UNL     1       4.002   3.900  16.869  0.00  0.00    +0.000 S 
ATOM      6  C   UNL     1       2.794   4.821  17.780  0.00  0.00    +0.000 A 
ATOM      7  S   UNL     1       1.371   4.064  18.233  0.00  0.00    +0.000 S 
ATOM      8  N   UNL     1       3.292   6.105  18.072  0.00  0.00    +0.000 N 
ATOM      9  C   UNL     1       4.655   6.302  17.657  0.00  0.00    +0.000 A 
ATOM     10  N   UNL     1       5.363   7.437  17.809  0.00  0.00    +0.000 NA
ENDROOT
BRANCH   8  11
ATOM     11  C   UNL     1       2.551   7.172  18.679  0.00  0.00    +0.000 A 
ATOM     12  C   UNL     1       2.226   7.177  20.044  0.00  0.00    +0.000 A 
ATOM     13  C   UNL     1       1.487   8.223  20.614  0.00  0.00    +0.000 A 
ATOM     14  C   UNL     1       1.053   9.288  19.828  0.00  0.00    +0.000 A 
ATOM     15  C   UNL     1       1.359   9.305  18.475  0.00  0.00    +0.000 A 
ATOM     16  C   UNL     1       2.107   8.264  17.914  0.00  0.00    +0.000 A 
ENDBRANCH   8  11
BRANCH   1  17
ATOM     17  C   UNL     1       7.436   8.705  17.480  0.00  0.00    +0.000 C 
BRANCH  17  19
ATOM     18  C   UNL     1       9.080   9.972  18.960  0.00  0.00    +0.000 C 
ATOM     19  C   UNL     1       8.575   8.613  18.496  0.00  0.00    +0.000 C 
ENDBRANCH  17  19
ENDBRANCH   1  17
BRANCH   3  20
ATOM     20  S   UNL     1       7.149   3.958  15.554  0.00  0.00    +0.000 S 
BRANCH  20  21
ATOM     21  C   UNL     1       6.488   4.289  13.903  0.00  0.00    +0.000 C 
BRANCH  21  22
ATOM     22  C   UNL     1       7.500   4.951  12.998  0.00  0.00    +0.000 C 
ATOM     23  O   UNL     1       8.312   5.789  13.363  0.00  0.00    +0.000 OA
BRANCH  22  24
ATOM     24  O   UNL     1       7.430   4.528  11.714  0.00  0.00    +0.000 OA
ATOM     25  H   UNL     1       7.743   3.603  11.611  0.00  0.00    +0.000 HD
ENDBRANCH  22  24
ENDBRANCH  21  22
ENDBRANCH  20  21
ENDBRANCH   3  20
TORSDOF 7
ENDMDL
MODEL 3
REMARK VINA RESULT:      -6.4      1.009      1.508
REMARK  Name = 
REMARK  8 active torsions:
REMARK  status: ('A' for Active; 'I' for Inactive)
REMARK    1  A    between atoms: C_1  and  C_2
REMARK    2  A    between atoms: C_2  and  C_3
REMARK    3  A    between atoms: C_3  and  C_4
REMARK    4  A    between atoms: C_6  and  S_7
REMARK    5  A    between atoms: S_7  and  C_8
REMARK    6  A    between atoms: C_8  and  C_9
REMARK    7  A    between atoms: C_9  and  O_11
REMARK    8  A    between atoms: N_16  and  C_17
REMARK                            x       y       z     vdW  Elec       q    Type
REMARK                         _______ _______ _______ _____ _____    ______ ____
ROOT
ATOM      1  C   UNL     1       6.378   7.117  17.142  0.00  0.00    +0.000 A 
ATOM      2  N   UNL     1       6.885   6.065  16.459  0.00  0.00    +0.000 NA
ATOM      3  C   UNL     1       6.075   4.988  16.333  0.00  0.00    +0.000 A 
ATOM      4  C   UNL     1       4.828   4.935  16.919  0.00  0.00    +0.000 A 
ATOM      5  S   UNL     1       3.611   3.669  16.876  0.00  0.00    +0.000 S 
ATOM      6  C   UNL     1       2.523   4.611  17.909  0.00  0.00    +0.000 A 
ATOM      7  S   UNL     1       1.125   3.890  18.483  0.00  0.00    +0.000 S 
ATOM      8  N   UNL     1       3.086   5.875  18.170  0.00  0.00    +0.000 N 
ATOM      9  C   UNL     1       4.409   6.037  17.631  0.00  0.00    +0.000 A 
ATOM     10  N   UNL     1       5.164   7.148  17.731  0.00  0.00    +0.000 NA
ENDROOT
BRANCH   8  11
ATOM     11  C   UNL     1       2.439   6.953  18.858  0.00  0.00    +0.000 A 
ATOM     12  C   UNL     1       2.131   6.892  20.226  0.00  0.00    +0.000 A 
ATOM     13  C   UNL     1       1.483   7.953  20.876  0.00  0.00    +0.000 A 
ATOM     14  C   UNL     1       1.125   9.098  20.169  0.00  0.00    +0.000 A 
ATOM     15  C   UNL     1       1.416   9.181  18.815  0.00  0.00    +0.000 A 
ATOM     16  C   UNL     1       2.073   8.126  18.173  0.00  0.00    +0.000 A 
ENDBRANCH   8  11
BRANCH   1  17
ATOM     17  C   UNL     1       7.235   8.359  17.225  0.00  0.00    +0.000 C 
BRANCH  17  19
ATOM     18  C   UNL     1       8.870   9.688  18.662  0.00  0.00    +0.000 C 
ATOM     19  C   UNL     1       8.293   8.319  18.329  0.00  0.00    +0.000 C 
ENDBRANCH  17  19
ENDBRANCH   1  17
BRANCH   3  20
ATOM     20  S   UNL     1       6.621   3.655  15.272  0.00  0.00    +0.000 S 
BRANCH  20  21
ATOM     21  C   UNL     1       6.570   4.397  13.623  0.00  0.00    +0.000 C 
BRANCH  21  22
ATOM     22  C   UNL     1       5.926   3.489  12.602  0.00  0.00    +0.000 C 
ATOM     23  O   UNL     1       4.745   3.531  12.286  0.00  0.00    +0.000 OA
BRANCH  22  24
ATOM     24  O   UNL     1       6.787   2.602  12.052  0.00  0.00    +0.000 OA
ATOM     25  H   UNL     1       6.414   1.694  12.021  0.00  0.00    +0.000 HD
ENDBRANCH  22  24
ENDBRANCH  21  22
ENDBRANCH  20  21
ENDBRANCH   3  20
TORSDOF 7
ENDMDL
MODEL 4
REMARK VINA RESULT:      -6.3      3.015      5.192
REMARK  Name = 
REMARK  8 active torsions:
REMARK  status: ('A' for Active; 'I' for Inactive)
REMARK    1  A    between atoms: C_1  and  C_2
REMARK    2  A    between atoms: C_2  and  C_3
REMARK    3  A    between atoms: C_3  and  C_4
REMARK    4  A    between atoms: C_6  and  S_7
REMARK    5  A    between atoms: S_7  and  C_8
REMARK    6  A    between atoms: C_8  and  C_9
REMARK    7  A    between atoms: C_9  and  O_11
REMARK    8  A    between atoms: N_16  and  C_17
REMARK                            x       y       z     vdW  Elec       q    Type
REMARK                         _______ _______ _______ _____ _____    ______ ____
ROOT
ATOM      1  C   UNL     1       2.349   4.893  20.410  0.00  0.00    +0.000 A 
ATOM      2  N   UNL     1       3.110   4.492  19.365  0.00  0.00    +0.000 NA
ATOM      3  C   UNL     1       3.425   5.443  18.456  0.00  0.00    +0.000 A 
ATOM      4  C   UNL     1       2.950   6.735  18.548  0.00  0.00    +0.000 A 
ATOM      5  S   UNL     1       3.237   8.123  17.512  0.00  0.00    +0.000 S 
ATOM      6  C   UNL     1       2.189   9.146  18.507  0.00  0.00    +0.000 A 
ATOM      7  S   UNL     1       1.816  10.688  17.970  0.00  0.00    +0.000 S 
ATOM      8  N   UNL     1       1.737   8.422  19.626  0.00  0.00    +0.000 N 
ATOM      9  C   UNL     1       2.147   7.044  19.624  0.00  0.00    +0.000 A 
ATOM     10  N   UNL     1       1.857   6.140  20.579  0.00  0.00    +0.000 NA
ENDROOT
BRANCH   8  11
ATOM     11  C   UNL     1       0.979   8.958  20.719  0.00  0.00    +0.000 A 
ATOM     12  C   UNL     1      -0.232   9.642  20.527  0.00  0.00    +0.000 A 
ATOM     13  C   UNL     1      -0.950  10.171  21.609  0.00  0.00    +0.000 A 
ATOM     14  C   UNL     1      -0.469  10.031  22.909  0.00  0.00    +0.000 A 
ATOM     15  C   UNL     1       0.727   9.362  23.124  0.00  0.00    +0.000 A 
ATOM     16  C   UNL     1       1.433   8.825  22.043  0.00  0.00    +0.000 A 
ENDBRANCH   8  11
BRANCH   1  17
ATOM     17  C   UNL     1       2.052   3.867  21.478  0.00  0.00    +0.000 C 
BRANCH  17  19
ATOM     18  C   UNL     1       0.630   2.744  19.684  0.00  0.00    +0.000 C 
ATOM     19  C   UNL     1       1.460   2.560  20.946  0.00  0.00    +0.000 C 
ENDBRANCH  17  19
ENDBRANCH   1  17
BRANCH   3  20
ATOM     20  S   UNL     1       4.592   5.011  17.169  0.00  0.00    +0.000 S 
BRANCH  20  21
ATOM     21  C   UNL     1       6.107   4.659  18.091  0.00  0.00    +0.000 C 
BRANCH  21  22
ATOM     22  C   UNL     1       7.324   4.598  17.199  0.00  0.00    +0.000 C 
ATOM     23  O   UNL     1       7.368   5.033  16.057  0.00  0.00    +0.000 OA
BRANCH  22  24
ATOM     24  O   UNL     1       8.390   4.003  17.784  0.00  0.00    +0.000 OA
ATOM     25  H   UNL     1       9.221   4.508  17.641  0.00  0.00    +0.000 HD
ENDBRANCH  22  24
ENDBRANCH  21  22
ENDBRANCH  20  21
ENDBRANCH   3  20
TORSDOF 7
ENDMDL
MODEL 5
REMARK VINA RESULT:      -6.3      5.153      7.941
REMARK  Name = 
REMARK  8 active torsions:
REMARK  status: ('A' for Active; 'I' for Inactive)
REMARK    1  A    between atoms: C_1  and  C_2
REMARK    2  A    between atoms: C_2  and  C_3
REMARK    3  A    between atoms: C_3  and  C_4
REMARK    4  A    between atoms: C_6  and  S_7
REMARK    5  A    between atoms: S_7  and  C_8
REMARK    6  A    between atoms: C_8  and  C_9
REMARK    7  A    between atoms: C_9  and  O_11
REMARK    8  A    between atoms: N_16  and  C_17
REMARK                            x       y       z     vdW  Elec       q    Type
REMARK                         _______ _______ _______ _____ _____    ______ ____
ROOT
ATOM      1  C   UNL     1       0.323   8.764  21.268  0.00  0.00    +0.000 A 
ATOM      2  N   UNL     1       0.572   9.920  20.610  0.00  0.00    +0.000 NA
ATOM      3  C   UNL     1       1.345   9.824  19.505  0.00  0.00    +0.000 A 
ATOM      4  C   UNL     1       1.904   8.629  19.101  0.00  0.00    +0.000 A 
ATOM      5  S   UNL     1       2.912   8.266  17.709  0.00  0.00    +0.000 S 
ATOM      6  C   UNL     1       3.039   6.563  18.183  0.00  0.00    +0.000 A 
ATOM      7  S   UNL     1       4.089   5.565  17.344  0.00  0.00    +0.000 S 
ATOM      8  N   UNL     1       2.245   6.324  19.321  0.00  0.00    +0.000 N 
ATOM      9  C   UNL     1       1.631   7.509  19.854  0.00  0.00    +0.000 A 
ATOM     10  N   UNL     1       0.820   7.555  20.928  0.00  0.00    +0.000 NA
ENDROOT
BRANCH   8  11
ATOM     11  C   UNL     1       1.995   5.041  19.911  0.00  0.00    +0.000 A 
ATOM     12  C   UNL     1       1.219   4.061  19.274  0.00  0.00    +0.000 A 
ATOM     13  C   UNL     1       0.974   2.819  19.877  0.00  0.00    +0.000 A 
ATOM     14  C   UNL     1       1.498   2.531  21.134  0.00  0.00    +0.000 A 
ATOM     15  C   UNL     1       2.267   3.485  21.787  0.00  0.00    +0.000 A 
ATOM     16  C   UNL     1       2.518   4.718  21.176  0.00  0.00    +0.000 A 
ENDBRANCH   8  11
BRANCH   1  17
ATOM     17  C   UNL     1      -0.604   8.837  22.459  0.00  0.00    +0.000 C 
BRANCH  17  19
ATOM     18  C   UNL     1      -1.473  11.166  23.026  0.00  0.00    +0.000 C 
ATOM     19  C   UNL     1      -0.432  10.094  23.313  0.00  0.00    +0.000 C 
ENDBRANCH  17  19
ENDBRANCH   1  17
BRANCH   3  20
ATOM     20  S   UNL     1       1.535  11.287  18.491  0.00  0.00    +0.000 S 
BRANCH  20  21
ATOM     21  C   UNL     1       0.463  12.493  19.308  0.00  0.00    +0.000 C 
BRANCH  21  22
ATOM     22  C   UNL     1      -0.929  12.517  18.723  0.00  0.00    +0.000 C 
ATOM     23  O   UNL     1      -1.947  12.252  19.347  0.00  0.00    +0.000 OA
BRANCH  22  24
ATOM     24  O   UNL     1      -0.957  12.862  17.415  0.00  0.00    +0.000 OA
ATOM     25  H   UNL     1      -0.967  12.077  16.824  0.00  0.00    +0.000 HD
ENDBRANCH  22  24
ENDBRANCH  21  22
ENDBRANCH  20  21
ENDBRANCH   3  20
TORSDOF 7
ENDMDL
MODEL 6
REMARK VINA RESULT:      -6.3      2.852      5.107
REMARK  Name = 
REMARK  8 active torsions:
REMARK  status: ('A' for Active; 'I' for Inactive)
REMARK    1  A    between atoms: C_1  and  C_2
REMARK    2  A    between atoms: C_2  and  C_3
REMARK    3  A    between atoms: C_3  and  C_4
REMARK    4  A    between atoms: C_6  and  S_7
REMARK    5  A    between atoms: S_7  and  C_8
REMARK    6  A    between atoms: C_8  and  C_9
REMARK    7  A    between atoms: C_9  and  O_11
REMARK    8  A    between atoms: N_16  and  C_17
REMARK                            x       y       z     vdW  Elec       q    Type
REMARK                         _______ _______ _______ _____ _____    ______ ____
ROOT
ATOM      1  C   UNL     1       2.725   4.529  20.392  0.00  0.00    +0.000 A 
ATOM      2  N   UNL     1       3.378   4.191  19.256  0.00  0.00    +0.000 NA
ATOM      3  C   UNL     1       3.531   5.175  18.340  0.00  0.00    +0.000 A 
ATOM      4  C   UNL     1       2.998   6.435  18.519  0.00  0.00    +0.000 A 
ATOM      5  S   UNL     1       3.084   7.856  17.491  0.00  0.00    +0.000 S 
ATOM      6  C   UNL     1       2.105   8.799  18.627  0.00  0.00    +0.000 A 
ATOM      7  S   UNL     1       1.587  10.325  18.176  0.00  0.00    +0.000 S 
ATOM      8  N   UNL     1       1.830   8.030  19.773  0.00  0.00    +0.000 N 
ATOM      9  C   UNL     1       2.312   6.678  19.689  0.00  0.00    +0.000 A 
ATOM     10  N   UNL     1       2.188   5.741  20.648  0.00  0.00    +0.000 NA
ENDROOT
BRANCH   8  11
ATOM     11  C   UNL     1       1.177   8.501  20.960  0.00  0.00    +0.000 A 
ATOM     12  C   UNL     1       1.891   8.984  22.066  0.00  0.00    +0.000 A 
ATOM     13  C   UNL     1       1.233   9.426  23.223  0.00  0.00    +0.000 A 
ATOM     14  C   UNL     1      -0.157   9.389  23.299  0.00  0.00    +0.000 A 
ATOM     15  C   UNL     1      -0.886   8.912  22.220  0.00  0.00    +0.000 A 
ATOM     16  C   UNL     1      -0.225   8.484  21.063  0.00  0.00    +0.000 A 
ENDBRANCH   8  11
BRANCH   1  17
ATOM     17  C   UNL     1       2.613   3.467  21.461  0.00  0.00    +0.000 C 
BRANCH  17  19
ATOM     18  C   UNL     1       0.728   2.519  20.029  0.00  0.00    +0.000 C 
ATOM     19  C   UNL     1       1.302   2.679  21.430  0.00  0.00    +0.000 C 
ENDBRANCH  17  19
ENDBRANCH   1  17
BRANCH   3  20
ATOM     20  S   UNL     1       4.559   4.834  16.916  0.00  0.00    +0.000 S 
BRANCH  20  21
ATOM     21  C   UNL     1       6.136   5.602  17.356  0.00  0.00    +0.000 C 
BRANCH  21  22
ATOM     22  C   UNL     1       7.283   5.087  16.519  0.00  0.00    +0.000 C 
ATOM     23  O   UNL     1       7.537   5.465  15.384  0.00  0.00    +0.000 OA
BRANCH  22  24
ATOM     24  O   UNL     1       8.024   4.144  17.145  0.00  0.00    +0.000 OA
ATOM     25  H   UNL     1       8.732   4.537  17.701  0.00  0.00    +0.000 HD
ENDBRANCH  22  24
ENDBRANCH  21  22
ENDBRANCH  20  21
ENDBRANCH   3  20
TORSDOF 7
ENDMDL
MODEL 7
REMARK VINA RESULT:      -6.2      3.188      5.498
REMARK  Name = 
REMARK  8 active torsions:
REMARK  status: ('A' for Active; 'I' for Inactive)
REMARK    1  A    between atoms: C_1  and  C_2
REMARK    2  A    between atoms: C_2  and  C_3
REMARK    3  A    between atoms: C_3  and  C_4
REMARK    4  A    between atoms: C_6  and  S_7
REMARK    5  A    between atoms: S_7  and  C_8
REMARK    6  A    between atoms: C_8  and  C_9
REMARK    7  A    between atoms: C_9  and  O_11
REMARK    8  A    between atoms: N_16  and  C_17
REMARK                            x       y       z     vdW  Elec       q    Type
REMARK                         _______ _______ _______ _____ _____    ______ ____
ROOT
ATOM      1  C   UNL     1       2.450   4.905  20.491  0.00  0.00    +0.000 A 
ATOM      2  N   UNL     1       3.182   4.506  19.426  0.00  0.00    +0.000 NA
ATOM      3  C   UNL     1       3.443   5.451  18.493  0.00  0.00    +0.000 A 
ATOM      4  C   UNL     1       2.941   6.732  18.585  0.00  0.00    +0.000 A 
ATOM      5  S   UNL     1       3.159   8.112  17.520  0.00  0.00    +0.000 S 
ATOM      6  C   UNL     1       2.123   9.125  18.538  0.00  0.00    +0.000 A 
ATOM      7  S   UNL     1       1.696  10.650  17.994  0.00  0.00    +0.000 S 
ATOM      8  N   UNL     1       1.729   8.407  19.683  0.00  0.00    +0.000 N 
ATOM      9  C   UNL     1       2.170   7.039  19.684  0.00  0.00    +0.000 A 
ATOM     10  N   UNL     1       1.936   6.142  20.661  0.00  0.00    +0.000 NA
ENDROOT
BRANCH   8  11
ATOM     11  C   UNL     1       0.997   8.941  20.794  0.00  0.00    +0.000 A 
ATOM     12  C   UNL     1       1.470   8.856  22.113  0.00  0.00    +0.000 A 
ATOM     13  C   UNL     1       0.731   9.372  23.187  0.00  0.00    +0.000 A 
ATOM     14  C   UNL     1      -0.502   9.981  22.966  0.00  0.00    +0.000 A 
ATOM     15  C   UNL     1      -0.993  10.074  21.672  0.00  0.00    +0.000 A 
ATOM     16  C   UNL     1      -0.246   9.569  20.602  0.00  0.00    +0.000 A 
ENDBRANCH   8  11
BRANCH   1  17
ATOM     17  C   UNL     1       2.215   3.887  21.583  0.00  0.00    +0.000 C 
BRANCH  17  19
ATOM     18  C   UNL     1       0.610   2.906  19.862  0.00  0.00    +0.000 C 
ATOM     19  C   UNL     1       1.396   2.672  21.143  0.00  0.00    +0.000 C 
ENDBRANCH  17  19
ENDBRANCH   1  17
BRANCH   3  20
ATOM     20  S   UNL     1       4.573   5.027  17.172  0.00  0.00    +0.000 S 
BRANCH  20  21
ATOM     21  C   UNL     1       6.082   5.914  17.622  0.00  0.00    +0.000 C 
BRANCH  21  22
ATOM     22  C   UNL     1       6.920   5.157  18.625  0.00  0.00    +0.000 C 
ATOM     23  O   UNL     1       6.890   5.344  19.833  0.00  0.00    +0.000 OA
BRANCH  22  24
ATOM     24  O   UNL     1       7.730   4.232  18.059  0.00  0.00    +0.000 OA
ATOM     25  H   UNL     1       7.244   3.415  17.813  0.00  0.00    +0.000 HD
ENDBRANCH  22  24
ENDBRANCH  21  22
ENDBRANCH  20  21
ENDBRANCH   3  20
TORSDOF 7
ENDMDL
MODEL 8
REMARK VINA RESULT:      -6.0      5.041      7.826
REMARK  Name = 
REMARK  8 active torsions:
REMARK  status: ('A' for Active; 'I' for Inactive)
REMARK    1  A    between atoms: C_1  and  C_2
REMARK    2  A    between atoms: C_2  and  C_3
REMARK    3  A    between atoms: C_3  and  C_4
REMARK    4  A    between atoms: C_6  and  S_7
REMARK    5  A    between atoms: S_7  and  C_8
REMARK    6  A    between atoms: C_8  and  C_9
REMARK    7  A    between atoms: C_9  and  O_11
REMARK    8  A    between atoms: N_16  and  C_17
REMARK                            x       y       z     vdW  Elec       q    Type
REMARK                         _______ _______ _______ _____ _____    ______ ____
ROOT
ATOM      1  C   UNL     1       0.416   8.765  21.026  0.00  0.00    +0.000 A 
ATOM      2  N   UNL     1       0.719   9.877  20.318  0.00  0.00    +0.000 NA
ATOM      3  C   UNL     1       1.533   9.703  19.252  0.00  0.00    +0.000 A 
ATOM      4  C   UNL     1       2.078   8.476  18.936  0.00  0.00    +0.000 A 
ATOM      5  S   UNL     1       3.131   8.013  17.609  0.00  0.00    +0.000 S 
ATOM      6  C   UNL     1       3.196   6.337  18.179  0.00  0.00    +0.000 A 
ATOM      7  S   UNL     1       4.253   5.270  17.439  0.00  0.00    +0.000 S 
ATOM      8  N   UNL     1       2.352   6.178  19.294  0.00  0.00    +0.000 N 
ATOM      9  C   UNL     1       1.747   7.405  19.738  0.00  0.00    +0.000 A 
ATOM     10  N   UNL     1       0.895   7.528  20.773  0.00  0.00    +0.000 NA
ENDROOT
BRANCH   8  11
ATOM     11  C   UNL     1       2.047   4.936  19.943  0.00  0.00    +0.000 A 
ATOM     12  C   UNL     1       2.551   4.609  21.211  0.00  0.00    +0.000 A 
ATOM     13  C   UNL     1       2.252   3.382  21.820  0.00  0.00    +0.000 A 
ATOM     14  C   UNL     1       1.444   2.452  21.170  0.00  0.00    +0.000 A 
ATOM     15  C   UNL     1       0.936   2.750  19.914  0.00  0.00    +0.000 A 
ATOM     16  C   UNL     1       1.227   3.981  19.316  0.00  0.00    +0.000 A 
ENDBRANCH   8  11
BRANCH   1  17
ATOM     17  C   UNL     1      -0.556   8.924  22.173  0.00  0.00    +0.000 C 
BRANCH  17  19
ATOM     18  C   UNL     1      -1.415  11.161  23.045  0.00  0.00    +0.000 C 
ATOM     19  C   UNL     1      -0.286  10.140  23.061  0.00  0.00    +0.000 C 
ENDBRANCH  17  19
ENDBRANCH   1  17
BRANCH   3  20
ATOM     20  S   UNL     1       1.800  11.103  18.170  0.00  0.00    +0.000 S 
BRANCH  20  21
ATOM     21  C   UNL     1       1.187  12.497  19.145  0.00  0.00    +0.000 C 
BRANCH  21  22
ATOM     22  C   UNL     1      -0.102  13.063  18.598  0.00  0.00    +0.000 C 
ATOM     23  O   UNL     1      -0.442  14.233  18.698  0.00  0.00    +0.000 OA
BRANCH  22  24
ATOM     24  O   UNL     1      -0.870  12.141  17.972  0.00  0.00    +0.000 OA
ATOM     25  H   UNL     1      -0.340  11.390  17.625  0.00  0.00    +0.000 HD
ENDBRANCH  22  24
ENDBRANCH  21  22
ENDBRANCH  20  21
ENDBRANCH   3  20
TORSDOF 7
ENDMDL
MODEL 9
REMARK VINA RESULT:      -5.9      4.758      7.569
REMARK  Name = 
REMARK  8 active torsions:
REMARK  status: ('A' for Active; 'I' for Inactive)
REMARK    1  A    between atoms: C_1  and  C_2
REMARK    2  A    between atoms: C_2  and  C_3
REMARK    3  A    between atoms: C_3  and  C_4
REMARK    4  A    between atoms: C_6  and  S_7
REMARK    5  A    between atoms: S_7  and  C_8
REMARK    6  A    between atoms: C_8  and  C_9
REMARK    7  A    between atoms: C_9  and  O_11
REMARK    8  A    between atoms: N_16  and  C_17
REMARK                            x       y       z     vdW  Elec       q    Type
REMARK                         _______ _______ _______ _____ _____    ______ ____
ROOT
ATOM      1  C   UNL     1       2.251   8.881  18.431  0.00  0.00    +0.000 A 
ATOM      2  N   UNL     1       1.391   8.898  19.476  0.00  0.00    +0.000 NA
ATOM      3  C   UNL     1       1.371   7.789  20.251  0.00  0.00    +0.000 A 
ATOM      4  C   UNL     1       2.132   6.676  19.961  0.00  0.00    +0.000 A 
ATOM      5  S   UNL     1       2.281   5.152  20.822  0.00  0.00    +0.000 S 
ATOM      6  C   UNL     1       3.423   4.528  19.620  0.00  0.00    +0.000 A 
ATOM      7  S   UNL     1       3.891   2.923  19.705  0.00  0.00    +0.000 S 
ATOM      8  N   UNL     1       3.711   5.527  18.671  0.00  0.00    +0.000 N 
ATOM      9  C   UNL     1       2.948   6.732  18.853  0.00  0.00    +0.000 A 
ATOM     10  N   UNL     1       3.038   7.838  18.090  0.00  0.00    +0.000 NA
ENDROOT
BRANCH   8  11
ATOM     11  C   UNL     1       4.691   5.432  17.628  0.00  0.00    +0.000 A 
ATOM     12  C   UNL     1       4.448   4.738  16.432  0.00  0.00    +0.000 A 
ATOM     13  C   UNL     1       5.425   4.644  15.432  0.00  0.00    +0.000 A 
ATOM     14  C   UNL     1       6.671   5.241  15.607  0.00  0.00    +0.000 A 
ATOM     15  C   UNL     1       6.937   5.931  16.781  0.00  0.00    +0.000 A 
ATOM     16  C   UNL     1       5.954   6.031  17.772  0.00  0.00    +0.000 A 
ENDBRANCH   8  11
BRANCH   1  17
ATOM     17  C   UNL     1       2.347  10.139  17.600  0.00  0.00    +0.000 C 
BRANCH  17  19
ATOM     18  C   UNL     1       2.620  12.622  18.109  0.00  0.00    +0.000 C 
ATOM     19  C   UNL     1       1.755  11.381  18.268  0.00  0.00    +0.000 C 
ENDBRANCH  17  19
ENDBRANCH   1  17
BRANCH   3  20
ATOM     20  S   UNL     1       0.403   7.843  21.755  0.00  0.00    +0.000 S 
BRANCH  20  21
ATOM     21  C   UNL     1      -0.387   9.467  21.677  0.00  0.00    +0.000 C 
BRANCH  21  22
ATOM     22  C   UNL     1      -0.381  10.177  23.011  0.00  0.00    +0.000 C 
ATOM     23  O   UNL     1      -1.026  11.185  23.261  0.00  0.00    +0.000 OA
BRANCH  22  24
ATOM     24  O   UNL     1       0.421   9.589  23.929  0.00  0.00    +0.000 OA
ATOM     25  H   UNL     1       0.869   8.791  23.573  0.00  0.00    +0.000 HD
ENDBRANCH  22  24
ENDBRANCH  21  22
ENDBRANCH  20  21
ENDBRANCH   3  20
TORSDOF 7
ENDMDL
