MODEL 1
REMARK VINA RESULT:      -7.6      0.000      0.000
REMARK  Name = 
REMARK  9 active torsions:
REMARK  status: ('A' for Active; 'I' for Inactive)
REMARK    1  A    between atoms: C_1  and  N_2
REMARK    2  A    between atoms: N_2  and  C_3
REMARK    3  A    between atoms: N_2  and  C_4
REMARK    4  A    between atoms: C_4  and  C_5
REMARK    5  A    between atoms: C_5  and  C_6
REMARK    6  A    between atoms: C_6  and  N_7
REMARK    7  A    between atoms: N_7  and  S_8
REMARK    8  A    between atoms: S_8  and  C_11
REMARK    9  A    between atoms: C_17  and  C_18
REMARK                            x       y       z     vdW  Elec       q    Type
REMARK                         _______ _______ _______ _____ _____    ______ ____
ROOT
ATOM      1  C   UNL     1       3.166   4.002  19.402  0.00  0.00    +0.000 A 
ATOM      2  C   UNL     1       2.611   3.840  20.673  0.00  0.00    +0.000 A 
ATOM      3  C   UNL     1       1.972   4.914  21.305  0.00  0.00    +0.000 A 
ATOM      4  C   UNL     1       1.911   6.134  20.620  0.00  0.00    +0.000 A 
ATOM      5  N   UNL     1       1.381   7.340  21.014  0.00  0.00    +0.000 N 
ATOM      6  C   UNL     1       1.524   8.285  20.024  0.00  0.00    +0.000 A 
ATOM      7  C   UNL     1       1.130   9.619  19.989  0.00  0.00    +0.000 A 
ATOM      8  N   UNL     1       1.376  10.362  18.874  0.00  0.00    +0.000 NA
ATOM      9  C   UNL     1       2.011   9.770  17.837  0.00  0.00    +0.000 A 
ATOM     10  C   UNL     1       2.442   8.448  17.816  0.00  0.00    +0.000 A 
ATOM     11  C   UNL     1       2.181   7.675  18.959  0.00  0.00    +0.000 A 
ATOM     12  C   UNL     1       2.441   6.317  19.341  0.00  0.00    +0.000 A 
ATOM     13  C   UNL     1       3.094   5.228  18.723  0.00  0.00    +0.000 A 
ATOM     14  H   UNL     1       0.942   7.532  21.909  0.00  0.00    +0.000 HD
ENDROOT
BRANCH   7  15
ATOM     15  C   UNL     1       0.440  10.263  21.140  0.00  0.00    +0.000 C 
ATOM     16  N   UNL     1      -0.677  10.989  20.832  0.00  0.00    +0.000 N 
ATOM     17  O   UNL     1       0.850  10.150  22.291  0.00  0.00    +0.000 OA
ATOM     18  H   UNL     1      -0.974  11.065  19.865  0.00  0.00    +0.000 HD
ATOM     19  H   UNL     1      -1.187  11.462  21.562  0.00  0.00    +0.000 HD
ENDBRANCH   7  15
BRANCH   1  20
ATOM     20  S   UNL     1       4.122   2.679  18.677  0.00  0.00    +0.000 S 
ATOM     21  O   UNL     1       3.311   2.013  17.687  0.00  0.00    +0.000 OA
ATOM     22  O   UNL     1       4.725   1.970  19.781  0.00  0.00    +0.000 OA
BRANCH  20  23
ATOM     23  N   UNL     1       5.378   3.509  17.885  0.00  0.00    +0.000 NA
ATOM     24  H   UNL     1       5.695   4.300  18.442  0.00  0.00    +0.000 HD
BRANCH  23  25
ATOM     25  C   UNL     1       5.127   3.855  16.471  0.00  0.00    +0.000 C 
BRANCH  25  26
ATOM     26  C   UNL     1       6.249   4.762  15.963  0.00  0.00    +0.000 C 
BRANCH  26  27
ATOM     27  C   UNL     1       7.352   4.933  17.017  0.00  0.00    +0.000 C 
BRANCH  27  29
ATOM     28  C   UNL     1       7.751   5.826  19.253  0.00  0.00    +0.000 C 
ATOM     29  N   UNL     1       7.090   6.030  17.963  0.00  0.00    +0.000 NA
ATOM     30  C   UNL     1       7.509   7.311  17.388  0.00  0.00    +0.000 C 
ENDBRANCH  27  29
ENDBRANCH  26  27
ENDBRANCH  25  26
ENDBRANCH  23  25
ENDBRANCH  20  23
ENDBRANCH   1  20
TORSDOF 7
ENDMDL
MODEL 2
REMARK VINA RESULT:      -7.5      2.341      6.741
REMARK  Name = 
REMARK  9 active torsions:
REMARK  status: ('A' for Active; 'I' for Inactive)
REMARK    1  A    between atoms: C_1  and  N_2
REMARK    2  A    between atoms: N_2  and  C_3
REMARK    3  A    between atoms: N_2  and  C_4
REMARK    4  A    between atoms: C_4  and  C_5
REMARK    5  A    between atoms: C_5  and  C_6
REMARK    6  A    between atoms: C_6  and  N_7
REMARK    7  A    between atoms: N_7  and  S_8
REMARK    8  A    between atoms: S_8  and  C_11
REMARK    9  A    between atoms: C_17  and  C_18
REMARK                            x       y       z     vdW  Elec       q    Type
REMARK                         _______ _______ _______ _____ _____    ______ ____
ROOT
ATOM      1  C   UNL     1       3.062   3.154  19.659  0.00  0.00    +0.000 A 
ATOM      2  C   UNL     1       2.725   2.247  18.651  0.00  0.00    +0.000 A 
ATOM      3  C   UNL     1       3.374   2.298  17.412  0.00  0.00    +0.000 A 
ATOM      4  C   UNL     1       4.359   3.275  17.228  0.00  0.00    +0.000 A 
ATOM      5  N   UNL     1       5.117   3.564  16.117  0.00  0.00    +0.000 N 
ATOM      6  C   UNL     1       5.982   4.604  16.372  0.00  0.00    +0.000 A 
ATOM      7  C   UNL     1       6.925   5.213  15.550  0.00  0.00    +0.000 A 
ATOM      8  N   UNL     1       7.682   6.234  16.039  0.00  0.00    +0.000 NA
ATOM      9  C   UNL     1       7.478   6.628  17.316  0.00  0.00    +0.000 A 
ATOM     10  C   UNL     1       6.543   6.072  18.182  0.00  0.00    +0.000 A 
ATOM     11  C   UNL     1       5.767   5.012  17.685  0.00  0.00    +0.000 A 
ATOM     12  C   UNL     1       4.729   4.182  18.224  0.00  0.00    +0.000 A 
ATOM     13  C   UNL     1       4.056   4.126  19.465  0.00  0.00    +0.000 A 
ATOM     14  H   UNL     1       5.061   3.091  15.221  0.00  0.00    +0.000 HD
ENDROOT
BRANCH   7  15
ATOM     15  C   UNL     1       7.135   4.776  14.142  0.00  0.00    +0.000 C 
ATOM     16  N   UNL     1       8.055   5.494  13.429  0.00  0.00    +0.000 N 
ATOM     17  O   UNL     1       6.521   3.833  13.653  0.00  0.00    +0.000 OA
ATOM     18  H   UNL     1       8.532   6.274  13.869  0.00  0.00    +0.000 HD
ATOM     19  H   UNL     1       8.239   5.261  12.465  0.00  0.00    +0.000 HD
ENDBRANCH   7  15
BRANCH   1  20
ATOM     20  S   UNL     1       2.116   3.191  21.173  0.00  0.00    +0.000 S 
ATOM     21  O   UNL     1       2.830   2.445  22.181  0.00  0.00    +0.000 OA
ATOM     22  O   UNL     1       0.756   2.876  20.802  0.00  0.00    +0.000 OA
BRANCH  20  23
ATOM     23  N   UNL     1       2.138   4.838  21.595  0.00  0.00    +0.000 NA
ATOM     24  H   UNL     1       1.983   4.957  22.594  0.00  0.00    +0.000 HD
BRANCH  23  25
ATOM     25  C   UNL     1       1.296   5.725  20.765  0.00  0.00    +0.000 C 
BRANCH  25  26
ATOM     26  C   UNL     1       2.119   6.936  20.320  0.00  0.00    +0.000 C 
BRANCH  26  27
ATOM     27  C   UNL     1       1.315   8.238  20.451  0.00  0.00    +0.000 C 
BRANCH  27  29
ATOM     28  C   UNL     1       1.859   8.535  18.091  0.00  0.00    +0.000 C 
ATOM     29  N   UNL     1       1.574   9.197  19.365  0.00  0.00    +0.000 NA
ATOM     30  C   UNL     1       0.438  10.108  19.208  0.00  0.00    +0.000 C 
ENDBRANCH  27  29
ENDBRANCH  26  27
ENDBRANCH  25  26
ENDBRANCH  23  25
ENDBRANCH  20  23
ENDBRANCH   1  20
TORSDOF 7
ENDMDL
MODEL 3
REMARK VINA RESULT:      -7.5      0.827      1.089
REMARK  Name = 
REMARK  9 active torsions:
REMARK  status: ('A' for Active; 'I' for Inactive)
REMARK    1  A    between atoms: C_1  and  N_2
REMARK    2  A    between atoms: N_2  and  C_3
REMARK    3  A    between atoms: N_2  and  C_4
REMARK    4  A    between atoms: C_4  and  C_5
REMARK    5  A    between atoms: C_5  and  C_6
REMARK    6  A    between atoms: C_6  and  N_7
REMARK    7  A    between atoms: N_7  and  S_8
REMARK    8  A    between atoms: S_8  and  C_11
REMARK    9  A    between atoms: C_17  and  C_18
REMARK                            x       y       z     vdW  Elec       q    Type
REMARK                         _______ _______ _______ _____ _____    ______ ____
ROOT
ATOM      1  C   UNL     1       2.964   4.385  18.836  0.00  0.00    +0.000 A 
ATOM      2  C   UNL     1       2.623   4.039  20.146  0.00  0.00    +0.000 A 
ATOM      3  C   UNL     1       2.082   4.999  21.010  0.00  0.00    +0.000 A 
ATOM      4  C   UNL     1       1.899   6.296  20.516  0.00  0.00    +0.000 A 
ATOM      5  N   UNL     1       1.427   7.422  21.149  0.00  0.00    +0.000 N 
ATOM      6  C   UNL     1       1.400   8.494  20.287  0.00  0.00    +0.000 A 
ATOM      7  C   UNL     1       0.993   9.807  20.496  0.00  0.00    +0.000 A 
ATOM      8  N   UNL     1       1.049  10.700  19.469  0.00  0.00    +0.000 NA
ATOM      9  C   UNL     1       1.515  10.271  18.274  0.00  0.00    +0.000 A 
ATOM     10  C   UNL     1       1.950   8.978  18.005  0.00  0.00    +0.000 A 
ATOM     11  C   UNL     1       1.884   8.052  19.059  0.00  0.00    +0.000 A 
ATOM     12  C   UNL     1       2.216   6.664  19.206  0.00  0.00    +0.000 A 
ATOM     13  C   UNL     1       2.772   5.688  18.350  0.00  0.00    +0.000 A 
ATOM     14  H   UNL     1       1.136   7.479  22.120  0.00  0.00    +0.000 HD
ENDROOT
BRANCH   7  15
ATOM     15  C   UNL     1       0.490  10.271  21.819  0.00  0.00    +0.000 C 
ATOM     16  N   UNL     1      -0.411  11.299  21.785  0.00  0.00    +0.000 N 
ATOM     17  O   UNL     1       0.861   9.762  22.872  0.00  0.00    +0.000 OA
ATOM     18  H   UNL     1      -0.683  11.698  20.892  0.00  0.00    +0.000 HD
ATOM     19  H   UNL     1      -0.784  11.671  22.645  0.00  0.00    +0.000 HD
ENDBRANCH   7  15
BRANCH   1  20
ATOM     20  S   UNL     1       3.806   3.202  17.796  0.00  0.00    +0.000 S 
ATOM     21  O   UNL     1       3.194   3.221  16.489  0.00  0.00    +0.000 OA
ATOM     22  O   UNL     1       3.917   1.992  18.577  0.00  0.00    +0.000 OA
BRANCH  20  23
ATOM     23  N   UNL     1       5.373   3.850  17.675  0.00  0.00    +0.000 NA
ATOM     24  H   UNL     1       5.495   4.623  18.328  0.00  0.00    +0.000 HD
BRANCH  23  25
ATOM     25  C   UNL     1       5.833   4.166  16.306  0.00  0.00    +0.000 C 
BRANCH  25  26
ATOM     26  C   UNL     1       5.731   5.674  16.071  0.00  0.00    +0.000 C 
BRANCH  26  27
ATOM     27  C   UNL     1       6.006   6.462  17.359  0.00  0.00    +0.000 C 
BRANCH  27  29
ATOM     28  C   UNL     1       7.830   8.065  17.601  0.00  0.00    +0.000 C 
ATOM     29  N   UNL     1       7.439   6.655  17.632  0.00  0.00    +0.000 NA
ATOM     30  C   UNL     1       7.795   6.070  18.927  0.00  0.00    +0.000 C 
ENDBRANCH  27  29
ENDBRANCH  26  27
ENDBRANCH  25  26
ENDBRANCH  23  25
ENDBRANCH  20  23
ENDBRANCH   1  20
TORSDOF 7
ENDMDL
MODEL 4
REMARK VINA RESULT:      -7.4      1.153      1.437
REMARK  Name = 
REMARK  9 active torsions:
REMARK  status: ('A' for Active; 'I' for Inactive)
REMARK    1  A    between atoms: C_1  and  N_2
REMARK    2  A    between atoms: N_2  and  C_3
REMARK    3  A    between atoms: N_2  and  C_4
REMARK    4  A    between atoms: C_4  and  C_5
REMARK    5  A    between atoms: C_5  and  C_6
REMARK    6  A    between atoms: C_6  and  N_7
REMARK    7  A    between atoms: N_7  and  S_8
REMARK    8  A    between atoms: S_8  and  C_11
REMARK    9  A    between atoms: C_17  and  C_18
REMARK                            x       y       z     vdW  Elec       q    Type
REMARK                         _______ _______ _______ _____ _____    ______ ____
ROOT
ATOM      1  C   UNL     1       3.022   4.594  18.932  0.00  0.00    +0.000 A 
ATOM      2  C   UNL     1       2.590   4.208  20.203  0.00  0.00    +0.000 A 
ATOM      3  C   UNL     1       1.973   5.137  21.050  0.00  0.00    +0.000 A 
ATOM      4  C   UNL     1       1.807   6.444  20.578  0.00  0.00    +0.000 A 
ATOM      5  N   UNL     1       1.272   7.546  21.203  0.00  0.00    +0.000 N 
ATOM      6  C   UNL     1       1.292   8.640  20.370  0.00  0.00    +0.000 A 
ATOM      7  C   UNL     1       0.851   9.943  20.582  0.00  0.00    +0.000 A 
ATOM      8  N   UNL     1       0.969  10.863  19.585  0.00  0.00    +0.000 NA
ATOM      9  C   UNL     1       1.528  10.473  18.417  0.00  0.00    +0.000 A 
ATOM     10  C   UNL     1       2.002   9.194  18.148  0.00  0.00    +0.000 A 
ATOM     11  C   UNL     1       1.873   8.239  19.170  0.00  0.00    +0.000 A 
ATOM     12  C   UNL     1       2.214   6.852  19.305  0.00  0.00    +0.000 A 
ATOM     13  C   UNL     1       2.846   5.907  18.468  0.00  0.00    +0.000 A 
ATOM     14  H   UNL     1       0.910   7.573  22.151  0.00  0.00    +0.000 HD
ENDROOT
BRANCH   7  15
ATOM     15  C   UNL     1       0.245  10.363  21.876  0.00  0.00    +0.000 C 
ATOM     16  N   UNL     1      -0.840  11.192  21.782  0.00  0.00    +0.000 N 
ATOM     17  O   UNL     1       0.691   9.990  22.956  0.00  0.00    +0.000 OA
ATOM     18  H   UNL     1      -1.169  11.484  20.868  0.00  0.00    +0.000 HD
ATOM     19  H   UNL     1      -1.292  11.525  22.619  0.00  0.00    +0.000 HD
ENDBRANCH   7  15
BRANCH   1  20
ATOM     20  S   UNL     1       3.956   3.451  17.927  0.00  0.00    +0.000 S 
ATOM     21  O   UNL     1       4.158   4.041  16.626  0.00  0.00    +0.000 OA
ATOM     22  O   UNL     1       3.326   2.162  18.098  0.00  0.00    +0.000 OA
BRANCH  20  23
ATOM     23  N   UNL     1       5.452   3.374  18.730  0.00  0.00    +0.000 NA
ATOM     24  H   UNL     1       5.404   2.736  19.523  0.00  0.00    +0.000 HD
BRANCH  23  25
ATOM     25  C   UNL     1       6.069   4.675  19.066  0.00  0.00    +0.000 C 
BRANCH  25  26
ATOM     26  C   UNL     1       7.195   4.974  18.075  0.00  0.00    +0.000 C 
BRANCH  26  27
ATOM     27  C   UNL     1       7.824   6.349  18.339  0.00  0.00    +0.000 C 
BRANCH  27  29
ATOM     28  C   UNL     1       6.079   7.326  16.940  0.00  0.00    +0.000 C 
ATOM     29  N   UNL     1       7.495   7.350  17.311  0.00  0.00    +0.000 NA
ATOM     30  C   UNL     1       7.866   8.691  17.768  0.00  0.00    +0.000 C 
ENDBRANCH  27  29
ENDBRANCH  26  27
ENDBRANCH  25  26
ENDBRANCH  23  25
ENDBRANCH  20  23
ENDBRANCH   1  20
TORSDOF 7
ENDMDL
MODEL 5
REMARK VINA RESULT:      -7.4      1.028      1.133
REMARK  Name = 
REMARK  9 active torsions:
REMARK  status: ('A' for Active; 'I' for Inactive)
REMARK    1  A    between atoms: C_1  and  N_2
REMARK    2  A    between atoms: N_2  and  C_3
REMARK    3  A    between atoms: N_2  and  C_4
REMARK    4  A    between atoms: C_4  and  C_5
REMARK    5  A    between atoms: C_5  and  C_6
REMARK    6  A    between atoms: C_6  and  N_7
REMARK    7  A    between atoms: N_7  and  S_8
REMARK    8  A    between atoms: S_8  and  C_11
REMARK    9  A    between atoms: C_17  and  C_18
REMARK                            x       y       z     vdW  Elec       q    Type
REMARK                         _______ _______ _______ _____ _____    ______ ____
ROOT
ATOM      1  C   UNL     1       2.725   5.001  18.698  0.00  0.00    +0.000 A 
ATOM      2  C   UNL     1       2.299   4.576  19.958  0.00  0.00    +0.000 A 
ATOM      3  C   UNL     1       1.727   5.487  20.853  0.00  0.00    +0.000 A 
ATOM      4  C   UNL     1       1.600   6.819  20.440  0.00  0.00    +0.000 A 
ATOM      5  N   UNL     1       1.113   7.910  21.120  0.00  0.00    +0.000 N 
ATOM      6  C   UNL     1       1.158   9.038  20.334  0.00  0.00    +0.000 A 
ATOM      7  C   UNL     1       0.765  10.344  20.609  0.00  0.00    +0.000 A 
ATOM      8  N   UNL     1       0.901  11.302  19.650  0.00  0.00    +0.000 NA
ATOM      9  C   UNL     1       1.429  10.944  18.458  0.00  0.00    +0.000 A 
ATOM     10  C   UNL     1       1.854   9.662  18.126  0.00  0.00    +0.000 A 
ATOM     11  C   UNL     1       1.707   8.669  19.109  0.00  0.00    +0.000 A 
ATOM     12  C   UNL     1       2.001   7.267  19.179  0.00  0.00    +0.000 A 
ATOM     13  C   UNL     1       2.588   6.338  18.292  0.00  0.00    +0.000 A 
ATOM     14  H   UNL     1       0.765   7.908  22.074  0.00  0.00    +0.000 HD
ENDROOT
BRANCH   7  15
ATOM     15  C   UNL     1       0.193  10.729  21.928  0.00  0.00    +0.000 C 
ATOM     16  N   UNL     1      -0.757  11.713  21.900  0.00  0.00    +0.000 N 
ATOM     17  O   UNL     1       0.552  10.197  22.974  0.00  0.00    +0.000 OA
ATOM     18  H   UNL     1      -1.016  12.133  21.014  0.00  0.00    +0.000 HD
ATOM     19  H   UNL     1      -1.178  12.031  22.759  0.00  0.00    +0.000 HD
ENDBRANCH   7  15
BRANCH   1  20
ATOM     20  S   UNL     1       3.604   3.871  17.630  0.00  0.00    +0.000 S 
ATOM     21  O   UNL     1       2.649   3.210  16.774  0.00  0.00    +0.000 OA
ATOM     22  O   UNL     1       4.510   3.138  18.483  0.00  0.00    +0.000 OA
BRANCH  20  23
ATOM     23  N   UNL     1       4.560   4.910  16.682  0.00  0.00    +0.000 NA
ATOM     24  H   UNL     1       4.002   5.680  16.316  0.00  0.00    +0.000 HD
BRANCH  23  25
ATOM     25  C   UNL     1       5.395   4.255  15.653  0.00  0.00    +0.000 C 
BRANCH  25  26
ATOM     26  C   UNL     1       6.828   4.781  15.752  0.00  0.00    +0.000 C 
BRANCH  26  27
ATOM     27  C   UNL     1       7.375   4.652  17.181  0.00  0.00    +0.000 C 
BRANCH  27  29
ATOM     28  C   UNL     1       7.667   5.712  19.359  0.00  0.00    +0.000 C 
ATOM     29  N   UNL     1       7.033   5.794  18.043  0.00  0.00    +0.000 NA
ATOM     30  C   UNL     1       7.402   7.053  17.391  0.00  0.00    +0.000 C 
ENDBRANCH  27  29
ENDBRANCH  26  27
ENDBRANCH  25  26
ENDBRANCH  23  25
ENDBRANCH  20  23
ENDBRANCH   1  20
TORSDOF 7
ENDMDL
MODEL 6
REMARK VINA RESULT:      -7.3      0.924      1.384
REMARK  Name = 
REMARK  9 active torsions:
REMARK  status: ('A' for Active; 'I' for Inactive)
REMARK    1  A    between atoms: C_1  and  N_2
REMARK    2  A    between atoms: N_2  and  C_3
REMARK    3  A    between atoms: N_2  and  C_4
REMARK    4  A    between atoms: C_4  and  C_5
REMARK    5  A    between atoms: C_5  and  C_6
REMARK    6  A    between atoms: C_6  and  N_7
REMARK    7  A    between atoms: N_7  and  S_8
REMARK    8  A    between atoms: S_8  and  C_11
REMARK    9  A    between atoms: C_17  and  C_18
REMARK                            x       y       z     vdW  Elec       q    Type
REMARK                         _______ _______ _______ _____ _____    ______ ____
ROOT
ATOM      1  C   UNL     1       3.149   4.070  19.392  0.00  0.00    +0.000 A 
ATOM      2  C   UNL     1       2.592   3.901  20.662  0.00  0.00    +0.000 A 
ATOM      3  C   UNL     1       1.944   4.968  21.294  0.00  0.00    +0.000 A 
ATOM      4  C   UNL     1       1.875   6.189  20.613  0.00  0.00    +0.000 A 
ATOM      5  N   UNL     1       1.335   7.391  21.009  0.00  0.00    +0.000 N 
ATOM      6  C   UNL     1       1.474   8.339  20.022  0.00  0.00    +0.000 A 
ATOM      7  C   UNL     1       1.071   9.670  19.990  0.00  0.00    +0.000 A 
ATOM      8  N   UNL     1       1.314  10.418  18.878  0.00  0.00    +0.000 NA
ATOM      9  C   UNL     1       1.955   9.834  17.841  0.00  0.00    +0.000 A 
ATOM     10  C   UNL     1       2.396   8.516  17.817  0.00  0.00    +0.000 A 
ATOM     11  C   UNL     1       2.138   7.737  18.957  0.00  0.00    +0.000 A 
ATOM     12  C   UNL     1       2.407   6.380  19.336  0.00  0.00    +0.000 A 
ATOM     13  C   UNL     1       3.070   5.297  18.716  0.00  0.00    +0.000 A 
ATOM     14  H   UNL     1       0.893   7.576  21.904  0.00  0.00    +0.000 HD
ENDROOT
BRANCH   7  15
ATOM     15  C   UNL     1       0.373  10.306  21.142  0.00  0.00    +0.000 C 
ATOM     16  N   UNL     1       0.402  11.673  21.172  0.00  0.00    +0.000 N 
ATOM     17  O   UNL     1      -0.191   9.645  22.007  0.00  0.00    +0.000 OA
ATOM     18  H   UNL     1       0.890  12.180  20.441  0.00  0.00    +0.000 HD
ATOM     19  H   UNL     1      -0.040  12.169  21.931  0.00  0.00    +0.000 HD
ENDBRANCH   7  15
BRANCH   1  20
ATOM     20  S   UNL     1       4.117   2.757  18.665  0.00  0.00    +0.000 S 
ATOM     21  O   UNL     1       3.278   2.015  17.755  0.00  0.00    +0.000 OA
ATOM     22  O   UNL     1       4.815   2.122  19.759  0.00  0.00    +0.000 OA
BRANCH  20  23
ATOM     23  N   UNL     1       5.287   3.601  17.765  0.00  0.00    +0.000 NA
ATOM     24  H   UNL     1       5.695   3.000  17.050  0.00  0.00    +0.000 HD
BRANCH  23  25
ATOM     25  C   UNL     1       6.297   4.337  18.554  0.00  0.00    +0.000 C 
BRANCH  25  26
ATOM     26  C   UNL     1       7.448   4.758  17.639  0.00  0.00    +0.000 C 
BRANCH  26  27
ATOM     27  C   UNL     1       7.190   6.135  17.010  0.00  0.00    +0.000 C 
BRANCH  27  29
ATOM     28  C   UNL     1       6.966   4.786  14.989  0.00  0.00    +0.000 C 
ATOM     29  N   UNL     1       6.662   6.062  15.639  0.00  0.00    +0.000 NA
ATOM     30  C   UNL     1       5.214   6.287  15.637  0.00  0.00    +0.000 C 
ENDBRANCH  27  29
ENDBRANCH  26  27
ENDBRANCH  25  26
ENDBRANCH  23  25
ENDBRANCH  20  23
ENDBRANCH   1  20
TORSDOF 7
ENDMDL
MODEL 7
REMARK VINA RESULT:      -7.2      3.322      8.254
REMARK  Name = 
REMARK  9 active torsions:
REMARK  status: ('A' for Active; 'I' for Inactive)
REMARK    1  A    between atoms: C_1  and  N_2
REMARK    2  A    between atoms: N_2  and  C_3
REMARK    3  A    between atoms: N_2  and  C_4
REMARK    4  A    between atoms: C_4  and  C_5
REMARK    5  A    between atoms: C_5  and  C_6
REMARK    6  A    between atoms: C_6  and  N_7
REMARK    7  A    between atoms: N_7  and  S_8
REMARK    8  A    between atoms: S_8  and  C_11
REMARK    9  A    between atoms: C_17  and  C_18
REMARK                            x       y       z     vdW  Elec       q    Type
REMARK                         _______ _______ _______ _____ _____    ______ ____
ROOT
ATOM      1  C   UNL     1       1.176   9.363  19.675  0.00  0.00    +0.000 A 
ATOM      2  C   UNL     1       1.696   9.555  18.393  0.00  0.00    +0.000 A 
ATOM      3  C   UNL     1       2.359   8.510  17.738  0.00  0.00    +0.000 A 
ATOM      4  C   UNL     1       2.476   7.286  18.408  0.00  0.00    +0.000 A 
ATOM      5  N   UNL     1       3.096   6.123  18.018  0.00  0.00    +0.000 N 
ATOM      6  C   UNL     1       2.963   5.150  18.982  0.00  0.00    +0.000 A 
ATOM      7  C   UNL     1       3.421   3.836  19.004  0.00  0.00    +0.000 A 
ATOM      8  N   UNL     1       3.150   3.049  20.082  0.00  0.00    +0.000 NA
ATOM      9  C   UNL     1       2.450   3.585  21.106  0.00  0.00    +0.000 A 
ATOM     10  C   UNL     1       1.978   4.893  21.152  0.00  0.00    +0.000 A 
ATOM     11  C   UNL     1       2.246   5.705  20.037  0.00  0.00    +0.000 A 
ATOM     12  C   UNL     1       1.949   7.063  19.683  0.00  0.00    +0.000 A 
ATOM     13  C   UNL     1       1.294   8.131  20.335  0.00  0.00    +0.000 A 
ATOM     14  H   UNL     1       3.594   5.980  17.145  0.00  0.00    +0.000 HD
ENDROOT
BRANCH   7  15
ATOM     15  C   UNL     1       4.200   3.258  17.874  0.00  0.00    +0.000 C 
ATOM     16  N   UNL     1       4.161   1.896  17.761  0.00  0.00    +0.000 N 
ATOM     17  O   UNL     1       4.836   3.961  17.094  0.00  0.00    +0.000 OA
ATOM     18  H   UNL     1       3.631   1.352  18.434  0.00  0.00    +0.000 HD
ATOM     19  H   UNL     1       4.676   1.437  17.026  0.00  0.00    +0.000 HD
ENDBRANCH   7  15
BRANCH   1  20
ATOM     20  S   UNL     1       0.483  10.747  20.567  0.00  0.00    +0.000 S 
ATOM     21  O   UNL     1       1.564  11.542  21.096  0.00  0.00    +0.000 OA
ATOM     22  O   UNL     1      -0.554  10.199  21.410  0.00  0.00    +0.000 OA
BRANCH  20  23
ATOM     23  N   UNL     1      -0.299  11.633  19.344  0.00  0.00    +0.000 NA
ATOM     24  H   UNL     1      -0.042  12.617  19.392  0.00  0.00    +0.000 HD
BRANCH  23  25
ATOM     25  C   UNL     1      -1.756  11.416  19.226  0.00  0.00    +0.000 C 
BRANCH  25  26
ATOM     26  C   UNL     1      -2.020  10.248  18.273  0.00  0.00    +0.000 C 
BRANCH  26  27
ATOM     27  C   UNL     1      -2.148  10.728  16.820  0.00  0.00    +0.000 C 
BRANCH  27  29
ATOM     28  C   UNL     1      -4.496  11.340  16.567  0.00  0.00    +0.000 C 
ATOM     29  N   UNL     1      -3.442  10.392  16.206  0.00  0.00    +0.000 NA
ATOM     30  C   UNL     1      -3.312  10.325  14.748  0.00  0.00    +0.000 C 
ENDBRANCH  27  29
ENDBRANCH  26  27
ENDBRANCH  25  26
ENDBRANCH  23  25
ENDBRANCH  20  23
ENDBRANCH   1  20
TORSDOF 7
ENDMDL
MODEL 8
REMARK VINA RESULT:      -7.2      3.051      4.872
REMARK  Name = 
REMARK  9 active torsions:
REMARK  status: ('A' for Active; 'I' for Inactive)
REMARK    1  A    between atoms: C_1  and  N_2
REMARK    2  A    between atoms: N_2  and  C_3
REMARK    3  A    between atoms: N_2  and  C_4
REMARK    4  A    between atoms: C_4  and  C_5
REMARK    5  A    between atoms: C_5  and  C_6
REMARK    6  A    between atoms: C_6  and  N_7
REMARK    7  A    between atoms: N_7  and  S_8
REMARK    8  A    between atoms: S_8  and  C_11
REMARK    9  A    between atoms: C_17  and  C_18
REMARK                            x       y       z     vdW  Elec       q    Type
REMARK                         _______ _______ _______ _____ _____    ______ ____
ROOT
ATOM      1  C   UNL     1       2.293   7.590  19.047  0.00  0.00    +0.000 A 
ATOM      2  C   UNL     1       2.377   8.451  17.951  0.00  0.00    +0.000 A 
ATOM      3  C   UNL     1       1.747   9.701  17.987  0.00  0.00    +0.000 A 
ATOM      4  C   UNL     1       1.044  10.048  19.147  0.00  0.00    +0.000 A 
ATOM      5  N   UNL     1       0.317  11.180  19.432  0.00  0.00    +0.000 N 
ATOM      6  C   UNL     1      -0.207  11.117  20.703  0.00  0.00    +0.000 A 
ATOM      7  C   UNL     1      -0.989  12.033  21.400  0.00  0.00    +0.000 A 
ATOM      8  N   UNL     1      -1.384  11.747  22.672  0.00  0.00    +0.000 NA
ATOM      9  C   UNL     1      -1.005  10.566  23.209  0.00  0.00    +0.000 A 
ATOM     10  C   UNL     1      -0.238   9.604  22.562  0.00  0.00    +0.000 A 
ATOM     11  C   UNL     1       0.180   9.899  21.253  0.00  0.00    +0.000 A 
ATOM     12  C   UNL     1       0.959   9.213  20.264  0.00  0.00    +0.000 A 
ATOM     13  C   UNL     1       1.590   7.950  20.207  0.00  0.00    +0.000 A 
ATOM     14  H   UNL     1       0.172  11.964  18.806  0.00  0.00    +0.000 HD
ENDROOT
BRANCH   7  15
ATOM     15  C   UNL     1      -1.408  13.327  20.794  0.00  0.00    +0.000 C 
ATOM     16  N   UNL     1      -1.953  14.237  21.657  0.00  0.00    +0.000 N 
ATOM     17  O   UNL     1      -1.273  13.560  19.597  0.00  0.00    +0.000 OA
ATOM     18  H   UNL     1      -2.056  13.999  22.637  0.00  0.00    +0.000 HD
ATOM     19  H   UNL     1      -2.270  15.131  21.312  0.00  0.00    +0.000 HD
ENDBRANCH   7  15
BRANCH   1  20
ATOM     20  S   UNL     1       2.955   5.936  18.929  0.00  0.00    +0.000 S 
ATOM     21  O   UNL     1       4.387   6.023  18.768  0.00  0.00    +0.000 OA
ATOM     22  O   UNL     1       2.116   5.236  17.985  0.00  0.00    +0.000 OA
BRANCH  20  23
ATOM     23  N   UNL     1       2.617   5.281  20.462  0.00  0.00    +0.000 NA
ATOM     24  H   UNL     1       3.417   4.761  20.816  0.00  0.00    +0.000 HD
BRANCH  23  25
ATOM     25  C   UNL     1       1.343   4.541  20.577  0.00  0.00    +0.000 C 
BRANCH  25  26
ATOM     26  C   UNL     1       1.614   3.149  21.152  0.00  0.00    +0.000 C 
BRANCH  26  27
ATOM     27  C   UNL     1       1.996   2.152  20.049  0.00  0.00    +0.000 C 
BRANCH  27  29
ATOM     28  C   UNL     1       4.431   2.113  20.197  0.00  0.00    +0.000 C 
ATOM     29  N   UNL     1       3.268   2.474  19.385  0.00  0.00    +0.000 NA
ATOM     30  C   UNL     1       3.346   1.808  18.082  0.00  0.00    +0.000 C 
ENDBRANCH  27  29
ENDBRANCH  26  27
ENDBRANCH  25  26
ENDBRANCH  23  25
ENDBRANCH  20  23
ENDBRANCH   1  20
TORSDOF 7
ENDMDL
MODEL 9
REMARK VINA RESULT:      -7.2      3.161      8.207
REMARK  Name = 
REMARK  9 active torsions:
REMARK  status: ('A' for Active; 'I' for Inactive)
REMARK    1  A    between atoms: C_1  and  N_2
REMARK    2  A    between atoms: N_2  and  C_3
REMARK    3  A    between atoms: N_2  and  C_4
REMARK    4  A    between atoms: C_4  and  C_5
REMARK    5  A    between atoms: C_5  and  C_6
REMARK    6  A    between atoms: C_6  and  N_7
REMARK    7  A    between atoms: N_7  and  S_8
REMARK    8  A    between atoms: S_8  and  C_11
REMARK    9  A    between atoms: C_17  and  C_18
REMARK                            x       y       z     vdW  Elec       q    Type
REMARK                         _______ _______ _______ _____ _____    ______ ____
ROOT
ATOM      1  C   UNL     1       1.330   9.041  19.974  0.00  0.00    +0.000 A 
ATOM      2  C   UNL     1       1.710   9.218  18.642  0.00  0.00    +0.000 A 
ATOM      3  C   UNL     1       2.258   8.151  17.919  0.00  0.00    +0.000 A 
ATOM      4  C   UNL     1       2.404   6.922  18.572  0.00  0.00    +0.000 A 
ATOM      5  N   UNL     1       2.935   5.738  18.116  0.00  0.00    +0.000 N 
ATOM      6  C   UNL     1       2.875   4.768  19.089  0.00  0.00    +0.000 A 
ATOM      7  C   UNL     1       3.284   3.438  19.061  0.00  0.00    +0.000 A 
ATOM      8  N   UNL     1       3.107   2.658  20.164  0.00  0.00    +0.000 NA
ATOM      9  C   UNL     1       2.544   3.216  21.259  0.00  0.00    +0.000 A 
ATOM     10  C   UNL     1       2.128   4.539  21.356  0.00  0.00    +0.000 A 
ATOM     11  C   UNL     1       2.299   5.345  20.218  0.00  0.00    +0.000 A 
ATOM     12  C   UNL     1       2.015   6.714  19.898  0.00  0.00    +0.000 A 
ATOM     13  C   UNL     1       1.475   7.802  20.619  0.00  0.00    +0.000 A 
ATOM     14  H   UNL     1       3.326   5.581  17.194  0.00  0.00    +0.000 HD
ENDROOT
BRANCH   7  15
ATOM     15  C   UNL     1       3.911   2.837  17.852  0.00  0.00    +0.000 C 
ATOM     16  N   UNL     1       4.094   1.482  17.890  0.00  0.00    +0.000 N 
ATOM     17  O   UNL     1       4.242   3.514  16.885  0.00  0.00    +0.000 OA
ATOM     18  H   UNL     1       3.815   0.961  18.715  0.00  0.00    +0.000 HD
ATOM     19  H   UNL     1       4.525   1.010  17.109  0.00  0.00    +0.000 HD
ENDBRANCH   7  15
BRANCH   1  20
ATOM     20  S   UNL     1       0.790  10.445  20.937  0.00  0.00    +0.000 S 
ATOM     21  O   UNL     1       1.316  11.646  20.335  0.00  0.00    +0.000 OA
ATOM     22  O   UNL     1       1.040  10.103  22.317  0.00  0.00    +0.000 OA
BRANCH  20  23
ATOM     23  N   UNL     1      -0.897  10.423  20.727  0.00  0.00    +0.000 NA
ATOM     24  H   UNL     1      -1.229   9.474  20.566  0.00  0.00    +0.000 HD
BRANCH  23  25
ATOM     25  C   UNL     1      -1.437  11.401  19.759  0.00  0.00    +0.000 C 
BRANCH  25  26
ATOM     26  C   UNL     1      -1.661  10.711  18.412  0.00  0.00    +0.000 C 
BRANCH  26  27
ATOM     27  C   UNL     1      -2.109  11.712  17.337  0.00  0.00    +0.000 C 
BRANCH  27  29
ATOM     28  C   UNL     1      -2.752   9.716  16.090  0.00  0.00    +0.000 C 
ATOM     29  N   UNL     1      -3.026  11.131  16.343  0.00  0.00    +0.000 NA
ATOM     30  C   UNL     1      -4.416  11.299  16.772  0.00  0.00    +0.000 C 
ENDBRANCH  27  29
ENDBRANCH  26  27
ENDBRANCH  25  26
ENDBRANCH  23  25
ENDBRANCH  20  23
ENDBRANCH   1  20
TORSDOF 7
ENDMDL
