MODEL 1
REMARK VINA RESULT:      -9.6      0.000      0.000
REMARK  Name = 
REMARK  10 active torsions:
REMARK  status: ('A' for Active; 'I' for Inactive)
REMARK    1  A    between atoms: C_2  and  C_3
REMARK    2  A    between atoms: C_2  and  C_4
REMARK    3  A    between atoms: C_8  and  C_9
REMARK    4  A    between atoms: C_9  and  C_10
REMARK    5  A    between atoms: C_9  and  C_11
REMARK    6  A    between atoms: C_9  and  N_12
REMARK    7  A    between atoms: N_15  and  C_16
REMARK    8  A    between atoms: C_21  and  C_22
REMARK    9  A    between atoms: N_24  and  C_25
REMARK   10  A    between atoms: N_24  and  C_26
REMARK                            x       y       z     vdW  Elec       q    Type
REMARK                         _______ _______ _______ _____ _____    ______ ____
ROOT
ATOM      1  N   UNL     1       7.057   7.121  16.702  0.00  0.00    +0.000 N 
ATOM      2  C   UNL     1       7.816   7.804  17.632  0.00  0.00    +0.000 C 
ATOM      3  O   UNL     1       8.274   7.251  18.625  0.00  0.00    +0.000 OA
ATOM      4  N   UNL     1       7.974   9.143  17.343  0.00  0.00    +0.000 N 
ATOM      5  H   UNL     1       6.551   7.636  16.001  0.00  0.00    +0.000 HD
ATOM      6  H   UNL     1       7.358   9.535  16.649  0.00  0.00    +0.000 HD
ENDROOT
BRANCH   4   7
ATOM      7  C   UNL     1       8.668  10.054  18.189  0.00  0.00    +0.000 A 
ATOM      8  C   UNL     1       9.011   9.745  19.506  0.00  0.00    +0.000 A 
ATOM      9  C   UNL     1       9.565  10.710  20.346  0.00  0.00    +0.000 A 
ATOM     10  C   UNL     1       9.767  12.012  19.887  0.00  0.00    +0.000 A 
ATOM     11 CL   UNL     1      10.368  13.131  21.064  0.00  0.00    +0.000 Cl
ATOM     12  C   UNL     1       9.465  12.343  18.552  0.00  0.00    +0.000 A 
ATOM     13  C   UNL     1       8.989  11.327  17.697  0.00  0.00    +0.000 A 
BRANCH  12  14
ATOM     14  C   UNL     1       9.699  13.730  18.045  0.00  0.00    +0.000 C 
ATOM     15  O   UNL     1       8.768  14.530  18.151  0.00  0.00    +0.000 OA
ATOM     16  N   UNL     1      10.920  14.120  17.471  0.00  0.00    +0.000 N 
ATOM     17  C   UNL     1      12.162  13.363  17.441  0.00  0.00    +0.000 C 
ATOM     18  C   UNL     1      11.032  15.497  17.003  0.00  0.00    +0.000 C 
ENDBRANCH  12  14
ENDBRANCH   4   7
BRANCH   1  19
ATOM     19  C   UNL     1       6.698   5.695  16.889  0.00  0.00    +0.000 C 
ATOM     20  C   UNL     1       7.562   5.091  18.026  0.00  0.00    +0.000 C 
ATOM     21  C   UNL     1       6.968   4.889  15.593  0.00  0.00    +0.000 C 
BRANCH  19  26
ATOM     22  C   UNL     1       3.069   6.556  18.040  0.00  0.00    +0.000 A 
ATOM     23  C   UNL     1       2.480   5.291  17.980  0.00  0.00    +0.000 A 
ATOM     24  C   UNL     1       3.204   4.186  17.524  0.00  0.00    +0.000 A 
ATOM     25  C   UNL     1       4.538   4.325  17.130  0.00  0.00    +0.000 A 
ATOM     26  C   UNL     1       5.184   5.570  17.197  0.00  0.00    +0.000 A 
ATOM     27  C   UNL     1       4.417   6.668  17.646  0.00  0.00    +0.000 A 
BRANCH  22  29
ATOM     28  C   UNL     1       2.049   8.796  17.790  0.00  0.00    +0.000 C 
ATOM     29  C   UNL     1       2.340   7.738  18.571  0.00  0.00    +0.000 C 
ATOM     30  C   UNL     1       1.939   7.733  20.022  0.00  0.00    +0.000 C 
ENDBRANCH  22  29
ENDBRANCH  19  26
ENDBRANCH   1  19
TORSDOF 5
ENDMDL
MODEL 2
REMARK VINA RESULT:      -9.5      0.806      2.133
REMARK  Name = 
REMARK  10 active torsions:
REMARK  status: ('A' for Active; 'I' for Inactive)
REMARK    1  A    between atoms: C_2  and  C_3
REMARK    2  A    between atoms: C_2  and  C_4
REMARK    3  A    between atoms: C_8  and  C_9
REMARK    4  A    between atoms: C_9  and  C_10
REMARK    5  A    between atoms: C_9  and  C_11
REMARK    6  A    between atoms: C_9  and  N_12
REMARK    7  A    between atoms: N_15  and  C_16
REMARK    8  A    between atoms: C_21  and  C_22
REMARK    9  A    between atoms: N_24  and  C_25
REMARK   10  A    between atoms: N_24  and  C_26
REMARK                            x       y       z     vdW  Elec       q    Type
REMARK                         _______ _______ _______ _____ _____    ______ ____
ROOT
ATOM      1  N   UNL     1       6.963   7.402  16.980  0.00  0.00    +0.000 N 
ATOM      2  C   UNL     1       7.833   8.085  17.807  0.00  0.00    +0.000 C 
ATOM      3  O   UNL     1       8.428   7.528  18.722  0.00  0.00    +0.000 OA
ATOM      4  N   UNL     1       7.936   9.430  17.515  0.00  0.00    +0.000 N 
ATOM      5  H   UNL     1       6.360   7.919  16.360  0.00  0.00    +0.000 HD
ATOM      6  H   UNL     1       7.227   9.821  16.917  0.00  0.00    +0.000 HD
ENDROOT
BRANCH   4   7
ATOM      7  C   UNL     1       8.728  10.340  18.271  0.00  0.00    +0.000 A 
ATOM      8  C   UNL     1       9.192  10.048  19.554  0.00  0.00    +0.000 A 
ATOM      9  C   UNL     1       9.845  11.016  20.316  0.00  0.00    +0.000 A 
ATOM     10  C   UNL     1      10.026  12.305  19.813  0.00  0.00    +0.000 A 
ATOM     11 CL   UNL     1      10.762  13.432  20.903  0.00  0.00    +0.000 Cl
ATOM     12  C   UNL     1       9.601  12.618  18.508  0.00  0.00    +0.000 A 
ATOM     13  C   UNL     1       9.023  11.597  17.724  0.00  0.00    +0.000 A 
BRANCH  12  14
ATOM     14  C   UNL     1       9.812  13.990  17.952  0.00  0.00    +0.000 C 
ATOM     15  O   UNL     1       8.881  14.789  18.063  0.00  0.00    +0.000 OA
ATOM     16  N   UNL     1      11.013  14.368  17.328  0.00  0.00    +0.000 N 
ATOM     17  C   UNL     1      12.256  13.616  17.282  0.00  0.00    +0.000 C 
ATOM     18  C   UNL     1      11.102  15.730  16.816  0.00  0.00    +0.000 C 
ENDBRANCH  12  14
ENDBRANCH   4   7
BRANCH   1  19
ATOM     19  C   UNL     1       6.649   5.970  17.196  0.00  0.00    +0.000 C 
ATOM     20  C   UNL     1       7.590   5.396  18.287  0.00  0.00    +0.000 C 
ATOM     21  C   UNL     1       6.865   5.161  15.893  0.00  0.00    +0.000 C 
BRANCH  19  26
ATOM     22  C   UNL     1       3.193   4.368  18.049  0.00  0.00    +0.000 A 
ATOM     23  C   UNL     1       2.388   5.510  18.079  0.00  0.00    +0.000 A 
ATOM     24  C   UNL     1       2.942   6.779  17.891  0.00  0.00    +0.000 A 
ATOM     25  C   UNL     1       4.311   6.930  17.657  0.00  0.00    +0.000 A 
ATOM     26  C   UNL     1       5.159   5.812  17.590  0.00  0.00    +0.000 A 
ATOM     27  C   UNL     1       4.569   4.545  17.802  0.00  0.00    +0.000 A 
BRANCH  22  29
ATOM     28  C   UNL     1       1.331   2.807  18.512  0.00  0.00    +0.000 C 
ATOM     29  C   UNL     1       2.625   3.002  18.192  0.00  0.00    +0.000 C 
ATOM     30  C   UNL     1       3.541   1.826  17.981  0.00  0.00    +0.000 C 
ENDBRANCH  22  29
ENDBRANCH  19  26
ENDBRANCH   1  19
TORSDOF 5
ENDMDL
MODEL 3
REMARK VINA RESULT:      -9.5      1.091      2.298
REMARK  Name = 
REMARK  10 active torsions:
REMARK  status: ('A' for Active; 'I' for Inactive)
REMARK    1  A    between atoms: C_2  and  C_3
REMARK    2  A    between atoms: C_2  and  C_4
REMARK    3  A    between atoms: C_8  and  C_9
REMARK    4  A    between atoms: C_9  and  C_10
REMARK    5  A    between atoms: C_9  and  C_11
REMARK    6  A    between atoms: C_9  and  N_12
REMARK    7  A    between atoms: N_15  and  C_16
REMARK    8  A    between atoms: C_21  and  C_22
REMARK    9  A    between atoms: N_24  and  C_25
REMARK   10  A    between atoms: N_24  and  C_26
REMARK                            x       y       z     vdW  Elec       q    Type
REMARK                         _______ _______ _______ _____ _____    ______ ____
ROOT
ATOM      1  N   UNL     1       7.084   7.193  16.703  0.00  0.00    +0.000 N 
ATOM      2  C   UNL     1       7.873   7.834  17.639  0.00  0.00    +0.000 C 
ATOM      3  O   UNL     1       8.291   7.258  18.636  0.00  0.00    +0.000 OA
ATOM      4  N   UNL     1       8.110   9.161  17.348  0.00  0.00    +0.000 N 
ATOM      5  H   UNL     1       6.613   7.735  15.997  0.00  0.00    +0.000 HD
ATOM      6  H   UNL     1       7.522   9.586  16.649  0.00  0.00    +0.000 HD
ENDROOT
BRANCH   4   7
ATOM      7  C   UNL     1       8.848  10.033  18.198  0.00  0.00    +0.000 A 
ATOM      8  C   UNL     1       8.853   9.902  19.587  0.00  0.00    +0.000 A 
ATOM      9  C   UNL     1       9.474  10.856  20.393  0.00  0.00    +0.000 A 
ATOM     10  C   UNL     1      10.083  11.973  19.821  0.00  0.00    +0.000 A 
ATOM     11 CL   UNL     1      10.726  13.126  20.943  0.00  0.00    +0.000 Cl
ATOM     12  C   UNL     1      10.124  12.113  18.421  0.00  0.00    +0.000 A 
ATOM     13  C   UNL     1       9.568  11.090  17.624  0.00  0.00    +0.000 A 
BRANCH  12  14
ATOM     14  C   UNL     1      10.795  13.295  17.798  0.00  0.00    +0.000 C 
ATOM     15  O   UNL     1      11.908  13.110  17.301  0.00  0.00    +0.000 OA
ATOM     16  N   UNL     1      10.198  14.566  17.771  0.00  0.00    +0.000 N 
ATOM     17  C   UNL     1       8.833  14.906  18.140  0.00  0.00    +0.000 C 
ATOM     18  C   UNL     1      10.949  15.646  17.143  0.00  0.00    +0.000 C 
ENDBRANCH  12  14
ENDBRANCH   4   7
BRANCH   1  19
ATOM     19  C   UNL     1       6.643   5.790  16.890  0.00  0.00    +0.000 C 
ATOM     20  C   UNL     1       7.605   5.074  17.873  0.00  0.00    +0.000 C 
ATOM     21  C   UNL     1       6.668   5.026  15.542  0.00  0.00    +0.000 C 
BRANCH  19  26
ATOM     22  C   UNL     1       3.134   4.496  18.008  0.00  0.00    +0.000 A 
ATOM     23  C   UNL     1       2.443   5.706  18.115  0.00  0.00    +0.000 A 
ATOM     24  C   UNL     1       3.095   6.923  17.895  0.00  0.00    +0.000 A 
ATOM     25  C   UNL     1       4.449   6.952  17.550  0.00  0.00    +0.000 A 
ATOM     26  C   UNL     1       5.181   5.762  17.403  0.00  0.00    +0.000 A 
ATOM     27  C   UNL     1       4.495   4.551  17.650  0.00  0.00    +0.000 A 
BRANCH  22  29
ATOM     28  C   UNL     1       1.140   3.104  18.461  0.00  0.00    +0.000 C 
ATOM     29  C   UNL     1       2.455   3.185  18.184  0.00  0.00    +0.000 C 
ATOM     30  C   UNL     1       3.283   1.934  18.057  0.00  0.00    +0.000 C 
ENDBRANCH  22  29
ENDBRANCH  19  26
ENDBRANCH   1  19
TORSDOF 5
ENDMDL
MODEL 4
REMARK VINA RESULT:      -9.4      5.869      7.966
REMARK  Name = 
REMARK  10 active torsions:
REMARK  status: ('A' for Active; 'I' for Inactive)
REMARK    1  A    between atoms: C_2  and  C_3
REMARK    2  A    between atoms: C_2  and  C_4
REMARK    3  A    between atoms: C_8  and  C_9
REMARK    4  A    between atoms: C_9  and  C_10
REMARK    5  A    between atoms: C_9  and  C_11
REMARK    6  A    between atoms: C_9  and  N_12
REMARK    7  A    between atoms: N_15  and  C_16
REMARK    8  A    between atoms: C_21  and  C_22
REMARK    9  A    between atoms: N_24  and  C_25
REMARK   10  A    between atoms: N_24  and  C_26
REMARK                            x       y       z     vdW  Elec       q    Type
REMARK                         _______ _______ _______ _____ _____    ______ ____
ROOT
ATOM      1  N   UNL     1       4.657   5.942  16.388  0.00  0.00    +0.000 N 
ATOM      2  C   UNL     1       4.126   6.326  17.604  0.00  0.00    +0.000 C 
ATOM      3  O   UNL     1       4.459   5.789  18.654  0.00  0.00    +0.000 OA
ATOM      4  N   UNL     1       3.188   7.333  17.506  0.00  0.00    +0.000 N 
ATOM      5  H   UNL     1       4.235   6.274  15.536  0.00  0.00    +0.000 HD
ATOM      6  H   UNL     1       2.816   7.521  16.589  0.00  0.00    +0.000 HD
ENDROOT
BRANCH   4   7
ATOM      7  C   UNL     1       2.468   7.847  18.621  0.00  0.00    +0.000 A 
ATOM      8  C   UNL     1       2.262   7.111  19.788  0.00  0.00    +0.000 A 
ATOM      9  C   UNL     1       1.435   7.595  20.802  0.00  0.00    +0.000 A 
ATOM     10  C   UNL     1       0.781   8.818  20.655  0.00  0.00    +0.000 A 
ATOM     11 CL   UNL     1      -0.291   9.249  21.945  0.00  0.00    +0.000 Cl
ATOM     12  C   UNL     1       1.000   9.599  19.504  0.00  0.00    +0.000 A 
ATOM     13  C   UNL     1       1.909   9.130  18.533  0.00  0.00    +0.000 A 
BRANCH  12  14
ATOM     14  C   UNL     1       0.321  10.923  19.349  0.00  0.00    +0.000 C 
ATOM     15  O   UNL     1       0.826  11.883  19.932  0.00  0.00    +0.000 OA
ATOM     16  N   UNL     1      -0.840  11.082  18.574  0.00  0.00    +0.000 N 
ATOM     17  C   UNL     1      -1.446  10.104  17.684  0.00  0.00    +0.000 C 
ATOM     18  C   UNL     1      -1.419  12.418  18.500  0.00  0.00    +0.000 C 
ENDBRANCH  12  14
ENDBRANCH   4   7
BRANCH   1  19
ATOM     19  C   UNL     1       5.610   4.811  16.279  0.00  0.00    +0.000 C 
ATOM     20  C   UNL     1       4.922   3.510  16.767  0.00  0.00    +0.000 C 
ATOM     21  C   UNL     1       6.858   5.062  17.162  0.00  0.00    +0.000 C 
BRANCH  19  26
ATOM     22  C   UNL     1       5.924   3.652  12.565  0.00  0.00    +0.000 A 
ATOM     23  C   UNL     1       7.135   4.255  12.216  0.00  0.00    +0.000 A 
ATOM     24  C   UNL     1       7.817   5.068  13.125  0.00  0.00    +0.000 A 
ATOM     25  C   UNL     1       7.305   5.285  14.408  0.00  0.00    +0.000 A 
ATOM     26  C   UNL     1       6.105   4.680  14.816  0.00  0.00    +0.000 A 
ATOM     27  C   UNL     1       5.433   3.878  13.866  0.00  0.00    +0.000 A 
BRANCH  22  29
ATOM     28  C   UNL     1       4.002   3.063  11.123  0.00  0.00    +0.000 C 
ATOM     29  C   UNL     1       5.204   2.740  11.637  0.00  0.00    +0.000 C 
ATOM     30  C   UNL     1       5.849   1.426  11.290  0.00  0.00    +0.000 C 
ENDBRANCH  22  29
ENDBRANCH  19  26
ENDBRANCH   1  19
TORSDOF 5
ENDMDL
MODEL 5
REMARK VINA RESULT:      -9.4      1.159      1.968
REMARK  Name = 
REMARK  10 active torsions:
REMARK  status: ('A' for Active; 'I' for Inactive)
REMARK    1  A    between atoms: C_2  and  C_3
REMARK    2  A    between atoms: C_2  and  C_4
REMARK    3  A    between atoms: C_8  and  C_9
REMARK    4  A    between atoms: C_9  and  C_10
REMARK    5  A    between atoms: C_9  and  C_11
REMARK    6  A    between atoms: C_9  and  N_12
REMARK    7  A    between atoms: N_15  and  C_16
REMARK    8  A    between atoms: C_21  and  C_22
REMARK    9  A    between atoms: N_24  and  C_25
REMARK   10  A    between atoms: N_24  and  C_26
REMARK                            x       y       z     vdW  Elec       q    Type
REMARK                         _______ _______ _______ _____ _____    ______ ____
ROOT
ATOM      1  N   UNL     1       7.039   7.195  16.763  0.00  0.00    +0.000 N 
ATOM      2  C   UNL     1       7.767   7.885  17.712  0.00  0.00    +0.000 C 
ATOM      3  O   UNL     1       8.088   7.376  18.779  0.00  0.00    +0.000 OA
ATOM      4  N   UNL     1       8.063   9.183  17.347  0.00  0.00    +0.000 N 
ATOM      5  H   UNL     1       6.641   7.693  15.984  0.00  0.00    +0.000 HD
ATOM      6  H   UNL     1       7.545   9.568  16.574  0.00  0.00    +0.000 HD
ENDROOT
BRANCH   4   7
ATOM      7  C   UNL     1       8.753  10.098  18.191  0.00  0.00    +0.000 A 
ATOM      8  C   UNL     1       9.088   9.799  19.512  0.00  0.00    +0.000 A 
ATOM      9  C   UNL     1       9.639  10.769  20.348  0.00  0.00    +0.000 A 
ATOM     10  C   UNL     1       9.845  12.067  19.881  0.00  0.00    +0.000 A 
ATOM     11 CL   UNL     1      10.441  13.195  21.053  0.00  0.00    +0.000 Cl
ATOM     12  C   UNL     1       9.551  12.389  18.542  0.00  0.00    +0.000 A 
ATOM     13  C   UNL     1       9.078  11.367  17.691  0.00  0.00    +0.000 A 
BRANCH  12  14
ATOM     14  C   UNL     1       9.791  13.772  18.025  0.00  0.00    +0.000 C 
ATOM     15  O   UNL     1       8.879  14.588  18.168  0.00  0.00    +0.000 OA
ATOM     16  N   UNL     1      10.996  14.140  17.404  0.00  0.00    +0.000 N 
ATOM     17  C   UNL     1      12.221  13.361  17.326  0.00  0.00    +0.000 C 
ATOM     18  C   UNL     1      11.114  15.515  16.933  0.00  0.00    +0.000 C 
ENDBRANCH  12  14
ENDBRANCH   4   7
BRANCH   1  19
ATOM     19  C   UNL     1       6.546   5.819  17.013  0.00  0.00    +0.000 C 
ATOM     20  C   UNL     1       7.607   5.031  17.824  0.00  0.00    +0.000 C 
ATOM     21  C   UNL     1       6.305   5.074  15.675  0.00  0.00    +0.000 C 
BRANCH  19  26
ATOM     22  C   UNL     1       3.520   4.841  19.275  0.00  0.00    +0.000 A 
ATOM     23  C   UNL     1       2.615   5.850  18.935  0.00  0.00    +0.000 A 
ATOM     24  C   UNL     1       2.978   6.864  18.045  0.00  0.00    +0.000 A 
ATOM     25  C   UNL     1       4.251   6.881  17.467  0.00  0.00    +0.000 A 
ATOM     26  C   UNL     1       5.187   5.874  17.755  0.00  0.00    +0.000 A 
ATOM     27  C   UNL     1       4.793   4.874  18.673  0.00  0.00    +0.000 A 
BRANCH  22  29
ATOM     28  C   UNL     1       3.769   2.529  20.119  0.00  0.00    +0.000 C 
ATOM     29  C   UNL     1       3.144   3.720  20.178  0.00  0.00    +0.000 C 
ATOM     30  C   UNL     1       2.028   3.945  21.163  0.00  0.00    +0.000 C 
ENDBRANCH  22  29
ENDBRANCH  19  26
ENDBRANCH   1  19
TORSDOF 5
ENDMDL
MODEL 6
REMARK VINA RESULT:      -9.4      0.834      1.241
REMARK  Name = 
REMARK  10 active torsions:
REMARK  status: ('A' for Active; 'I' for Inactive)
REMARK    1  A    between atoms: C_2  and  C_3
REMARK    2  A    between atoms: C_2  and  C_4
REMARK    3  A    between atoms: C_8  and  C_9
REMARK    4  A    between atoms: C_9  and  C_10
REMARK    5  A    between atoms: C_9  and  C_11
REMARK    6  A    between atoms: C_9  and  N_12
REMARK    7  A    between atoms: N_15  and  C_16
REMARK    8  A    between atoms: C_21  and  C_22
REMARK    9  A    between atoms: N_24  and  C_25
REMARK   10  A    between atoms: N_24  and  C_26
REMARK                            x       y       z     vdW  Elec       q    Type
REMARK                         _______ _______ _______ _____ _____    ______ ____
ROOT
ATOM      1  N   UNL     1       7.048   7.244  16.905  0.00  0.00    +0.000 N 
ATOM      2  C   UNL     1       7.916   7.889  17.764  0.00  0.00    +0.000 C 
ATOM      3  O   UNL     1       8.490   7.295  18.670  0.00  0.00    +0.000 OA
ATOM      4  N   UNL     1       8.042   9.240  17.515  0.00  0.00    +0.000 N 
ATOM      5  H   UNL     1       6.461   7.787  16.293  0.00  0.00    +0.000 HD
ATOM      6  H   UNL     1       7.347   9.659  16.919  0.00  0.00    +0.000 HD
ENDROOT
BRANCH   4   7
ATOM      7  C   UNL     1       8.836  10.115  18.308  0.00  0.00    +0.000 A 
ATOM      8  C   UNL     1       8.904  10.018  19.698  0.00  0.00    +0.000 A 
ATOM      9  C   UNL     1       9.580  10.977  20.450  0.00  0.00    +0.000 A 
ATOM     10  C   UNL     1      10.185  12.067  19.823  0.00  0.00    +0.000 A 
ATOM     11 CL   UNL     1      10.903  13.232  20.884  0.00  0.00    +0.000 Cl
ATOM     12  C   UNL     1      10.165  12.171  18.419  0.00  0.00    +0.000 A 
ATOM     13  C   UNL     1       9.551  11.142  17.675  0.00  0.00    +0.000 A 
BRANCH  12  14
ATOM     14  C   UNL     1      10.831  13.323  17.737  0.00  0.00    +0.000 C 
ATOM     15  O   UNL     1      11.912  13.101  17.188  0.00  0.00    +0.000 OA
ATOM     16  N   UNL     1      10.263  14.608  17.711  0.00  0.00    +0.000 N 
ATOM     17  C   UNL     1       8.927  14.989  18.141  0.00  0.00    +0.000 C 
ATOM     18  C   UNL     1      11.006  15.656  17.022  0.00  0.00    +0.000 C 
ENDBRANCH  12  14
ENDBRANCH   4   7
BRANCH   1  19
ATOM     19  C   UNL     1       6.711   5.810  17.074  0.00  0.00    +0.000 C 
ATOM     20  C   UNL     1       7.544   5.219  18.240  0.00  0.00    +0.000 C 
ATOM     21  C   UNL     1       7.044   5.015  15.786  0.00  0.00    +0.000 C 
BRANCH  19  26
ATOM     22  C   UNL     1       3.034   6.579  18.135  0.00  0.00    +0.000 A 
ATOM     23  C   UNL     1       2.464   5.310  18.004  0.00  0.00    +0.000 A 
ATOM     24  C   UNL     1       3.219   4.234  17.528  0.00  0.00    +0.000 A 
ATOM     25  C   UNL     1       4.563   4.405  17.185  0.00  0.00    +0.000 A 
ATOM     26  C   UNL     1       5.189   5.654  17.325  0.00  0.00    +0.000 A 
ATOM     27  C   UNL     1       4.392   6.724  17.792  0.00  0.00    +0.000 A 
BRANCH  22  29
ATOM     28  C   UNL     1       1.944   7.797  19.992  0.00  0.00    +0.000 C 
ATOM     29  C   UNL     1       2.271   7.730  18.688  0.00  0.00    +0.000 C 
ATOM     30  C   UNL     1       1.856   8.826  17.744  0.00  0.00    +0.000 C 
ENDBRANCH  22  29
ENDBRANCH  19  26
ENDBRANCH   1  19
TORSDOF 5
ENDMDL
MODEL 7
REMARK VINA RESULT:      -9.3      5.787      7.717
REMARK  Name = 
REMARK  10 active torsions:
REMARK  status: ('A' for Active; 'I' for Inactive)
REMARK    1  A    between atoms: C_2  and  C_3
REMARK    2  A    between atoms: C_2  and  C_4
REMARK    3  A    between atoms: C_8  and  C_9
REMARK    4  A    between atoms: C_9  and  C_10
REMARK    5  A    between atoms: C_9  and  C_11
REMARK    6  A    between atoms: C_9  and  N_12
REMARK    7  A    between atoms: N_15  and  C_16
REMARK    8  A    between atoms: C_21  and  C_22
REMARK    9  A    between atoms: N_24  and  C_25
REMARK   10  A    between atoms: N_24  and  C_26
REMARK                            x       y       z     vdW  Elec       q    Type
REMARK                         _______ _______ _______ _____ _____    ______ ____
ROOT
ATOM      1  N   UNL     1       4.839   6.159  16.229  0.00  0.00    +0.000 N 
ATOM      2  C   UNL     1       4.188   6.509  17.396  0.00  0.00    +0.000 C 
ATOM      3  O   UNL     1       4.307   5.855  18.425  0.00  0.00    +0.000 OA
ATOM      4  N   UNL     1       3.394   7.631  17.272  0.00  0.00    +0.000 N 
ATOM      5  H   UNL     1       4.582   6.607  15.365  0.00  0.00    +0.000 HD
ATOM      6  H   UNL     1       3.179   7.935  16.337  0.00  0.00    +0.000 HD
ENDROOT
BRANCH   4   7
ATOM      7  C   UNL     1       2.586   8.142  18.327  0.00  0.00    +0.000 A 
ATOM      8  C   UNL     1       2.447   7.490  19.553  0.00  0.00    +0.000 A 
ATOM      9  C   UNL     1       1.540   7.948  20.508  0.00  0.00    +0.000 A 
ATOM     10  C   UNL     1       0.739   9.058  20.244  0.00  0.00    +0.000 A 
ATOM     11 CL   UNL     1      -0.412   9.456  21.476  0.00  0.00    +0.000 Cl
ATOM     12  C   UNL     1       0.883   9.758  19.030  0.00  0.00    +0.000 A 
ATOM     13  C   UNL     1       1.869   9.329  18.117  0.00  0.00    +0.000 A 
BRANCH  12  14
ATOM     14  C   UNL     1       0.045  10.964  18.748  0.00  0.00    +0.000 C 
ATOM     15  O   UNL     1      -1.102  10.766  18.344  0.00  0.00    +0.000 OA
ATOM     16  N   UNL     1       0.527  12.270  18.930  0.00  0.00    +0.000 N 
ATOM     17  C   UNL     1       1.772  12.669  19.567  0.00  0.00    +0.000 C 
ATOM     18  C   UNL     1      -0.378  13.369  18.615  0.00  0.00    +0.000 C 
ENDBRANCH  12  14
ENDBRANCH   4   7
BRANCH   1  19
ATOM     19  C   UNL     1       5.663   4.930  16.140  0.00  0.00    +0.000 C 
ATOM     20  C   UNL     1       4.833   3.716  16.631  0.00  0.00    +0.000 C 
ATOM     21  C   UNL     1       6.923   5.051  17.033  0.00  0.00    +0.000 C 
BRANCH  19  26
ATOM     22  C   UNL     1       5.959   3.611  12.478  0.00  0.00    +0.000 A 
ATOM     23  C   UNL     1       7.175   4.185  12.101  0.00  0.00    +0.000 A 
ATOM     24  C   UNL     1       7.867   5.029  12.974  0.00  0.00    +0.000 A 
ATOM     25  C   UNL     1       7.360   5.306  14.247  0.00  0.00    +0.000 A 
ATOM     26  C   UNL     1       6.154   4.731  14.683  0.00  0.00    +0.000 A 
ATOM     27  C   UNL     1       5.473   3.897  13.769  0.00  0.00    +0.000 A 
BRANCH  22  29
ATOM     28  C   UNL     1       3.986   2.939  11.145  0.00  0.00    +0.000 C 
ATOM     29  C   UNL     1       5.227   2.668  11.591  0.00  0.00    +0.000 C 
ATOM     30  C   UNL     1       5.907   1.381  11.207  0.00  0.00    +0.000 C 
ENDBRANCH  22  29
ENDBRANCH  19  26
ENDBRANCH   1  19
TORSDOF 5
ENDMDL
MODEL 8
REMARK VINA RESULT:      -9.1      1.350      2.468
REMARK  Name = 
REMARK  10 active torsions:
REMARK  status: ('A' for Active; 'I' for Inactive)
REMARK    1  A    between atoms: C_2  and  C_3
REMARK    2  A    between atoms: C_2  and  C_4
REMARK    3  A    between atoms: C_8  and  C_9
REMARK    4  A    between atoms: C_9  and  C_10
REMARK    5  A    between atoms: C_9  and  C_11
REMARK    6  A    between atoms: C_9  and  N_12
REMARK    7  A    between atoms: N_15  and  C_16
REMARK    8  A    between atoms: C_21  and  C_22
REMARK    9  A    between atoms: N_24  and  C_25
REMARK   10  A    between atoms: N_24  and  C_26
REMARK                            x       y       z     vdW  Elec       q    Type
REMARK                         _______ _______ _______ _____ _____    ______ ____
ROOT
ATOM      1  N   UNL     1       7.156   7.023  16.771  0.00  0.00    +0.000 N 
ATOM      2  C   UNL     1       7.845   7.743  17.727  0.00  0.00    +0.000 C 
ATOM      3  O   UNL     1       8.202   7.238  18.784  0.00  0.00    +0.000 OA
ATOM      4  N   UNL     1       8.058   9.062  17.381  0.00  0.00    +0.000 N 
ATOM      5  H   UNL     1       6.724   7.507  16.001  0.00  0.00    +0.000 HD
ATOM      6  H   UNL     1       7.513   9.425  16.616  0.00  0.00    +0.000 HD
ENDROOT
BRANCH   4   7
ATOM      7  C   UNL     1       8.695  10.005  18.235  0.00  0.00    +0.000 A 
ATOM      8  C   UNL     1       9.024   9.719  19.561  0.00  0.00    +0.000 A 
ATOM      9  C   UNL     1       9.519  10.711  20.405  0.00  0.00    +0.000 A 
ATOM     10  C   UNL     1       9.674  12.018  19.943  0.00  0.00    +0.000 A 
ATOM     11 CL   UNL     1      10.202  13.168  21.125  0.00  0.00    +0.000 Cl
ATOM     12  C   UNL     1       9.385  12.328  18.600  0.00  0.00    +0.000 A 
ATOM     13  C   UNL     1       8.970  11.288  17.742  0.00  0.00    +0.000 A 
BRANCH  12  14
ATOM     14  C   UNL     1       9.570  13.721  18.089  0.00  0.00    +0.000 C 
ATOM     15  O   UNL     1      10.605  13.955  17.463  0.00  0.00    +0.000 OA
ATOM     16  N   UNL     1       8.616  14.730  18.303  0.00  0.00    +0.000 N 
ATOM     17  C   UNL     1       7.278  14.575  18.851  0.00  0.00    +0.000 C 
ATOM     18  C   UNL     1       8.907  16.053  17.764  0.00  0.00    +0.000 C 
ENDBRANCH  12  14
ENDBRANCH   4   7
BRANCH   1  19
ATOM     19  C   UNL     1       6.750   5.616  17.001  0.00  0.00    +0.000 C 
ATOM     20  C   UNL     1       7.799   4.920  17.908  0.00  0.00    +0.000 C 
ATOM     21  C   UNL     1       6.676   4.842  15.661  0.00  0.00    +0.000 C 
BRANCH  19  26
ATOM     22  C   UNL     1       3.529   4.325  18.789  0.00  0.00    +0.000 A 
ATOM     23  C   UNL     1       2.673   5.408  18.578  0.00  0.00    +0.000 A 
ATOM     24  C   UNL     1       3.126   6.560  17.929  0.00  0.00    +0.000 A 
ATOM     25  C   UNL     1       4.443   6.645  17.468  0.00  0.00    +0.000 A 
ATOM     26  C   UNL     1       5.335   5.573  17.631  0.00  0.00    +0.000 A 
ATOM     27  C   UNL     1       4.849   4.431  18.307  0.00  0.00    +0.000 A 
BRANCH  22  29
ATOM     28  C   UNL     1       2.642   3.040  20.708  0.00  0.00    +0.000 C 
ATOM     29  C   UNL     1       3.061   3.067  19.429  0.00  0.00    +0.000 C 
ATOM     30  C   UNL     1       3.077   1.804  18.609  0.00  0.00    +0.000 C 
ENDBRANCH  22  29
ENDBRANCH  19  26
ENDBRANCH   1  19
TORSDOF 5
ENDMDL
MODEL 9
REMARK VINA RESULT:      -9.1      1.090      1.363
REMARK  Name = 
REMARK  10 active torsions:
REMARK  status: ('A' for Active; 'I' for Inactive)
REMARK    1  A    between atoms: C_2  and  C_3
REMARK    2  A    between atoms: C_2  and  C_4
REMARK    3  A    between atoms: C_8  and  C_9
REMARK    4  A    between atoms: C_9  and  C_10
REMARK    5  A    between atoms: C_9  and  C_11
REMARK    6  A    between atoms: C_9  and  N_12
REMARK    7  A    between atoms: N_15  and  C_16
REMARK    8  A    between atoms: C_21  and  C_22
REMARK    9  A    between atoms: N_24  and  C_25
REMARK   10  A    between atoms: N_24  and  C_26
REMARK                            x       y       z     vdW  Elec       q    Type
REMARK                         _______ _______ _______ _____ _____    ______ ____
ROOT
ATOM      1  N   UNL     1       6.860   7.053  16.777  0.00  0.00    +0.000 N 
ATOM      2  C   UNL     1       7.682   7.724  17.661  0.00  0.00    +0.000 C 
ATOM      3  O   UNL     1       8.192   7.163  18.623  0.00  0.00    +0.000 OA
ATOM      4  N   UNL     1       7.841   9.062  17.364  0.00  0.00    +0.000 N 
ATOM      5  H   UNL     1       6.319   7.577  16.109  0.00  0.00    +0.000 HD
ATOM      6  H   UNL     1       7.189   9.463  16.710  0.00  0.00    +0.000 HD
ENDROOT
BRANCH   4   7
ATOM      7  C   UNL     1       8.596   9.961  18.169  0.00  0.00    +0.000 A 
ATOM      8  C   UNL     1       9.017   9.643  19.461  0.00  0.00    +0.000 A 
ATOM      9  C   UNL     1       9.633  10.599  20.267  0.00  0.00    +0.000 A 
ATOM     10  C   UNL     1       9.821  11.900  19.801  0.00  0.00    +0.000 A 
ATOM     11 CL   UNL     1      10.507  13.008  20.942  0.00  0.00    +0.000 Cl
ATOM     12  C   UNL     1       9.440  12.240  18.489  0.00  0.00    +0.000 A 
ATOM     13  C   UNL     1       8.900  11.233  17.662  0.00  0.00    +0.000 A 
BRANCH  12  14
ATOM     14  C   UNL     1       9.658  13.626  17.972  0.00  0.00    +0.000 C 
ATOM     15  O   UNL     1      10.608  13.795  17.206  0.00  0.00    +0.000 OA
ATOM     16  N   UNL     1       8.825  14.698  18.333  0.00  0.00    +0.000 N 
ATOM     17  C   UNL     1       7.571  14.632  19.065  0.00  0.00    +0.000 C 
ATOM     18  C   UNL     1       9.139  16.008  17.773  0.00  0.00    +0.000 C 
ENDBRANCH  12  14
ENDBRANCH   4   7
BRANCH   1  19
ATOM     19  C   UNL     1       6.494   5.632  16.983  0.00  0.00    +0.000 C 
ATOM     20  C   UNL     1       7.672   4.890  17.665  0.00  0.00    +0.000 C 
ATOM     21  C   UNL     1       6.204   4.940  15.627  0.00  0.00    +0.000 C 
BRANCH  19  26
ATOM     22  C   UNL     1       3.144   6.589  18.744  0.00  0.00    +0.000 A 
ATOM     23  C   UNL     1       2.953   5.463  19.549  0.00  0.00    +0.000 A 
ATOM     24  C   UNL     1       3.841   4.386  19.492  0.00  0.00    +0.000 A 
ATOM     25  C   UNL     1       4.946   4.419  18.637  0.00  0.00    +0.000 A 
ATOM     26  C   UNL     1       5.198   5.539  17.828  0.00  0.00    +0.000 A 
ATOM     27  C   UNL     1       4.270   6.603  17.897  0.00  0.00    +0.000 A 
BRANCH  22  29
ATOM     28  C   UNL     1       1.976   8.523  17.736  0.00  0.00    +0.000 C 
ATOM     29  C   UNL     1       2.246   7.772  18.821  0.00  0.00    +0.000 C 
ATOM     30  C   UNL     1       1.648   8.124  20.157  0.00  0.00    +0.000 C 
ENDBRANCH  22  29
ENDBRANCH  19  26
ENDBRANCH   1  19
TORSDOF 5
ENDMDL
