MODEL 1
REMARK VINA RESULT:      -8.6      0.000      0.000
REMARK  Name = 
REMARK  4 active torsions:
REMARK  status: ('A' for Active; 'I' for Inactive)
REMARK    1  A    between atoms: C_2  and  C_3
REMARK    2  A    between atoms: C_8  and  O_9
REMARK    3  A    between atoms: N_18  and  C_19
REMARK    4  A    between atoms: C_19  and  C_20
REMARK                            x       y       z     vdW  Elec       q    Type
REMARK                         _______ _______ _______ _____ _____    ______ ____
ROOT
ATOM      1  O   UNL     1       2.160   9.070  17.280  0.00  0.00    +0.000 OA
ATOM      2  C   UNL     1       1.942   8.594  18.394  0.00  0.00    +0.000 C 
ATOM      3  N   UNL     1       1.091   9.203  19.307  0.00  0.00    +0.000 N 
ATOM      4  C   UNL     1       0.630   8.672  20.600  0.00  0.00    +0.000 C 
ATOM      5  C   UNL     1       1.142   9.573  21.740  0.00  0.00    +0.000 C 
ATOM      6  N   UNL     1       0.675  10.976  21.615  0.00  0.00    +0.000 NA
ATOM      7  C   UNL     1       1.092  11.484  20.277  0.00  0.00    +0.000 C 
ATOM      8  C   UNL     1       0.677  10.590  19.081  0.00  0.00    +0.000 C 
ENDROOT
BRANCH   2   9
ATOM      9  C   UNL     1       2.636   7.330  18.798  0.00  0.00    +0.000 A 
ATOM     10  C   UNL     1       3.748   6.963  18.144  0.00  0.00    +0.000 A 
ATOM     11  C   UNL     1       4.385   5.692  18.511  0.00  0.00    +0.000 A 
ATOM     12  O   UNL     1       5.447   5.326  18.021  0.00  0.00    +0.000 OA
ATOM     13  C   UNL     1       3.640   4.813  19.432  0.00  0.00    +0.000 A 
ATOM     14  C   UNL     1       4.008   3.493  19.679  0.00  0.00    +0.000 A 
ATOM     15  C   UNL     1       3.204   2.681  20.481  0.00  0.00    +0.000 A 
ATOM     16  C   UNL     1       2.023   3.186  21.029  0.00  0.00    +0.000 A 
ATOM     17  C   UNL     1       1.669   4.515  20.809  0.00  0.00    +0.000 A 
ATOM     18  C   UNL     1       2.491   5.322  20.024  0.00  0.00    +0.000 A 
ATOM     19  O   UNL     1       2.108   6.624  19.862  0.00  0.00    +0.000 OA
BRANCH  14  20
ATOM     20  O   UNL     1       5.137   2.924  19.155  0.00  0.00    +0.000 OA
ATOM     21  H   UNL     1       5.501   3.537  18.477  0.00  0.00    +0.000 HD
ENDBRANCH  14  20
ENDBRANCH   2   9
BRANCH   6  22
ATOM     22  C   UNL     1      -0.785  11.131  21.808  0.00  0.00    +0.000 C 
BRANCH  22  23
ATOM     23  C   UNL     1      -1.185  12.121  22.932  0.00  0.00    +0.000 C 
ATOM     24  C   UNL     1      -0.794  13.571  22.618  0.00  0.00    +0.000 C 
ATOM     25  C   UNL     1      -1.629  14.157  21.485  0.00  0.00    +0.000 C 
ATOM     26  C   UNL     1      -3.117  14.121  21.816  0.00  0.00    +0.000 C 
ATOM     27  C   UNL     1      -3.610  12.752  22.276  0.00  0.00    +0.000 C 
ATOM     28  C   UNL     1      -2.686  12.044  23.266  0.00  0.00    +0.000 C 
ENDBRANCH  22  23
ENDBRANCH   6  22
TORSDOF 4
ENDMDL
MODEL 2
REMARK VINA RESULT:      -8.2      1.159      1.309
REMARK  Name = 
REMARK  4 active torsions:
REMARK  status: ('A' for Active; 'I' for Inactive)
REMARK    1  A    between atoms: C_2  and  C_3
REMARK    2  A    between atoms: C_8  and  O_9
REMARK    3  A    between atoms: N_18  and  C_19
REMARK    4  A    between atoms: C_19  and  C_20
REMARK                            x       y       z     vdW  Elec       q    Type
REMARK                         _______ _______ _______ _____ _____    ______ ____
ROOT
ATOM      1  O   UNL     1       2.351   8.793  17.259  0.00  0.00    +0.000 OA
ATOM      2  C   UNL     1       2.066   8.289  18.345  0.00  0.00    +0.000 C 
ATOM      3  N   UNL     1       1.268   8.940  19.278  0.00  0.00    +0.000 N 
ATOM      4  C   UNL     1       0.732   8.400  20.537  0.00  0.00    +0.000 C 
ATOM      5  C   UNL     1       1.316   9.186  21.726  0.00  0.00    +0.000 C 
ATOM      6  N   UNL     1       1.001  10.635  21.665  0.00  0.00    +0.000 NA
ATOM      7  C   UNL     1       1.491  11.160  20.358  0.00  0.00    +0.000 C 
ATOM      8  C   UNL     1       1.005  10.373  19.116  0.00  0.00    +0.000 C 
ENDROOT
BRANCH   2   9
ATOM      9  C   UNL     1       2.616   6.942  18.694  0.00  0.00    +0.000 A 
ATOM     10  C   UNL     1       3.915   6.834  19.011  0.00  0.00    +0.000 A 
ATOM     11  C   UNL     1       4.455   5.498  19.294  0.00  0.00    +0.000 A 
ATOM     12  O   UNL     1       5.608   5.325  19.671  0.00  0.00    +0.000 OA
ATOM     13  C   UNL     1       3.576   4.348  19.009  0.00  0.00    +0.000 A 
ATOM     14  C   UNL     1       4.032   3.032  19.005  0.00  0.00    +0.000 A 
ATOM     15  C   UNL     1       3.175   1.997  18.628  0.00  0.00    +0.000 A 
ATOM     16  C   UNL     1       1.863   2.277  18.241  0.00  0.00    +0.000 A 
ATOM     17  C   UNL     1       1.396   3.589  18.273  0.00  0.00    +0.000 A 
ATOM     18  C   UNL     1       2.254   4.612  18.673  0.00  0.00    +0.000 A 
ATOM     19  O   UNL     1       1.736   5.877  18.710  0.00  0.00    +0.000 OA
BRANCH  14  20
ATOM     20  O   UNL     1       5.311   2.686  19.347  0.00  0.00    +0.000 OA
ATOM     21  H   UNL     1       5.916   3.021  18.647  0.00  0.00    +0.000 HD
ENDBRANCH  14  20
ENDBRANCH   2   9
BRANCH   6  22
ATOM     22  C   UNL     1      -0.439  10.933  21.848  0.00  0.00    +0.000 C 
BRANCH  22  23
ATOM     23  C   UNL     1      -0.764  12.436  22.049  0.00  0.00    +0.000 C 
ATOM     24  C   UNL     1      -1.482  13.059  20.845  0.00  0.00    +0.000 C 
ATOM     25  C   UNL     1      -2.904  12.532  20.691  0.00  0.00    +0.000 C 
ATOM     26  C   UNL     1      -3.735  12.804  21.940  0.00  0.00    +0.000 C 
ATOM     27  C   UNL     1      -3.066  12.348  23.233  0.00  0.00    +0.000 C 
ATOM     28  C   UNL     1      -1.579  12.685  23.331  0.00  0.00    +0.000 C 
ENDBRANCH  22  23
ENDBRANCH   6  22
TORSDOF 4
ENDMDL
MODEL 3
REMARK VINA RESULT:      -7.3      1.299      2.310
REMARK  Name = 
REMARK  4 active torsions:
REMARK  status: ('A' for Active; 'I' for Inactive)
REMARK    1  A    between atoms: C_2  and  C_3
REMARK    2  A    between atoms: C_8  and  O_9
REMARK    3  A    between atoms: N_18  and  C_19
REMARK    4  A    between atoms: C_19  and  C_20
REMARK                            x       y       z     vdW  Elec       q    Type
REMARK                         _______ _______ _______ _____ _____    ______ ____
ROOT
ATOM      1  O   UNL     1       2.062   9.816  17.208  0.00  0.00    +0.000 OA
ATOM      2  C   UNL     1       1.891   9.128  18.214  0.00  0.00    +0.000 C 
ATOM      3  N   UNL     1       1.056   9.526  19.251  0.00  0.00    +0.000 N 
ATOM      4  C   UNL     1       0.649   8.744  20.429  0.00  0.00    +0.000 C 
ATOM      5  C   UNL     1       1.177   9.422  21.707  0.00  0.00    +0.000 C 
ATOM      6  N   UNL     1       0.675  10.810  21.868  0.00  0.00    +0.000 NA
ATOM      7  C   UNL     1       1.037  11.577  20.642  0.00  0.00    +0.000 C 
ATOM      8  C   UNL     1       0.604  10.919  19.309  0.00  0.00    +0.000 C 
ENDROOT
BRANCH   2   9
ATOM      9  C   UNL     1       2.626   7.831  18.348  0.00  0.00    +0.000 A 
ATOM     10  C   UNL     1       2.336   7.024  19.379  0.00  0.00    +0.000 A 
ATOM     11  C   UNL     1       3.106   5.783  19.530  0.00  0.00    +0.000 A 
ATOM     12  O   UNL     1       2.846   4.953  20.394  0.00  0.00    +0.000 OA
ATOM     13  C   UNL     1       4.281   5.614  18.655  0.00  0.00    +0.000 A 
ATOM     14  C   UNL     1       5.227   4.611  18.846  0.00  0.00    +0.000 A 
ATOM     15  C   UNL     1       6.370   4.566  18.046  0.00  0.00    +0.000 A 
ATOM     16  C   UNL     1       6.574   5.533  17.060  0.00  0.00    +0.000 A 
ATOM     17  C   UNL     1       5.614   6.519  16.846  0.00  0.00    +0.000 A 
ATOM     18  C   UNL     1       4.466   6.541  17.637  0.00  0.00    +0.000 A 
ATOM     19  O   UNL     1       3.547   7.515  17.367  0.00  0.00    +0.000 OA
BRANCH  14  20
ATOM     20  O   UNL     1       5.105   3.646  19.809  0.00  0.00    +0.000 OA
ATOM     21  H   UNL     1       4.765   2.828  19.381  0.00  0.00    +0.000 HD
ENDBRANCH  14  20
ENDBRANCH   2   9
BRANCH   6  22
ATOM     22  C   UNL     1      -0.782  10.883  22.127  0.00  0.00    +0.000 C 
BRANCH  22  23
ATOM     23  C   UNL     1      -1.206  12.006  23.109  0.00  0.00    +0.000 C 
ATOM     24  C   UNL     1      -0.804  13.406  22.626  0.00  0.00    +0.000 C 
ATOM     25  C   UNL     1      -1.610  13.844  21.409  0.00  0.00    +0.000 C 
ATOM     26  C   UNL     1      -3.105  13.850  21.706  0.00  0.00    +0.000 C 
ATOM     27  C   UNL     1      -3.613  12.548  22.321  0.00  0.00    +0.000 C 
ATOM     28  C   UNL     1      -2.714  11.970  23.413  0.00  0.00    +0.000 C 
ENDBRANCH  22  23
ENDBRANCH   6  22
TORSDOF 4
ENDMDL
MODEL 4
REMARK VINA RESULT:      -7.3      1.007      1.440
REMARK  Name = 
REMARK  4 active torsions:
REMARK  status: ('A' for Active; 'I' for Inactive)
REMARK    1  A    between atoms: C_2  and  C_3
REMARK    2  A    between atoms: C_8  and  O_9
REMARK    3  A    between atoms: N_18  and  C_19
REMARK    4  A    between atoms: C_19  and  C_20
REMARK                            x       y       z     vdW  Elec       q    Type
REMARK                         _______ _______ _______ _____ _____    ______ ____
ROOT
ATOM      1  O   UNL     1       3.109   8.336  17.103  0.00  0.00    +0.000 OA
ATOM      2  C   UNL     1       2.557   8.039  18.163  0.00  0.00    +0.000 C 
ATOM      3  N   UNL     1       1.599   8.854  18.753  0.00  0.00    +0.000 N 
ATOM      4  C   UNL     1       0.762   8.554  19.925  0.00  0.00    +0.000 C 
ATOM      5  C   UNL     1       1.093   9.540  21.062  0.00  0.00    +0.000 C 
ATOM      6  N   UNL     1       0.871  10.956  20.675  0.00  0.00    +0.000 NA
ATOM      7  C   UNL     1       1.673  11.231  19.449  0.00  0.00    +0.000 C 
ATOM      8  C   UNL     1       1.449  10.234  18.285  0.00  0.00    +0.000 C 
ENDROOT
BRANCH   2   9
ATOM      9  C   UNL     1       2.948   6.775  18.863  0.00  0.00    +0.000 A 
ATOM     10  C   UNL     1       4.166   6.259  18.641  0.00  0.00    +0.000 A 
ATOM     11  C   UNL     1       4.513   4.988  19.288  0.00  0.00    +0.000 A 
ATOM     12  O   UNL     1       5.632   4.495  19.203  0.00  0.00    +0.000 OA
ATOM     13  C   UNL     1       3.424   4.267  19.973  0.00  0.00    +0.000 A 
ATOM     14  C   UNL     1       3.552   2.955  20.421  0.00  0.00    +0.000 A 
ATOM     15  C   UNL     1       2.452   2.293  20.969  0.00  0.00    +0.000 A 
ATOM     16  C   UNL     1       1.218   2.940  21.059  0.00  0.00    +0.000 A 
ATOM     17  C   UNL     1       1.095   4.262  20.640  0.00  0.00    +0.000 A 
ATOM     18  C   UNL     1       2.206   4.920  20.114  0.00  0.00    +0.000 A 
ATOM     19  O   UNL     1       2.034   6.224  19.741  0.00  0.00    +0.000 OA
BRANCH  14  20
ATOM     20  O   UNL     1       4.723   2.252  20.341  0.00  0.00    +0.000 OA
ATOM     21  H   UNL     1       4.546   1.419  19.847  0.00  0.00    +0.000 HD
ENDBRANCH  14  20
ENDBRANCH   2   9
BRANCH   6  22
ATOM     22  C   UNL     1      -0.556  11.290  20.459  0.00  0.00    +0.000 C 
BRANCH  22  23
ATOM     23  C   UNL     1      -0.899  12.792  20.633  0.00  0.00    +0.000 C 
ATOM     24  C   UNL     1      -2.398  13.085  20.482  0.00  0.00    +0.000 C 
ATOM     25  C   UNL     1      -3.210  12.525  21.644  0.00  0.00    +0.000 C 
ATOM     26  C   UNL     1      -2.740  13.098  22.976  0.00  0.00    +0.000 C 
ATOM     27  C   UNL     1      -1.233  12.990  23.193  0.00  0.00    +0.000 C 
ATOM     28  C   UNL     1      -0.389  13.352  21.973  0.00  0.00    +0.000 C 
ENDBRANCH  22  23
ENDBRANCH   6  22
TORSDOF 4
ENDMDL
MODEL 5
REMARK VINA RESULT:      -7.3      7.435     10.811
REMARK  Name = 
REMARK  4 active torsions:
REMARK  status: ('A' for Active; 'I' for Inactive)
REMARK    1  A    between atoms: C_2  and  C_3
REMARK    2  A    between atoms: C_8  and  O_9
REMARK    3  A    between atoms: N_18  and  C_19
REMARK    4  A    between atoms: C_19  and  C_20
REMARK                            x       y       z     vdW  Elec       q    Type
REMARK                         _______ _______ _______ _____ _____    ______ ____
ROOT
ATOM      1  O   UNL     1       5.263  17.988  19.220  0.00  0.00    +0.000 OA
ATOM      2  C   UNL     1       5.486  16.810  19.499  0.00  0.00    +0.000 C 
ATOM      3  N   UNL     1       6.771  16.284  19.524  0.00  0.00    +0.000 N 
ATOM      4  C   UNL     1       7.188  14.949  19.981  0.00  0.00    +0.000 C 
ATOM      5  C   UNL     1       7.788  14.163  18.799  0.00  0.00    +0.000 C 
ATOM      6  N   UNL     1       8.963  14.842  18.197  0.00  0.00    +0.000 NA
ATOM      7  C   UNL     1       8.546  16.216  17.796  0.00  0.00    +0.000 C 
ATOM      8  C   UNL     1       7.865  17.044  18.914  0.00  0.00    +0.000 C 
ENDROOT
BRANCH   2   9
ATOM      9  C   UNL     1       4.336  15.898  19.795  0.00  0.00    +0.000 A 
ATOM     10  C   UNL     1       3.826  15.877  21.035  0.00  0.00    +0.000 A 
ATOM     11  C   UNL     1       2.737  14.935  21.325  0.00  0.00    +0.000 A 
ATOM     12  O   UNL     1       2.162  14.914  22.407  0.00  0.00    +0.000 OA
ATOM     13  C   UNL     1       2.423  13.937  20.287  0.00  0.00    +0.000 A 
ATOM     14  C   UNL     1       1.587  12.847  20.515  0.00  0.00    +0.000 A 
ATOM     15  C   UNL     1       1.410  11.881  19.523  0.00  0.00    +0.000 A 
ATOM     16  C   UNL     1       2.079  11.997  18.303  0.00  0.00    +0.000 A 
ATOM     17  C   UNL     1       2.892  13.103  18.061  0.00  0.00    +0.000 A 
ATOM     18  C   UNL     1       3.043  14.072  19.051  0.00  0.00    +0.000 A 
ATOM     19  O   UNL     1       3.833  15.147  18.750  0.00  0.00    +0.000 OA
BRANCH  14  20
ATOM     20  O   UNL     1       0.920  12.655  21.695  0.00  0.00    +0.000 OA
ATOM     21  H   UNL     1      -0.041  12.785  21.527  0.00  0.00    +0.000 HD
ENDBRANCH  14  20
ENDBRANCH   2   9
BRANCH   6  22
ATOM     22  C   UNL     1      10.141  14.887  19.094  0.00  0.00    +0.000 C 
BRANCH  22  23
ATOM     23  C   UNL     1      11.446  14.329  18.471  0.00  0.00    +0.000 C 
ATOM     24  C   UNL     1      12.325  13.587  19.487  0.00  0.00    +0.000 C 
ATOM     25  C   UNL     1      11.698  12.270  19.931  0.00  0.00    +0.000 C 
ATOM     26  C   UNL     1      11.450  11.345  18.745  0.00  0.00    +0.000 C 
ATOM     27  C   UNL     1      10.694  12.010  17.597  0.00  0.00    +0.000 C 
ATOM     28  C   UNL     1      11.168  13.422  17.258  0.00  0.00    +0.000 C 
ENDBRANCH  22  23
ENDBRANCH   6  22
TORSDOF 4
ENDMDL
MODEL 6
REMARK VINA RESULT:      -7.3      1.543      1.905
REMARK  Name = 
REMARK  4 active torsions:
REMARK  status: ('A' for Active; 'I' for Inactive)
REMARK    1  A    between atoms: C_2  and  C_3
REMARK    2  A    between atoms: C_8  and  O_9
REMARK    3  A    between atoms: N_18  and  C_19
REMARK    4  A    between atoms: C_19  and  C_20
REMARK                            x       y       z     vdW  Elec       q    Type
REMARK                         _______ _______ _______ _____ _____    ______ ____
ROOT
ATOM      1  O   UNL     1       3.250   8.310  16.898  0.00  0.00    +0.000 OA
ATOM      2  C   UNL     1       2.710   7.940  17.941  0.00  0.00    +0.000 C 
ATOM      3  N   UNL     1       1.675   8.652  18.533  0.00  0.00    +0.000 N 
ATOM      4  C   UNL     1       0.851   8.251  19.684  0.00  0.00    +0.000 C 
ATOM      5  C   UNL     1       1.078   9.233  20.849  0.00  0.00    +0.000 C 
ATOM      6  N   UNL     1       0.737  10.633  20.493  0.00  0.00    +0.000 NA
ATOM      7  C   UNL     1       1.531  11.009  19.287  0.00  0.00    +0.000 C 
ATOM      8  C   UNL     1       1.412  10.026  18.096  0.00  0.00    +0.000 C 
ENDROOT
BRANCH   2   9
ATOM      9  C   UNL     1       3.200   6.697  18.617  0.00  0.00    +0.000 A 
ATOM     10  C   UNL     1       4.318   6.111  18.166  0.00  0.00    +0.000 A 
ATOM     11  C   UNL     1       4.754   4.860  18.800  0.00  0.00    +0.000 A 
ATOM     12  O   UNL     1       5.807   4.309  18.504  0.00  0.00    +0.000 OA
ATOM     13  C   UNL     1       3.818   4.232  19.751  0.00  0.00    +0.000 A 
ATOM     14  C   UNL     1       3.994   2.941  20.243  0.00  0.00    +0.000 A 
ATOM     15  C   UNL     1       3.020   2.365  21.059  0.00  0.00    +0.000 A 
ATOM     16  C   UNL     1       1.861   3.075  21.377  0.00  0.00    +0.000 A 
ATOM     17  C   UNL     1       1.697   4.378  20.911  0.00  0.00    +0.000 A 
ATOM     18  C   UNL     1       2.687   4.951  20.115  0.00  0.00    +0.000 A 
ATOM     19  O   UNL     1       2.484   6.240  19.707  0.00  0.00    +0.000 OA
BRANCH  14  20
ATOM     20  O   UNL     1       5.092   2.177  19.952  0.00  0.00    +0.000 OA
ATOM     21  H   UNL     1       5.325   1.659  20.756  0.00  0.00    +0.000 HD
ENDBRANCH  14  20
ENDBRANCH   2   9
BRANCH   6  22
ATOM     22  C   UNL     1      -0.710  10.847  20.260  0.00  0.00    +0.000 C 
BRANCH  22  23
ATOM     23  C   UNL     1      -1.058  12.176  19.542  0.00  0.00    +0.000 C 
ATOM     24  C   UNL     1      -1.789  11.962  18.210  0.00  0.00    +0.000 C 
ATOM     25  C   UNL     1      -3.204  11.432  18.413  0.00  0.00    +0.000 C 
ATOM     26  C   UNL     1      -4.034  12.379  19.271  0.00  0.00    +0.000 C 
ATOM     27  C   UNL     1      -3.354  12.780  20.577  0.00  0.00    +0.000 C 
ATOM     28  C   UNL     1      -1.871  13.125  20.440  0.00  0.00    +0.000 C 
ENDBRANCH  22  23
ENDBRANCH   6  22
TORSDOF 4
ENDMDL
MODEL 7
REMARK VINA RESULT:      -7.2      2.559      8.646
REMARK  Name = 
REMARK  4 active torsions:
REMARK  status: ('A' for Active; 'I' for Inactive)
REMARK    1  A    between atoms: C_2  and  C_3
REMARK    2  A    between atoms: C_8  and  O_9
REMARK    3  A    between atoms: N_18  and  C_19
REMARK    4  A    between atoms: C_19  and  C_20
REMARK                            x       y       z     vdW  Elec       q    Type
REMARK                         _______ _______ _______ _____ _____    ______ ____
ROOT
ATOM      1  O   UNL     1       2.321   9.483  17.186  0.00  0.00    +0.000 OA
ATOM      2  C   UNL     1       1.828   9.199  18.278  0.00  0.00    +0.000 C 
ATOM      3  N   UNL     1       2.204   8.067  18.989  0.00  0.00    +0.000 N 
ATOM      4  C   UNL     1       1.810   7.691  20.356  0.00  0.00    +0.000 C 
ATOM      5  C   UNL     1       1.002   6.380  20.319  0.00  0.00    +0.000 C 
ATOM      6  N   UNL     1       1.764   5.254  19.723  0.00  0.00    +0.000 NA
ATOM      7  C   UNL     1       2.212   5.668  18.363  0.00  0.00    +0.000 C 
ATOM      8  C   UNL     1       2.969   7.019  18.309  0.00  0.00    +0.000 C 
ENDROOT
BRANCH   2   9
ATOM      9  C   UNL     1       0.766  10.083  18.854  0.00  0.00    +0.000 A 
ATOM     10  C   UNL     1      -0.466  10.048  18.324  0.00  0.00    +0.000 A 
ATOM     11  C   UNL     1      -1.482  10.962  18.860  0.00  0.00    +0.000 A 
ATOM     12  O   UNL     1      -2.649  10.933  18.488  0.00  0.00    +0.000 OA
ATOM     13  C   UNL     1      -1.019  11.998  19.802  0.00  0.00    +0.000 A 
ATOM     14  C   UNL     1      -1.817  13.066  20.203  0.00  0.00    +0.000 A 
ATOM     15  C   UNL     1      -1.286  14.068  21.016  0.00  0.00    +0.000 A 
ATOM     16  C   UNL     1       0.048  14.010  21.423  0.00  0.00    +0.000 A 
ATOM     17  C   UNL     1       0.840  12.926  21.049  0.00  0.00    +0.000 A 
ATOM     18  C   UNL     1       0.293  11.920  20.254  0.00  0.00    +0.000 A 
ATOM     19  O   UNL     1       1.108  10.869  19.938  0.00  0.00    +0.000 OA
BRANCH  14  20
ATOM     20  O   UNL     1      -3.124  13.202  19.823  0.00  0.00    +0.000 OA
ATOM     21  H   UNL     1      -3.331  14.163  19.778  0.00  0.00    +0.000 HD
ENDBRANCH  14  20
ENDBRANCH   2   9
BRANCH   6  22
ATOM     22  C   UNL     1       2.913   4.818  20.549  0.00  0.00    +0.000 C 
BRANCH  22  23
ATOM     23  C   UNL     1       2.870   3.329  20.979  0.00  0.00    +0.000 C 
ATOM     24  C   UNL     1       1.447   2.755  21.005  0.00  0.00    +0.000 C 
ATOM     25  C   UNL     1       0.863   2.610  19.603  0.00  0.00    +0.000 C 
ATOM     26  C   UNL     1       1.730   1.708  18.732  0.00  0.00    +0.000 C 
ATOM     27  C   UNL     1       3.206   2.094  18.727  0.00  0.00    +0.000 C 
ATOM     28  C   UNL     1       3.775   2.446  20.101  0.00  0.00    +0.000 C 
ENDBRANCH  22  23
ENDBRANCH   6  22
TORSDOF 4
ENDMDL
MODEL 8
REMARK VINA RESULT:      -7.2      2.203      3.147
REMARK  Name = 
REMARK  4 active torsions:
REMARK  status: ('A' for Active; 'I' for Inactive)
REMARK    1  A    between atoms: C_2  and  C_3
REMARK    2  A    between atoms: C_8  and  O_9
REMARK    3  A    between atoms: N_18  and  C_19
REMARK    4  A    between atoms: C_19  and  C_20
REMARK                            x       y       z     vdW  Elec       q    Type
REMARK                         _______ _______ _______ _____ _____    ______ ____
ROOT
ATOM      1  O   UNL     1       1.403   8.523  22.197  0.00  0.00    +0.000 OA
ATOM      2  C   UNL     1       1.456   8.555  20.968  0.00  0.00    +0.000 C 
ATOM      3  N   UNL     1       1.119   9.689  20.240  0.00  0.00    +0.000 N 
ATOM      4  C   UNL     1       1.277   9.910  18.794  0.00  0.00    +0.000 C 
ATOM      5  C   UNL     1      -0.107  10.101  18.146  0.00  0.00    +0.000 C 
ATOM      6  N   UNL     1      -0.854  11.250  18.718  0.00  0.00    +0.000 NA
ATOM      7  C   UNL     1      -0.954  11.047  20.192  0.00  0.00    +0.000 C 
ATOM      8  C   UNL     1       0.394  10.774  20.906  0.00  0.00    +0.000 C 
ENDROOT
BRANCH   2   9
ATOM      9  C   UNL     1       1.868   7.325  20.221  0.00  0.00    +0.000 A 
ATOM     10  C   UNL     1       2.577   7.459  19.090  0.00  0.00    +0.000 A 
ATOM     11  C   UNL     1       2.924   6.247  18.337  0.00  0.00    +0.000 A 
ATOM     12  O   UNL     1       3.639   6.277  17.342  0.00  0.00    +0.000 OA
ATOM     13  C   UNL     1       2.292   4.987  18.771  0.00  0.00    +0.000 A 
ATOM     14  C   UNL     1       2.342   3.818  18.016  0.00  0.00    +0.000 A 
ATOM     15  C   UNL     1       1.638   2.687  18.431  0.00  0.00    +0.000 A 
ATOM     16  C   UNL     1       0.871   2.726  19.597  0.00  0.00    +0.000 A 
ATOM     17  C   UNL     1       0.843   3.885  20.370  0.00  0.00    +0.000 A 
ATOM     18  C   UNL     1       1.569   5.001  19.957  0.00  0.00    +0.000 A 
ATOM     19  O   UNL     1       1.525   6.102  20.766  0.00  0.00    +0.000 OA
BRANCH  14  20
ATOM     20  O   UNL     1       3.052   3.714  16.850  0.00  0.00    +0.000 OA
ATOM     21  H   UNL     1       3.614   4.517  16.763  0.00  0.00    +0.000 HD
ENDBRANCH  14  20
ENDBRANCH   2   9
BRANCH   6  22
ATOM     22  C   UNL     1      -0.246  12.563  18.405  0.00  0.00    +0.000 C 
BRANCH  22  23
ATOM     23  C   UNL     1       0.076  13.436  19.645  0.00  0.00    +0.000 C 
ATOM     24  C   UNL     1       1.564  13.797  19.752  0.00  0.00    +0.000 C 
ATOM     25  C   UNL     1       1.996  14.772  18.663  0.00  0.00    +0.000 C 
ATOM     26  C   UNL     1       1.184  16.061  18.718  0.00  0.00    +0.000 C 
ATOM     27  C   UNL     1      -0.325  15.834  18.752  0.00  0.00    +0.000 C 
ATOM     28  C   UNL     1      -0.778  14.716  19.690  0.00  0.00    +0.000 C 
ENDBRANCH  22  23
ENDBRANCH   6  22
TORSDOF 4
ENDMDL
MODEL 9
REMARK VINA RESULT:      -7.2      2.427      8.361
REMARK  Name = 
REMARK  4 active torsions:
REMARK  status: ('A' for Active; 'I' for Inactive)
REMARK    1  A    between atoms: C_2  and  C_3
REMARK    2  A    between atoms: C_8  and  O_9
REMARK    3  A    between atoms: N_18  and  C_19
REMARK    4  A    between atoms: C_19  and  C_20
REMARK                            x       y       z     vdW  Elec       q    Type
REMARK                         _______ _______ _______ _____ _____    ______ ____
ROOT
ATOM      1  O   UNL     1       2.197   9.353  17.142  0.00  0.00    +0.000 OA
ATOM      2  C   UNL     1       1.888   9.059  18.298  0.00  0.00    +0.000 C 
ATOM      3  N   UNL     1       2.339   7.899  18.914  0.00  0.00    +0.000 N 
ATOM      4  C   UNL     1       2.172   7.504  20.321  0.00  0.00    +0.000 C 
ATOM      5  C   UNL     1       1.322   6.221  20.400  0.00  0.00    +0.000 C 
ATOM      6  N   UNL     1       1.929   5.085  19.662  0.00  0.00    +0.000 NA
ATOM      7  C   UNL     1       2.153   5.517  18.253  0.00  0.00    +0.000 C 
ATOM      8  C   UNL     1       2.938   6.842  18.093  0.00  0.00    +0.000 C 
ENDROOT
BRANCH   2   9
ATOM      9  C   UNL     1       0.973   9.964  19.063  0.00  0.00    +0.000 A 
ATOM     10  C   UNL     1       0.816  11.230  18.648  0.00  0.00    +0.000 A 
ATOM     11  C   UNL     1      -0.038  12.122  19.442  0.00  0.00    +0.000 A 
ATOM     12  O   UNL     1      -0.300  13.265  19.086  0.00  0.00    +0.000 OA
ATOM     13  C   UNL     1      -0.497  11.619  20.750  0.00  0.00    +0.000 A 
ATOM     14  C   UNL     1      -1.109  12.433  21.700  0.00  0.00    +0.000 A 
ATOM     15  C   UNL     1      -1.427  11.920  22.959  0.00  0.00    +0.000 A 
ATOM     16  C   UNL     1      -1.124  10.594  23.274  0.00  0.00    +0.000 A 
ATOM     17  C   UNL     1      -0.540   9.770  22.315  0.00  0.00    +0.000 A 
ATOM     18  C   UNL     1      -0.247  10.287  21.054  0.00  0.00    +0.000 A 
ATOM     19  O   UNL     1       0.303   9.426  20.145  0.00  0.00    +0.000 OA
BRANCH  14  20
ATOM     20  O   UNL     1      -1.412  13.747  21.470  0.00  0.00    +0.000 OA
ATOM     21  H   UNL     1      -0.631  14.290  21.722  0.00  0.00    +0.000 HD
ENDBRANCH  14  20
ENDBRANCH   2   9
BRANCH   6  22
ATOM     22  C   UNL     1       3.187   4.592  20.271  0.00  0.00    +0.000 C 
BRANCH  22  23
ATOM     23  C   UNL     1       3.170   3.091  20.656  0.00  0.00    +0.000 C 
ATOM     24  C   UNL     1       1.753   2.545  20.876  0.00  0.00    +0.000 C 
ATOM     25  C   UNL     1       0.965   2.459  19.574  0.00  0.00    +0.000 C 
ATOM     26  C   UNL     1       1.670   1.570  18.556  0.00  0.00    +0.000 C 
ATOM     27  C   UNL     1       3.138   1.926  18.343  0.00  0.00    +0.000 C 
ATOM     28  C   UNL     1       3.913   2.220  19.627  0.00  0.00    +0.000 C 
ENDBRANCH  22  23
ENDBRANCH   6  22
TORSDOF 4
ENDMDL
