MODEL 1
REMARK VINA RESULT:      -6.2      0.000      0.000
REMARK  Name = 
REMARK  7 active torsions:
REMARK  status: ('A' for Active; 'I' for Inactive)
REMARK    1  A    between atoms: C_4  and  C_5
REMARK    2  A    between atoms: C_5  and  N_6
REMARK    3  A    between atoms: N_6  and  CA_7
REMARK    4  A    between atoms: CA_7  and  CB_8
REMARK    5  A    between atoms: CA_7  and  C_10
REMARK    6  A    between atoms: CB_8  and  OG_9
REMARK    7  A    between atoms: C_10  and  O_11
REMARK                            x       y       z     vdW  Elec       q    Type
REMARK                         _______ _______ _______ _____ _____    ______ ____
ROOT
ATOM      1  O   UNL     1       5.385   1.263  21.513  0.00  0.00    +0.000 OA
ATOM      2  C   UNL     1       4.675   1.994  20.832  0.00  0.00    +0.000 A 
ATOM      3  N   UNL     1       5.176   2.735  19.805  0.00  0.00    +0.000 N 
ATOM      4  C   UNL     1       4.432   3.561  18.979  0.00  0.00    +0.000 A 
ATOM      5  C   UNL     1       3.101   3.669  19.168  0.00  0.00    +0.000 A 
ATOM      6  I   UNL     1       1.825   4.810  18.019  0.00  0.00    +0.000 I 
ATOM      7  C   UNL     1       2.487   2.879  20.290  0.00  0.00    +0.000 A 
ATOM      8  O   UNL     1       1.284   2.891  20.543  0.00  0.00    +0.000 OA
ATOM      9  N   UNL     1       3.338   2.119  21.043  0.00  0.00    +0.000 N 
ATOM     10  H   UNL     1       6.168   2.619  19.617  0.00  0.00    +0.000 HD
ATOM     11  H   UNL     1       2.936   1.575  21.792  0.00  0.00    +0.000 HD
ENDROOT
BRANCH   4  12
ATOM     12  C   ACE A   0       5.263   4.254  17.909  0.00  0.00    +0.000 C 
BRANCH  12  13
ATOM     13  N   UNL     1       6.695   4.040  18.188  0.00  0.00    +0.000 NA
ATOM     14  H   UNL     1       6.980   3.245  17.606  0.00  0.00    +0.000 HD
BRANCH  13  15
ATOM     15  CA  UNL     1       7.550   5.181  17.752  0.00  0.00    +0.000 C 
BRANCH  15  16
ATOM     16  CB  UNL     1       6.955   5.963  16.566  0.00  0.00    +0.000 C 
BRANCH  16  17
ATOM     17  O   UNL     1       7.540   5.545  15.337  0.00  0.00    +0.000 OA
ATOM     18  H   UNL     1       8.499   5.696  15.435  0.00  0.00    +0.000 HD
ENDBRANCH  16  17
ENDBRANCH  15  16
BRANCH  15  19
ATOM     19  C   UNL     1       7.721   6.127  18.961  0.00  0.00    +0.000 C 
BRANCH  19  20
ATOM     20  O   UNL     1       7.816   5.360  20.164  0.00  0.00    +0.000 OA
ATOM     21  H   UNL     1       8.670   4.894  20.131  0.00  0.00    +0.000 HD
ENDBRANCH  19  20
ENDBRANCH  15  19
ENDBRANCH  13  15
ENDBRANCH  12  13
ENDBRANCH   4  12
TORSDOF 7
ENDMDL
MODEL 2
REMARK VINA RESULT:      -6.1      1.205      1.236
REMARK  Name = 
REMARK  7 active torsions:
REMARK  status: ('A' for Active; 'I' for Inactive)
REMARK    1  A    between atoms: C_4  and  C_5
REMARK    2  A    between atoms: C_5  and  N_6
REMARK    3  A    between atoms: N_6  and  CA_7
REMARK    4  A    between atoms: CA_7  and  CB_8
REMARK    5  A    between atoms: CA_7  and  C_10
REMARK    6  A    between atoms: CB_8  and  OG_9
REMARK    7  A    between atoms: C_10  and  O_11
REMARK                            x       y       z     vdW  Elec       q    Type
REMARK                         _______ _______ _______ _____ _____    ______ ____
ROOT
ATOM      1  O   UNL     1       5.357   1.288  21.527  0.00  0.00    +0.000 OA
ATOM      2  C   UNL     1       4.654   2.041  20.864  0.00  0.00    +0.000 A 
ATOM      3  N   UNL     1       5.112   2.652  19.735  0.00  0.00    +0.000 N 
ATOM      4  C   UNL     1       4.368   3.494  18.925  0.00  0.00    +0.000 A 
ATOM      5  C   UNL     1       3.082   3.755  19.237  0.00  0.00    +0.000 A 
ATOM      6  I   UNL     1       1.810   4.943  18.133  0.00  0.00    +0.000 I 
ATOM      7  C   UNL     1       2.518   3.115  20.473  0.00  0.00    +0.000 A 
ATOM      8  O   UNL     1       1.357   3.272  20.844  0.00  0.00    +0.000 OA
ATOM      9  N   UNL     1       3.367   2.322  21.197  0.00  0.00    +0.000 N 
ATOM     10  H   UNL     1       6.061   2.418  19.459  0.00  0.00    +0.000 HD
ATOM     11  H   UNL     1       2.996   1.877  22.023  0.00  0.00    +0.000 HD
ENDROOT
BRANCH   4  12
ATOM     12  C   ACE A   0       5.144   4.018  17.725  0.00  0.00    +0.000 C 
BRANCH  12  13
ATOM     13  N   UNL     1       6.578   4.085  18.062  0.00  0.00    +0.000 NA
ATOM     14  H   UNL     1       6.937   3.130  17.956  0.00  0.00    +0.000 HD
BRANCH  13  15
ATOM     15  CA  UNL     1       7.363   4.915  17.103  0.00  0.00    +0.000 C 
BRANCH  15  16
ATOM     16  CB  UNL     1       6.910   4.740  15.641  0.00  0.00    +0.000 C 
BRANCH  16  17
ATOM     17  O   UNL     1       7.827   5.363  14.747  0.00  0.00    +0.000 OA
ATOM     18  H   UNL     1       8.260   4.635  14.263  0.00  0.00    +0.000 HD
ENDBRANCH  16  17
ENDBRANCH  15  16
BRANCH  15  19
ATOM     19  C   UNL     1       7.199   6.393  17.521  0.00  0.00    +0.000 C 
BRANCH  19  20
ATOM     20  O   UNL     1       6.440   7.093  16.533  0.00  0.00    +0.000 OA
ATOM     21  H   UNL     1       5.673   6.534  16.322  0.00  0.00    +0.000 HD
ENDBRANCH  19  20
ENDBRANCH  15  19
ENDBRANCH  13  15
ENDBRANCH  12  13
ENDBRANCH   4  12
TORSDOF 7
ENDMDL
MODEL 3
REMARK VINA RESULT:      -6.0      2.118      2.198
REMARK  Name = 
REMARK  7 active torsions:
REMARK  status: ('A' for Active; 'I' for Inactive)
REMARK    1  A    between atoms: C_4  and  C_5
REMARK    2  A    between atoms: C_5  and  N_6
REMARK    3  A    between atoms: N_6  and  CA_7
REMARK    4  A    between atoms: CA_7  and  CB_8
REMARK    5  A    between atoms: CA_7  and  C_10
REMARK    6  A    between atoms: CB_8  and  OG_9
REMARK    7  A    between atoms: C_10  and  O_11
REMARK                            x       y       z     vdW  Elec       q    Type
REMARK                         _______ _______ _______ _____ _____    ______ ____
ROOT
ATOM      1  O   UNL     1       3.772   0.744  18.489  0.00  0.00    +0.000 OA
ATOM      2  C   UNL     1       3.597   1.955  18.423  0.00  0.00    +0.000 A 
ATOM      3  N   UNL     1       4.566   2.845  18.775  0.00  0.00    +0.000 N 
ATOM      4  C   UNL     1       4.448   4.224  18.702  0.00  0.00    +0.000 A 
ATOM      5  C   UNL     1       3.302   4.772  18.249  0.00  0.00    +0.000 A 
ATOM      6  I   UNL     1       2.957   6.792  18.029  0.00  0.00    +0.000 I 
ATOM      7  C   UNL     1       2.192   3.842  17.848  0.00  0.00    +0.000 A 
ATOM      8  O   UNL     1       1.112   4.232  17.409  0.00  0.00    +0.000 OA
ATOM      9  N   UNL     1       2.431   2.503  17.990  0.00  0.00    +0.000 N 
ATOM     10  H   UNL     1       5.453   2.445  19.064  0.00  0.00    +0.000 HD
ATOM     11  H   UNL     1       1.698   1.868  17.713  0.00  0.00    +0.000 HD
ENDROOT
BRANCH   4  12
ATOM     12  C   ACE A   0       5.700   4.962  19.152  0.00  0.00    +0.000 C 
BRANCH  12  13
ATOM     13  N   UNL     1       6.877   4.381  18.481  0.00  0.00    +0.000 NA
ATOM     14  H   UNL     1       6.526   3.593  17.928  0.00  0.00    +0.000 HD
BRANCH  13  15
ATOM     15  CA  UNL     1       7.503   5.311  17.496  0.00  0.00    +0.000 C 
BRANCH  15  16
ATOM     16  CB  UNL     1       6.762   5.351  16.147  0.00  0.00    +0.000 C 
BRANCH  16  17
ATOM     17  O   UNL     1       7.450   4.582  15.166  0.00  0.00    +0.000 OA
ATOM     18  H   UNL     1       8.068   5.199  14.731  0.00  0.00    +0.000 HD
ENDBRANCH  16  17
ENDBRANCH  15  16
BRANCH  15  19
ATOM     19  C   UNL     1       7.511   6.722  18.125  0.00  0.00    +0.000 C 
BRANCH  19  20
ATOM     20  O   UNL     1       7.012   7.673  17.182  0.00  0.00    +0.000 OA
ATOM     21  H   UNL     1       7.432   7.467  16.329  0.00  0.00    +0.000 HD
ENDBRANCH  19  20
ENDBRANCH  15  19
ENDBRANCH  13  15
ENDBRANCH  12  13
ENDBRANCH   4  12
TORSDOF 7
ENDMDL
MODEL 4
REMARK VINA RESULT:      -6.0      1.746      2.715
REMARK  Name = 
REMARK  7 active torsions:
REMARK  status: ('A' for Active; 'I' for Inactive)
REMARK    1  A    between atoms: C_4  and  C_5
REMARK    2  A    between atoms: C_5  and  N_6
REMARK    3  A    between atoms: N_6  and  CA_7
REMARK    4  A    between atoms: CA_7  and  CB_8
REMARK    5  A    between atoms: CA_7  and  C_10
REMARK    6  A    between atoms: CB_8  and  OG_9
REMARK    7  A    between atoms: C_10  and  O_11
REMARK                            x       y       z     vdW  Elec       q    Type
REMARK                         _______ _______ _______ _____ _____    ______ ____
ROOT
ATOM      1  O   UNL     1       2.413   2.340  21.979  0.00  0.00    +0.000 OA
ATOM      2  C   UNL     1       2.593   3.270  21.201  0.00  0.00    +0.000 A 
ATOM      3  N   UNL     1       3.390   3.149  20.103  0.00  0.00    +0.000 N 
ATOM      4  C   UNL     1       3.619   4.147  19.169  0.00  0.00    +0.000 A 
ATOM      5  C   UNL     1       3.024   5.348  19.318  0.00  0.00    +0.000 A 
ATOM      6  I   UNL     1       3.209   6.935  18.014  0.00  0.00    +0.000 I 
ATOM      7  C   UNL     1       2.135   5.547  20.513  0.00  0.00    +0.000 A 
ATOM      8  O   UNL     1       1.534   6.594  20.739  0.00  0.00    +0.000 OA
ATOM      9  N   UNL     1       2.012   4.487  21.369  0.00  0.00    +0.000 N 
ATOM     10  H   UNL     1       3.798   2.232  19.950  0.00  0.00    +0.000 HD
ATOM     11  H   UNL     1       1.409   4.604  22.169  0.00  0.00    +0.000 HD
ENDROOT
BRANCH   4  12
ATOM     12  C   ACE A   0       4.545   3.717  18.041  0.00  0.00    +0.000 C 
BRANCH  12  13
ATOM     13  N   UNL     1       5.946   3.859  18.478  0.00  0.00    +0.000 NA
ATOM     14  H   UNL     1       6.446   3.054  18.086  0.00  0.00    +0.000 HD
BRANCH  13  15
ATOM     15  CA  UNL     1       6.616   5.062  17.904  0.00  0.00    +0.000 C 
BRANCH  15  16
ATOM     16  CB  UNL     1       7.769   5.587  18.780  0.00  0.00    +0.000 C 
BRANCH  16  17
ATOM     17  O   UNL     1       7.462   5.444  20.164  0.00  0.00    +0.000 OA
ATOM     18  H   UNL     1       7.675   4.519  20.387  0.00  0.00    +0.000 HD
ENDBRANCH  16  17
ENDBRANCH  15  16
BRANCH  15  19
ATOM     19  C   UNL     1       7.159   4.675  16.511  0.00  0.00    +0.000 C 
BRANCH  19  20
ATOM     20  O   UNL     1       7.525   5.855  15.791  0.00  0.00    +0.000 OA
ATOM     21  H   UNL     1       8.495   5.842  15.709  0.00  0.00    +0.000 HD
ENDBRANCH  19  20
ENDBRANCH  15  19
ENDBRANCH  13  15
ENDBRANCH  12  13
ENDBRANCH   4  12
TORSDOF 7
ENDMDL
MODEL 5
REMARK VINA RESULT:      -5.9      2.075      2.677
REMARK  Name = 
REMARK  7 active torsions:
REMARK  status: ('A' for Active; 'I' for Inactive)
REMARK    1  A    between atoms: C_4  and  C_5
REMARK    2  A    between atoms: C_5  and  N_6
REMARK    3  A    between atoms: N_6  and  CA_7
REMARK    4  A    between atoms: CA_7  and  CB_8
REMARK    5  A    between atoms: CA_7  and  C_10
REMARK    6  A    between atoms: CB_8  and  OG_9
REMARK    7  A    between atoms: C_10  and  O_11
REMARK                            x       y       z     vdW  Elec       q    Type
REMARK                         _______ _______ _______ _____ _____    ______ ____
ROOT
ATOM      1  O   UNL     1       3.744   0.877  18.414  0.00  0.00    +0.000 OA
ATOM      2  C   UNL     1       3.541   2.085  18.405  0.00  0.00    +0.000 A 
ATOM      3  N   UNL     1       4.451   2.975  18.888  0.00  0.00    +0.000 N 
ATOM      4  C   UNL     1       4.300   4.353  18.888  0.00  0.00    +0.000 A 
ATOM      5  C   UNL     1       3.179   4.900  18.374  0.00  0.00    +0.000 A 
ATOM      6  I   UNL     1       2.795   6.921  18.245  0.00  0.00    +0.000 I 
ATOM      7  C   UNL     1       2.133   3.970  17.827  0.00  0.00    +0.000 A 
ATOM      8  O   UNL     1       1.082   4.360  17.324  0.00  0.00    +0.000 OA
ATOM      9  N   UNL     1       2.399   2.631  17.910  0.00  0.00    +0.000 N 
ATOM     10  H   UNL     1       5.323   2.579  19.227  0.00  0.00    +0.000 HD
ATOM     11  H   UNL     1       1.709   1.996  17.535  0.00  0.00    +0.000 HD
ENDROOT
BRANCH   4  12
ATOM     12  C   ACE A   0       5.489   5.092  19.483  0.00  0.00    +0.000 C 
BRANCH  12  13
ATOM     13  N   UNL     1       6.669   4.892  18.622  0.00  0.00    +0.000 NA
ATOM     14  H   UNL     1       6.688   3.892  18.398  0.00  0.00    +0.000 HD
BRANCH  13  15
ATOM     15  CA  UNL     1       6.558   5.593  17.310  0.00  0.00    +0.000 C 
BRANCH  15  16
ATOM     16  CB  UNL     1       7.176   7.004  17.325  0.00  0.00    +0.000 C 
BRANCH  16  17
ATOM     17  O   UNL     1       8.148   7.122  18.359  0.00  0.00    +0.000 OA
ATOM     18  H   UNL     1       7.998   6.360  18.951  0.00  0.00    +0.000 HD
ENDBRANCH  16  17
ENDBRANCH  15  16
BRANCH  15  19
ATOM     19  C   UNL     1       7.276   4.725  16.253  0.00  0.00    +0.000 C 
BRANCH  19  20
ATOM     20  O   UNL     1       7.569   5.514  15.099  0.00  0.00    +0.000 OA
ATOM     21  H   UNL     1       6.822   5.400  14.485  0.00  0.00    +0.000 HD
ENDBRANCH  19  20
ENDBRANCH  15  19
ENDBRANCH  13  15
ENDBRANCH  12  13
ENDBRANCH   4  12
TORSDOF 7
ENDMDL
MODEL 6
REMARK VINA RESULT:      -5.8      2.006      5.483
REMARK  Name = 
REMARK  7 active torsions:
REMARK  status: ('A' for Active; 'I' for Inactive)
REMARK    1  A    between atoms: C_4  and  C_5
REMARK    2  A    between atoms: C_5  and  N_6
REMARK    3  A    between atoms: N_6  and  CA_7
REMARK    4  A    between atoms: CA_7  and  CB_8
REMARK    5  A    between atoms: CA_7  and  C_10
REMARK    6  A    between atoms: CB_8  and  OG_9
REMARK    7  A    between atoms: C_10  and  O_11
REMARK                            x       y       z     vdW  Elec       q    Type
REMARK                         _______ _______ _______ _____ _____    ______ ____
ROOT
ATOM      1  O   UNL     1       8.486   4.015  17.802  0.00  0.00    +0.000 OA
ATOM      2  C   UNL     1       7.417   4.615  17.791  0.00  0.00    +0.000 A 
ATOM      3  N   UNL     1       6.407   4.308  18.652  0.00  0.00    +0.000 N 
ATOM      4  C   UNL     1       5.185   4.958  18.713  0.00  0.00    +0.000 A 
ATOM      5  C   UNL     1       4.933   5.985  17.876  0.00  0.00    +0.000 A 
ATOM      6  I   UNL     1       3.198   7.097  17.848  0.00  0.00    +0.000 I 
ATOM      7  C   UNL     1       6.007   6.370  16.898  0.00  0.00    +0.000 A 
ATOM      8  O   UNL     1       5.890   7.297  16.100  0.00  0.00    +0.000 OA
ATOM      9  N   UNL     1       7.158   5.632  16.928  0.00  0.00    +0.000 N 
ATOM     10  H   UNL     1       6.606   3.574  19.325  0.00  0.00    +0.000 HD
ATOM     11  H   UNL     1       7.891   5.888  16.284  0.00  0.00    +0.000 HD
ENDROOT
BRANCH   4  12
ATOM     12  C   ACE A   0       4.259   4.403  19.785  0.00  0.00    +0.000 C 
BRANCH  12  13
ATOM     13  N   UNL     1       3.366   3.395  19.185  0.00  0.00    +0.000 NA
ATOM     14  H   UNL     1       3.540   2.523  19.696  0.00  0.00    +0.000 HD
BRANCH  13  15
ATOM     15  CA  UNL     1       1.920   3.698  19.395  0.00  0.00    +0.000 C 
BRANCH  15  16
ATOM     16  CB  UNL     1       0.985   2.643  18.775  0.00  0.00    +0.000 C 
BRANCH  16  17
ATOM     17  O   UNL     1       1.619   1.369  18.726  0.00  0.00    +0.000 OA
ATOM     18  H   UNL     1       2.555   1.530  18.948  0.00  0.00    +0.000 HD
ENDBRANCH  16  17
ENDBRANCH  15  16
BRANCH  15  19
ATOM     19  C   UNL     1       1.676   3.776  20.919  0.00  0.00    +0.000 C 
BRANCH  19  20
ATOM     20  O   UNL     1       1.852   2.483  21.502  0.00  0.00    +0.000 OA
ATOM     21  H   UNL     1       2.790   2.415  21.753  0.00  0.00    +0.000 HD
ENDBRANCH  19  20
ENDBRANCH  15  19
ENDBRANCH  13  15
ENDBRANCH  12  13
ENDBRANCH   4  12
TORSDOF 7
ENDMDL
MODEL 7
REMARK VINA RESULT:      -5.8      1.752      2.235
REMARK  Name = 
REMARK  7 active torsions:
REMARK  status: ('A' for Active; 'I' for Inactive)
REMARK    1  A    between atoms: C_4  and  C_5
REMARK    2  A    between atoms: C_5  and  N_6
REMARK    3  A    between atoms: N_6  and  CA_7
REMARK    4  A    between atoms: CA_7  and  CB_8
REMARK    5  A    between atoms: CA_7  and  C_10
REMARK    6  A    between atoms: CB_8  and  OG_9
REMARK    7  A    between atoms: C_10  and  O_11
REMARK                            x       y       z     vdW  Elec       q    Type
REMARK                         _______ _______ _______ _____ _____    ______ ____
ROOT
ATOM      1  O   UNL     1       5.117   1.293  20.119  0.00  0.00    +0.000 OA
ATOM      2  C   UNL     1       4.527   2.366  20.068  0.00  0.00    +0.000 A 
ATOM      3  N   UNL     1       5.031   3.437  19.395  0.00  0.00    +0.000 N 
ATOM      4  C   UNL     1       4.409   4.670  19.275  0.00  0.00    +0.000 A 
ATOM      5  C   UNL     1       3.206   4.868  19.852  0.00  0.00    +0.000 A 
ATOM      6  I   UNL     1       2.111   6.612  19.747  0.00  0.00    +0.000 I 
ATOM      7  C   UNL     1       2.598   3.726  20.615  0.00  0.00    +0.000 A 
ATOM      8  O   UNL     1       1.502   3.791  21.167  0.00  0.00    +0.000 OA
ATOM      9  N   UNL     1       3.327   2.570  20.674  0.00  0.00    +0.000 N 
ATOM     10  H   UNL     1       5.909   3.283  18.908  0.00  0.00    +0.000 HD
ATOM     11  H   UNL     1       2.924   1.791  21.173  0.00  0.00    +0.000 HD
ENDROOT
BRANCH   4  12
ATOM     12  C   ACE A   0       5.206   5.671  18.452  0.00  0.00    +0.000 C 
BRANCH  12  13
ATOM     13  N   UNL     1       4.912   5.471  17.021  0.00  0.00    +0.000 NA
ATOM     14  H   UNL     1       4.460   6.335  16.703  0.00  0.00    +0.000 HD
BRANCH  13  15
ATOM     15  CA  UNL     1       6.142   5.334  16.188  0.00  0.00    +0.000 C 
BRANCH  15  16
ATOM     16  CB  UNL     1       7.441   5.411  17.011  0.00  0.00    +0.000 C 
BRANCH  16  17
ATOM     17  O   UNL     1       8.058   4.131  17.108  0.00  0.00    +0.000 OA
ATOM     18  H   UNL     1       9.014   4.289  16.999  0.00  0.00    +0.000 HD
ENDBRANCH  16  17
ENDBRANCH  15  16
BRANCH  15  19
ATOM     19  C   UNL     1       6.068   3.971  15.465  0.00  0.00    +0.000 C 
BRANCH  19  20
ATOM     20  O   UNL     1       5.534   2.984  16.349  0.00  0.00    +0.000 OA
ATOM     21  H   UNL     1       6.113   2.205  16.281  0.00  0.00    +0.000 HD
ENDBRANCH  19  20
ENDBRANCH  15  19
ENDBRANCH  13  15
ENDBRANCH  12  13
ENDBRANCH   4  12
TORSDOF 7
ENDMDL
MODEL 8
REMARK VINA RESULT:      -5.8      1.903      5.697
REMARK  Name = 
REMARK  7 active torsions:
REMARK  status: ('A' for Active; 'I' for Inactive)
REMARK    1  A    between atoms: C_4  and  C_5
REMARK    2  A    between atoms: C_5  and  N_6
REMARK    3  A    between atoms: N_6  and  CA_7
REMARK    4  A    between atoms: CA_7  and  CB_8
REMARK    5  A    between atoms: CA_7  and  C_10
REMARK    6  A    between atoms: CB_8  and  OG_9
REMARK    7  A    between atoms: C_10  and  O_11
REMARK                            x       y       z     vdW  Elec       q    Type
REMARK                         _______ _______ _______ _____ _____    ______ ____
ROOT
ATOM      1  O   UNL     1       7.446   5.588  20.471  0.00  0.00    +0.000 OA
ATOM      2  C   UNL     1       7.052   5.375  19.330  0.00  0.00    +0.000 A 
ATOM      3  N   UNL     1       6.001   4.549  19.071  0.00  0.00    +0.000 N 
ATOM      4  C   UNL     1       5.487   4.281  17.812  0.00  0.00    +0.000 A 
ATOM      5  C   UNL     1       6.038   4.866  16.729  0.00  0.00    +0.000 A 
ATOM      6  I   UNL     1       5.386   4.625  14.788  0.00  0.00    +0.000 I 
ATOM      7  C   UNL     1       7.205   5.786  16.948  0.00  0.00    +0.000 A 
ATOM      8  O   UNL     1       7.774   6.382  16.036  0.00  0.00    +0.000 OA
ATOM      9  N   UNL     1       7.628   5.947  18.239  0.00  0.00    +0.000 N 
ATOM     10  H   UNL     1       5.542   4.146  19.883  0.00  0.00    +0.000 HD
ATOM     11  H   UNL     1       8.403   6.571  18.400  0.00  0.00    +0.000 HD
ENDROOT
BRANCH   4  12
ATOM     12  C   ACE A   0       4.301   3.328  17.835  0.00  0.00    +0.000 C 
BRANCH  12  13
ATOM     13  N   UNL     1       4.353   2.511  19.061  0.00  0.00    +0.000 NA
ATOM     14  H   UNL     1       4.905   3.051  19.736  0.00  0.00    +0.000 HD
BRANCH  13  15
ATOM     15  CA  UNL     1       3.016   2.328  19.696  0.00  0.00    +0.000 C 
BRANCH  15  16
ATOM     16  CB  UNL     1       2.872   3.082  21.031  0.00  0.00    +0.000 C 
BRANCH  16  17
ATOM     17  O   UNL     1       2.016   2.376  21.923  0.00  0.00    +0.000 OA
ATOM     18  H   UNL     1       1.429   1.840  21.358  0.00  0.00    +0.000 HD
ENDBRANCH  16  17
ENDBRANCH  15  16
BRANCH  15  19
ATOM     19  C   UNL     1       1.951   2.835  18.697  0.00  0.00    +0.000 C 
BRANCH  19  20
ATOM     20  O   UNL     1       0.728   3.096  19.388  0.00  0.00    +0.000 OA
ATOM     21  H   UNL     1       0.890   3.865  19.962  0.00  0.00    +0.000 HD
ENDBRANCH  19  20
ENDBRANCH  15  19
ENDBRANCH  13  15
ENDBRANCH  12  13
ENDBRANCH   4  12
TORSDOF 7
ENDMDL
MODEL 9
REMARK VINA RESULT:      -5.8      1.768      2.098
REMARK  Name = 
REMARK  7 active torsions:
REMARK  status: ('A' for Active; 'I' for Inactive)
REMARK    1  A    between atoms: C_4  and  C_5
REMARK    2  A    between atoms: C_5  and  N_6
REMARK    3  A    between atoms: N_6  and  CA_7
REMARK    4  A    between atoms: CA_7  and  CB_8
REMARK    5  A    between atoms: CA_7  and  C_10
REMARK    6  A    between atoms: CB_8  and  OG_9
REMARK    7  A    between atoms: C_10  and  O_11
REMARK                            x       y       z     vdW  Elec       q    Type
REMARK                         _______ _______ _______ _____ _____    ______ ____
ROOT
ATOM      1  O   UNL     1       4.968   1.134  20.208  0.00  0.00    +0.000 OA
ATOM      2  C   UNL     1       4.518   2.233  19.905  0.00  0.00    +0.000 A 
ATOM      3  N   UNL     1       5.326   3.290  19.613  0.00  0.00    +0.000 N 
ATOM      4  C   UNL     1       4.888   4.550  19.240  0.00  0.00    +0.000 A 
ATOM      5  C   UNL     1       3.566   4.795  19.141  0.00  0.00    +0.000 A 
ATOM      6  I   UNL     1       2.729   6.587  18.561  0.00  0.00    +0.000 I 
ATOM      7  C   UNL     1       2.620   3.670  19.455  0.00  0.00    +0.000 A 
ATOM      8  O   UNL     1       1.398   3.777  19.384  0.00  0.00    +0.000 OA
ATOM      9  N   UNL     1       3.183   2.482  19.832  0.00  0.00    +0.000 N 
ATOM     10  H   UNL     1       6.324   3.103  19.629  0.00  0.00    +0.000 HD
ATOM     11  H   UNL     1       2.559   1.715  20.034  0.00  0.00    +0.000 HD
ENDROOT
BRANCH   4  12
ATOM     12  C   ACE A   0       6.023   5.526  18.964  0.00  0.00    +0.000 C 
BRANCH  12  13
ATOM     13  N   UNL     1       7.086   4.838  18.208  0.00  0.00    +0.000 NA
ATOM     14  H   UNL     1       6.811   3.851  18.170  0.00  0.00    +0.000 HD
BRANCH  13  15
ATOM     15  CA  UNL     1       7.170   5.283  16.787  0.00  0.00    +0.000 C 
BRANCH  15  16
ATOM     16  CB  UNL     1       6.821   4.168  15.783  0.00  0.00    +0.000 C 
BRANCH  16  17
ATOM     17  O   UNL     1       5.765   3.352  16.278  0.00  0.00    +0.000 OA
ATOM     18  H   UNL     1       4.974   3.603  15.766  0.00  0.00    +0.000 HD
ENDBRANCH  16  17
ENDBRANCH  15  16
BRANCH  15  19
ATOM     19  C   UNL     1       6.193   6.466  16.608  0.00  0.00    +0.000 C 
BRANCH  19  20
ATOM     20  O   UNL     1       5.472   6.315  15.383  0.00  0.00    +0.000 OA
ATOM     21  H   UNL     1       5.454   5.362  15.185  0.00  0.00    +0.000 HD
ENDBRANCH  19  20
ENDBRANCH  15  19
ENDBRANCH  13  15
ENDBRANCH  12  13
ENDBRANCH   4  12
TORSDOF 7
ENDMDL
