MODEL 1
REMARK VINA RESULT:      -8.4      0.000      0.000
REMARK  Name = 
REMARK  1 active torsions:
REMARK  status: ('A' for Active; 'I' for Inactive)
REMARK    1  A    between atoms: N_16  and  C_17
REMARK                            x       y       z     vdW  Elec       q    Type
REMARK                         _______ _______ _______ _____ _____    ______ ____
ROOT
ATOM      1  O   UNL     1       7.777   4.059  17.660  0.00  0.00    +0.000 OA
ATOM      2  C   UNL     1       7.031   5.035  17.558  0.00  0.00    +0.000 C 
ATOM      3  C   UNL     1       7.466   6.267  16.813  0.00  0.00    +0.000 C 
ATOM      4  C   UNL     1       6.915   7.483  17.524  0.00  0.00    +0.000 C 
ATOM      5  C   UNL     1       5.393   7.405  17.621  0.00  0.00    +0.000 C 
ATOM      6  C   UNL     1       4.813   6.072  18.079  0.00  0.00    +0.000 C 
ATOM      7  C   UNL     1       5.632   4.989  18.088  0.00  0.00    +0.000 C 
ATOM      8  C   UNL     1       5.192   3.643  18.566  0.00  0.00    +0.000 C 
ATOM      9  C   UNL     1       3.705   3.539  18.671  0.00  0.00    +0.000 C 
ATOM     10  C   UNL     1       2.890   4.621  18.642  0.00  0.00    +0.000 C 
ATOM     11  C   UNL     1       1.373   4.385  18.657  0.00  0.00    +0.000 C 
ATOM     12  C   UNL     1       0.969   3.031  19.249  0.00  0.00    +0.000 C 
ATOM     13  C   UNL     1       1.712   1.913  18.560  0.00  0.00    +0.000 C 
ATOM     14  C   UNL     1       3.189   2.132  18.710  0.00  0.00    +0.000 C 
ATOM     15  O   UNL     1       3.964   1.185  18.816  0.00  0.00    +0.000 OA
ATOM     16  N   UNL     1       3.429   5.955  18.481  0.00  0.00    +0.000 N 
ENDROOT
BRANCH  16  17
ATOM     17  C   UNL     1       2.594   7.116  18.735  0.00  0.00    +0.000 A 
ATOM     18  C   UNL     1       2.214   7.984  17.691  0.00  0.00    +0.000 A 
ATOM     19  C   UNL     1       1.516   9.178  17.930  0.00  0.00    +0.000 A 
ATOM     20  C   UNL     1       1.047   9.467  19.203  0.00  0.00    +0.000 A 
ATOM     21  C   UNL     1       1.318   8.585  20.240  0.00  0.00    +0.000 A 
ATOM     22  C   UNL     1       2.128   7.464  20.016  0.00  0.00    +0.000 A 
ENDBRANCH  16  17
TORSDOF 1
ENDMDL
MODEL 2
REMARK VINA RESULT:      -8.3      0.069      1.021
REMARK  Name = 
REMARK  1 active torsions:
REMARK  status: ('A' for Active; 'I' for Inactive)
REMARK    1  A    between atoms: N_16  and  C_17
REMARK                            x       y       z     vdW  Elec       q    Type
REMARK                         _______ _______ _______ _____ _____    ______ ____
ROOT
ATOM      1  O   UNL     1       7.758   4.028  17.640  0.00  0.00    +0.000 OA
ATOM      2  C   UNL     1       7.027   5.015  17.532  0.00  0.00    +0.000 C 
ATOM      3  C   UNL     1       7.478   6.231  16.770  0.00  0.00    +0.000 C 
ATOM      4  C   UNL     1       6.952   7.464  17.470  0.00  0.00    +0.000 C 
ATOM      5  C   UNL     1       5.429   7.412  17.577  0.00  0.00    +0.000 C 
ATOM      6  C   UNL     1       4.830   6.094  18.053  0.00  0.00    +0.000 C 
ATOM      7  C   UNL     1       5.631   4.998  18.070  0.00  0.00    +0.000 C 
ATOM      8  C   UNL     1       5.171   3.665  18.565  0.00  0.00    +0.000 C 
ATOM      9  C   UNL     1       3.683   3.587  18.680  0.00  0.00    +0.000 C 
ATOM     10  C   UNL     1       2.886   4.681  18.644  0.00  0.00    +0.000 C 
ATOM     11  C   UNL     1       1.365   4.471  18.670  0.00  0.00    +0.000 C 
ATOM     12  C   UNL     1       0.943   3.131  19.280  0.00  0.00    +0.000 C 
ATOM     13  C   UNL     1       1.663   1.992  18.600  0.00  0.00    +0.000 C 
ATOM     14  C   UNL     1       3.145   2.189  18.739  0.00  0.00    +0.000 C 
ATOM     15  O   UNL     1       3.904   1.230  18.851  0.00  0.00    +0.000 OA
ATOM     16  N   UNL     1       3.446   6.005  18.464  0.00  0.00    +0.000 N 
ENDROOT
BRANCH  16  17
ATOM     17  C   UNL     1       2.632   7.182  18.710  0.00  0.00    +0.000 A 
ATOM     18  C   UNL     1       2.173   7.495  20.005  0.00  0.00    +0.000 A 
ATOM     19  C   UNL     1       1.283   8.552  20.247  0.00  0.00    +0.000 A 
ATOM     20  C   UNL     1       0.941   9.422  19.222  0.00  0.00    +0.000 A 
ATOM     21  C   UNL     1       1.452   9.202  17.950  0.00  0.00    +0.000 A 
ATOM     22  C   UNL     1       2.234   8.068  17.693  0.00  0.00    +0.000 A 
ENDBRANCH  16  17
TORSDOF 1
ENDMDL
MODEL 3
REMARK VINA RESULT:      -8.0      0.678      4.317
REMARK  Name = 
REMARK  1 active torsions:
REMARK  status: ('A' for Active; 'I' for Inactive)
REMARK    1  A    between atoms: N_16  and  C_17
REMARK                            x       y       z     vdW  Elec       q    Type
REMARK                         _______ _______ _______ _____ _____    ______ ____
ROOT
ATOM      1  O   UNL     1       3.439   1.183  17.833  0.00  0.00    +0.000 OA
ATOM      2  C   UNL     1       2.895   2.139  18.390  0.00  0.00    +0.000 C 
ATOM      3  C   UNL     1       1.850   1.924  19.451  0.00  0.00    +0.000 C 
ATOM      4  C   UNL     1       0.794   2.998  19.315  0.00  0.00    +0.000 C 
ATOM      5  C   UNL     1       1.421   4.386  19.431  0.00  0.00    +0.000 C 
ATOM      6  C   UNL     1       2.690   4.622  18.622  0.00  0.00    +0.000 C 
ATOM      7  C   UNL     1       3.326   3.542  18.101  0.00  0.00    +0.000 C 
ATOM      8  C   UNL     1       4.548   3.654  17.247  0.00  0.00    +0.000 C 
ATOM      9  C   UNL     1       5.182   5.003  17.341  0.00  0.00    +0.000 C 
ATOM     10  C   UNL     1       4.552   6.074  17.879  0.00  0.00    +0.000 C 
ATOM     11  C   UNL     1       5.339   7.386  18.014  0.00  0.00    +0.000 C 
ATOM     12  C   UNL     1       6.521   7.493  17.046  0.00  0.00    +0.000 C 
ATOM     13  C   UNL     1       7.411   6.280  17.167  0.00  0.00    +0.000 C 
ATOM     14  C   UNL     1       6.608   5.045  16.881  0.00  0.00    +0.000 C 
ATOM     15  O   UNL     1       7.115   4.073  16.326  0.00  0.00    +0.000 OA
ATOM     16  N   UNL     1       3.215   5.956  18.423  0.00  0.00    +0.000 N 
ENDROOT
BRANCH  16  17
ATOM     17  C   UNL     1       2.443   7.147  18.732  0.00  0.00    +0.000 A 
ATOM     18  C   UNL     1       2.030   8.033  17.717  0.00  0.00    +0.000 A 
ATOM     19  C   UNL     1       1.396   9.252  18.002  0.00  0.00    +0.000 A 
ATOM     20  C   UNL     1       1.022   9.554  19.303  0.00  0.00    +0.000 A 
ATOM     21  C   UNL     1       1.326   8.658  20.319  0.00  0.00    +0.000 A 
ATOM     22  C   UNL     1       2.075   7.507  20.041  0.00  0.00    +0.000 A 
ENDBRANCH  16  17
TORSDOF 1
ENDMDL
MODEL 4
REMARK VINA RESULT:      -8.0      1.282      4.361
REMARK  Name = 
REMARK  1 active torsions:
REMARK  status: ('A' for Active; 'I' for Inactive)
REMARK    1  A    between atoms: N_16  and  C_17
REMARK                            x       y       z     vdW  Elec       q    Type
REMARK                         _______ _______ _______ _____ _____    ______ ____
ROOT
ATOM      1  O   UNL     1       2.983   1.139  18.937  0.00  0.00    +0.000 OA
ATOM      2  C   UNL     1       2.656   2.230  19.409  0.00  0.00    +0.000 C 
ATOM      3  C   UNL     1       2.029   2.327  20.772  0.00  0.00    +0.000 C 
ATOM      4  C   UNL     1       0.987   3.424  20.749  0.00  0.00    +0.000 C 
ATOM      5  C   UNL     1       1.615   4.753  20.334  0.00  0.00    +0.000 C 
ATOM      6  C   UNL     1       2.539   4.714  19.123  0.00  0.00    +0.000 C 
ATOM      7  C   UNL     1       2.964   3.502  18.683  0.00  0.00    +0.000 C 
ATOM      8  C   UNL     1       3.828   3.335  17.474  0.00  0.00    +0.000 C 
ATOM      9  C   UNL     1       4.456   4.622  17.046  0.00  0.00    +0.000 C 
ATOM     10  C   UNL     1       4.041   5.828  17.502  0.00  0.00    +0.000 C 
ATOM     11  C   UNL     1       4.826   7.075  17.070  0.00  0.00    +0.000 C 
ATOM     12  C   UNL     1       5.615   6.882  15.771  0.00  0.00    +0.000 C 
ATOM     13  C   UNL     1       6.495   5.659  15.867  0.00  0.00    +0.000 C 
ATOM     14  C   UNL     1       5.644   4.456  16.148  0.00  0.00    +0.000 C 
ATOM     15  O   UNL     1       5.936   3.353  15.694  0.00  0.00    +0.000 OA
ATOM     16  N   UNL     1       2.964   5.930  18.465  0.00  0.00    +0.000 N 
ENDROOT
BRANCH  16  17
ATOM     17  C   UNL     1       2.340   7.215  18.730  0.00  0.00    +0.000 A 
ATOM     18  C   UNL     1       2.025   7.616  20.044  0.00  0.00    +0.000 A 
ATOM     19  C   UNL     1       1.310   8.792  20.314  0.00  0.00    +0.000 A 
ATOM     20  C   UNL     1       1.016   9.679  19.288  0.00  0.00    +0.000 A 
ATOM     21  C   UNL     1       1.397   9.363  17.991  0.00  0.00    +0.000 A 
ATOM     22  C   UNL     1       1.994   8.126  17.716  0.00  0.00    +0.000 A 
ENDBRANCH  16  17
TORSDOF 1
ENDMDL
MODEL 5
REMARK VINA RESULT:      -7.8      2.503      5.066
REMARK  Name = 
REMARK  1 active torsions:
REMARK  status: ('A' for Active; 'I' for Inactive)
REMARK    1  A    between atoms: N_16  and  C_17
REMARK                            x       y       z     vdW  Elec       q    Type
REMARK                         _______ _______ _______ _____ _____    ______ ____
ROOT
ATOM      1  O   UNL     1       5.224   7.252  15.251  0.00  0.00    +0.000 OA
ATOM      2  C   UNL     1       5.063   6.398  16.126  0.00  0.00    +0.000 C 
ATOM      3  C   UNL     1       6.038   5.265  16.290  0.00  0.00    +0.000 C 
ATOM      4  C   UNL     1       5.273   4.020  16.678  0.00  0.00    +0.000 C 
ATOM      5  C   UNL     1       4.480   4.256  17.963  0.00  0.00    +0.000 C 
ATOM      6  C   UNL     1       3.684   5.552  18.036  0.00  0.00    +0.000 C 
ATOM      7  C   UNL     1       3.949   6.517  17.118  0.00  0.00    +0.000 C 
ATOM      8  C   UNL     1       3.197   7.808  17.057  0.00  0.00    +0.000 C 
ATOM      9  C   UNL     1       2.411   8.064  18.302  0.00  0.00    +0.000 C 
ATOM     10  C   UNL     1       2.165   7.103  19.224  0.00  0.00    +0.000 C 
ATOM     11  C   UNL     1       1.433   7.507  20.512  0.00  0.00    +0.000 C 
ATOM     12  C   UNL     1       0.595   8.781  20.367  0.00  0.00    +0.000 C 
ATOM     13  C   UNL     1       1.439   9.905  19.816  0.00  0.00    +0.000 C 
ATOM     14  C   UNL     1       2.006   9.495  18.489  0.00  0.00    +0.000 C 
ATOM     15  O   UNL     1       2.178  10.316  17.591  0.00  0.00    +0.000 OA
ATOM     16  N   UNL     1       2.681   5.760  19.058  0.00  0.00    +0.000 N 
ENDROOT
BRANCH  16  17
ATOM     17  C   UNL     1       2.184   4.678  19.888  0.00  0.00    +0.000 A 
ATOM     18  C   UNL     1       2.670   4.478  21.196  0.00  0.00    +0.000 A 
ATOM     19  C   UNL     1       2.299   3.367  21.969  0.00  0.00    +0.000 A 
ATOM     20  C   UNL     1       1.315   2.501  21.514  0.00  0.00    +0.000 A 
ATOM     21  C   UNL     1       0.742   2.721  20.270  0.00  0.00    +0.000 A 
ATOM     22  C   UNL     1       1.214   3.757  19.452  0.00  0.00    +0.000 A 
ENDBRANCH  16  17
TORSDOF 1
ENDMDL
MODEL 6
REMARK VINA RESULT:      -7.8      2.489      4.976
REMARK  Name = 
REMARK  1 active torsions:
REMARK  status: ('A' for Active; 'I' for Inactive)
REMARK    1  A    between atoms: N_16  and  C_17
REMARK                            x       y       z     vdW  Elec       q    Type
REMARK                         _______ _______ _______ _____ _____    ______ ____
ROOT
ATOM      1  O   UNL     1       5.241   7.215  15.240  0.00  0.00    +0.000 OA
ATOM      2  C   UNL     1       5.098   6.359  16.116  0.00  0.00    +0.000 C 
ATOM      3  C   UNL     1       6.089   5.238  16.271  0.00  0.00    +0.000 C 
ATOM      4  C   UNL     1       5.343   3.983  16.664  0.00  0.00    +0.000 C 
ATOM      5  C   UNL     1       4.557   4.208  17.954  0.00  0.00    +0.000 C 
ATOM      6  C   UNL     1       3.744   5.494  18.035  0.00  0.00    +0.000 C 
ATOM      7  C   UNL     1       3.990   6.463  17.116  0.00  0.00    +0.000 C 
ATOM      8  C   UNL     1       3.220   7.743  17.061  0.00  0.00    +0.000 C 
ATOM      9  C   UNL     1       2.441   7.988  18.313  0.00  0.00    +0.000 C 
ATOM     10  C   UNL     1       2.214   7.023  19.236  0.00  0.00    +0.000 C 
ATOM     11  C   UNL     1       1.487   7.417  20.530  0.00  0.00    +0.000 C 
ATOM     12  C   UNL     1       0.632   8.680  20.392  0.00  0.00    +0.000 C 
ATOM     13  C   UNL     1       1.456   9.815  19.836  0.00  0.00    +0.000 C 
ATOM     14  C   UNL     1       2.018   9.413  18.503  0.00  0.00    +0.000 C 
ATOM     15  O   UNL     1       2.173  10.237  17.606  0.00  0.00    +0.000 OA
ATOM     16  N   UNL     1       2.747   5.688  19.065  0.00  0.00    +0.000 N 
ENDROOT
BRANCH  16  17
ATOM     17  C   UNL     1       2.270   4.598  19.898  0.00  0.00    +0.000 A 
ATOM     18  C   UNL     1       1.273   3.713  19.441  0.00  0.00    +0.000 A 
ATOM     19  C   UNL     1       0.707   2.734  20.272  0.00  0.00    +0.000 A 
ATOM     20  C   UNL     1       1.225   2.512  21.539  0.00  0.00    +0.000 A 
ATOM     21  C   UNL     1       2.275   3.302  21.988  0.00  0.00    +0.000 A 
ATOM     22  C   UNL     1       2.744   4.362  21.201  0.00  0.00    +0.000 A 
ENDBRANCH  16  17
TORSDOF 1
ENDMDL
MODEL 7
REMARK VINA RESULT:      -7.5      1.496      1.552
REMARK  Name = 
REMARK  1 active torsions:
REMARK  status: ('A' for Active; 'I' for Inactive)
REMARK    1  A    between atoms: N_16  and  C_17
REMARK                            x       y       z     vdW  Elec       q    Type
REMARK                         _______ _______ _______ _____ _____    ______ ____
ROOT
ATOM      1  O   UNL     1       6.773   3.912  16.405  0.00  0.00    +0.000 OA
ATOM      2  C   UNL     1       5.900   4.783  16.406  0.00  0.00    +0.000 C 
ATOM      3  C   UNL     1       5.629   5.608  15.177  0.00  0.00    +0.000 C 
ATOM      4  C   UNL     1       5.287   7.017  15.606  0.00  0.00    +0.000 C 
ATOM      5  C   UNL     1       4.084   7.015  16.547  0.00  0.00    +0.000 C 
ATOM      6  C   UNL     1       4.106   5.986  17.670  0.00  0.00    +0.000 C 
ATOM      7  C   UNL     1       5.014   4.979  17.596  0.00  0.00    +0.000 C 
ATOM      8  C   UNL     1       5.167   3.943  18.662  0.00  0.00    +0.000 C 
ATOM      9  C   UNL     1       4.002   3.920  19.598  0.00  0.00    +0.000 C 
ATOM     10  C   UNL     1       3.087   4.917  19.656  0.00  0.00    +0.000 C 
ATOM     11  C   UNL     1       1.878   4.738  20.585  0.00  0.00    +0.000 C 
ATOM     12  C   UNL     1       2.121   3.740  21.721  0.00  0.00    +0.000 C 
ATOM     13  C   UNL     1       2.615   2.425  21.169  0.00  0.00    +0.000 C 
ATOM     14  C   UNL     1       3.879   2.655  20.393  0.00  0.00    +0.000 C 
ATOM     15  O   UNL     1       4.772   1.812  20.371  0.00  0.00    +0.000 OA
ATOM     16  N   UNL     1       3.182   6.067  18.780  0.00  0.00    +0.000 N 
ENDROOT
BRANCH  16  17
ATOM     17  C   UNL     1       2.379   7.249  19.037  0.00  0.00    +0.000 A 
ATOM     18  C   UNL     1       2.022   8.129  17.996  0.00  0.00    +0.000 A 
ATOM     19  C   UNL     1       1.357   9.341  18.237  0.00  0.00    +0.000 A 
ATOM     20  C   UNL     1       0.898   9.641  19.512  0.00  0.00    +0.000 A 
ATOM     21  C   UNL     1       1.147   8.750  20.547  0.00  0.00    +0.000 A 
ATOM     22  C   UNL     1       1.925   7.607  20.319  0.00  0.00    +0.000 A 
ENDBRANCH  16  17
TORSDOF 1
ENDMDL
MODEL 8
REMARK VINA RESULT:      -7.4      2.342      5.748
REMARK  Name = 
REMARK  1 active torsions:
REMARK  status: ('A' for Active; 'I' for Inactive)
REMARK    1  A    between atoms: N_16  and  C_17
REMARK                            x       y       z     vdW  Elec       q    Type
REMARK                         _______ _______ _______ _____ _____    ______ ____
ROOT
ATOM      1  O   UNL     1       1.202   3.238  21.503  0.00  0.00    +0.000 OA
ATOM      2  C   UNL     1       1.877   3.113  20.478  0.00  0.00    +0.000 C 
ATOM      3  C   UNL     1       2.030   1.772  19.813  0.00  0.00    +0.000 C 
ATOM      4  C   UNL     1       3.434   1.663  19.261  0.00  0.00    +0.000 C 
ATOM      5  C   UNL     1       3.717   2.801  18.283  0.00  0.00    +0.000 C 
ATOM      6  C   UNL     1       3.308   4.198  18.735  0.00  0.00    +0.000 C 
ATOM      7  C   UNL     1       2.483   4.305  19.808  0.00  0.00    +0.000 C 
ATOM      8  C   UNL     1       2.057   5.621  20.375  0.00  0.00    +0.000 C 
ATOM      9  C   UNL     1       2.323   6.754  19.437  0.00  0.00    +0.000 C 
ATOM     10  C   UNL     1       3.131   6.637  18.357  0.00  0.00    +0.000 C 
ATOM     11  C   UNL     1       3.250   7.839  17.409  0.00  0.00    +0.000 C 
ATOM     12  C   UNL     1       2.899   9.176  18.068  0.00  0.00    +0.000 C 
ATOM     13  C   UNL     1       1.541   9.099  18.722  0.00  0.00    +0.000 C 
ATOM     14  C   UNL     1       1.542   7.997  19.739  0.00  0.00    +0.000 C 
ATOM     15  O   UNL     1       0.884   8.087  20.773  0.00  0.00    +0.000 OA
ATOM     16  N   UNL     1       3.771   5.377  18.037  0.00  0.00    +0.000 N 
ENDROOT
BRANCH  16  17
ATOM     17  C   UNL     1       4.845   5.330  17.061  0.00  0.00    +0.000 A 
ATOM     18  C   UNL     1       4.641   4.788  15.777  0.00  0.00    +0.000 A 
ATOM     19  C   UNL     1       5.692   4.616  14.863  0.00  0.00    +0.000 A 
ATOM     20  C   UNL     1       6.953   5.117  15.151  0.00  0.00    +0.000 A 
ATOM     21  C   UNL     1       7.169   5.745  16.370  0.00  0.00    +0.000 A 
ATOM     22  C   UNL     1       6.146   5.795  17.326  0.00  0.00    +0.000 A 
ENDBRANCH  16  17
TORSDOF 1
ENDMDL
MODEL 9
REMARK VINA RESULT:      -7.4      1.491      1.850
REMARK  Name = 
REMARK  1 active torsions:
REMARK  status: ('A' for Active; 'I' for Inactive)
REMARK    1  A    between atoms: N_16  and  C_17
REMARK                            x       y       z     vdW  Elec       q    Type
REMARK                         _______ _______ _______ _____ _____    ______ ____
ROOT
ATOM      1  O   UNL     1       6.760   3.884  16.382  0.00  0.00    +0.000 OA
ATOM      2  C   UNL     1       5.898   4.766  16.389  0.00  0.00    +0.000 C 
ATOM      3  C   UNL     1       5.637   5.601  15.166  0.00  0.00    +0.000 C 
ATOM      4  C   UNL     1       5.314   7.013  15.603  0.00  0.00    +0.000 C 
ATOM      5  C   UNL     1       4.111   7.021  16.545  0.00  0.00    +0.000 C 
ATOM      6  C   UNL     1       4.122   5.985  17.663  0.00  0.00    +0.000 C 
ATOM      7  C   UNL     1       5.016   4.967  17.581  0.00  0.00    +0.000 C 
ATOM      8  C   UNL     1       5.156   3.923  18.642  0.00  0.00    +0.000 C 
ATOM      9  C   UNL     1       3.992   3.910  19.579  0.00  0.00    +0.000 C 
ATOM     10  C   UNL     1       3.091   4.919  19.644  0.00  0.00    +0.000 C 
ATOM     11  C   UNL     1       1.880   4.750  20.573  0.00  0.00    +0.000 C 
ATOM     12  C   UNL     1       2.112   3.742  21.703  0.00  0.00    +0.000 C 
ATOM     13  C   UNL     1       2.588   2.424  21.143  0.00  0.00    +0.000 C 
ATOM     14  C   UNL     1       3.854   2.643  20.367  0.00  0.00    +0.000 C 
ATOM     15  O   UNL     1       4.736   1.788  20.339  0.00  0.00    +0.000 OA
ATOM     16  N   UNL     1       3.200   6.072  18.774  0.00  0.00    +0.000 N 
ENDROOT
BRANCH  16  17
ATOM     17  C   UNL     1       2.413   7.264  19.038  0.00  0.00    +0.000 A 
ATOM     18  C   UNL     1       1.962   7.567  20.339  0.00  0.00    +0.000 A 
ATOM     19  C   UNL     1       1.096   8.640  20.597  0.00  0.00    +0.000 A 
ATOM     20  C   UNL     1       0.775   9.533  19.586  0.00  0.00    +0.000 A 
ATOM     21  C   UNL     1       1.280   9.322  18.311  0.00  0.00    +0.000 A 
ATOM     22  C   UNL     1       2.035   8.175  18.035  0.00  0.00    +0.000 A 
ENDBRANCH  16  17
TORSDOF 1
ENDMDL
