MODEL 1
REMARK VINA RESULT:      -7.7      0.000      0.000
REMARK  Name = 
REMARK  10 active torsions:
REMARK  status: ('A' for Active; 'I' for Inactive)
REMARK    1  A    between atoms: C_1  and  C_2
REMARK    2  A    between atoms: C_2  and  O_3
REMARK    3  A    between atoms: O_3  and  C_4
REMARK    4  A    between atoms: C_4  and  C_6
REMARK    5  A    between atoms: C_6  and  C_7
REMARK    6  A    between atoms: C_7  and  C_8
REMARK    7  A    between atoms: C_8  and  C_9
REMARK    8  A    between atoms: C_9  and  C_10
REMARK    9  A    between atoms: N_11  and  N_12
REMARK   10  A    between atoms: C_17  and  C_18
REMARK                            x       y       z     vdW  Elec       q    Type
REMARK                         _______ _______ _______ _____ _____    ______ ____
ROOT
ATOM      1  C   UNL     1       3.248   4.153  17.808  0.00  0.00    +0.000 C 
ATOM      2  C   UNL     1       2.240   5.305  17.914  0.00  0.00    +0.000 C 
ATOM      3  C   UNL     1       2.921   6.403  18.711  0.00  0.00    +0.000 C 
ATOM      4  C   UNL     1       3.533   7.547  17.912  0.00  0.00    +0.000 C 
ATOM      5  O   UNL     1       3.944   5.739  19.445  0.00  0.00    +0.000 OA
ATOM      6  C   UNL     1       4.169   4.487  18.973  0.00  0.00    +0.000 C 
ATOM      7  O   UNL     1       5.024   3.752  19.445  0.00  0.00    +0.000 OA
ENDROOT
BRANCH   1   8
ATOM      8  C   UNL     1       2.583   2.800  18.054  0.00  0.00    +0.000 C 
ATOM      9  O   UNL     1       3.120   1.719  17.847  0.00  0.00    +0.000 OA
BRANCH   8  10
ATOM     10  O   UNL     1       1.315   2.948  18.523  0.00  0.00    +0.000 OA
BRANCH  10  12
ATOM     11  C   UNL     1       1.233   3.382  20.874  0.00  0.00    +0.000 C 
ATOM     12  C   UNL     1       1.048   2.329  19.793  0.00  0.00    +0.000 C 
ENDBRANCH  10  12
ENDBRANCH   8  10
ENDBRANCH   1   8
BRANCH   1  13
ATOM     13  C   UNL     1       4.044   4.124  16.478  0.00  0.00    +0.000 C 
BRANCH  13  14
ATOM     14  C   UNL     1       5.463   3.560  16.628  0.00  0.00    +0.000 C 
BRANCH  14  15
ATOM     15  C   UNL     1       6.650   4.285  15.990  0.00  0.00    +0.000 C 
ATOM     16  C   UNL     1       6.676   4.543  14.502  0.00  0.00    +0.000 C 
ATOM     17  N   UNL     1       7.667   4.732  16.679  0.00  0.00    +0.000 NA
BRANCH  17  18
ATOM     18  N   UNL     1       7.670   4.527  18.039  0.00  0.00    +0.000 N 
ATOM     19  C   UNL     1       7.755   5.538  18.960  0.00  0.00    +0.000 C 
ATOM     20  N   UNL     1       7.815   6.786  18.436  0.00  0.00    +0.000 N 
ATOM     21  O   UNL     1       7.776   5.335  20.164  0.00  0.00    +0.000 OA
ATOM     22  H   UNL     1       7.655   3.596  18.435  0.00  0.00    +0.000 HD
ATOM     23  H   UNL     1       8.112   6.828  17.470  0.00  0.00    +0.000 HD
ATOM     24  H   UNL     1       8.076   7.531  19.067  0.00  0.00    +0.000 HD
ENDBRANCH  17  18
ENDBRANCH  14  15
ENDBRANCH  13  14
ENDBRANCH   1  13
TORSDOF 7
ENDMDL
MODEL 2
REMARK VINA RESULT:      -7.4      1.038      1.234
REMARK  Name = 
REMARK  10 active torsions:
REMARK  status: ('A' for Active; 'I' for Inactive)
REMARK    1  A    between atoms: C_1  and  C_2
REMARK    2  A    between atoms: C_2  and  O_3
REMARK    3  A    between atoms: O_3  and  C_4
REMARK    4  A    between atoms: C_4  and  C_6
REMARK    5  A    between atoms: C_6  and  C_7
REMARK    6  A    between atoms: C_7  and  C_8
REMARK    7  A    between atoms: C_8  and  C_9
REMARK    8  A    between atoms: C_9  and  C_10
REMARK    9  A    between atoms: N_11  and  N_12
REMARK   10  A    between atoms: C_17  and  C_18
REMARK                            x       y       z     vdW  Elec       q    Type
REMARK                         _______ _______ _______ _____ _____    ______ ____
ROOT
ATOM      1  C   UNL     1       3.724   3.769  17.967  0.00  0.00    +0.000 C 
ATOM      2  C   UNL     1       2.675   4.889  17.928  0.00  0.00    +0.000 C 
ATOM      3  C   UNL     1       3.354   6.136  18.464  0.00  0.00    +0.000 C 
ATOM      4  C   UNL     1       3.868   7.132  17.431  0.00  0.00    +0.000 C 
ATOM      5  O   UNL     1       4.446   5.652  19.237  0.00  0.00    +0.000 OA
ATOM      6  C   UNL     1       4.697   4.341  18.988  0.00  0.00    +0.000 C 
ATOM      7  O   UNL     1       5.609   3.734  19.528  0.00  0.00    +0.000 OA
ENDROOT
BRANCH   1   8
ATOM      8  C   UNL     1       3.133   2.465  18.499  0.00  0.00    +0.000 C 
ATOM      9  O   UNL     1       3.492   1.350  18.144  0.00  0.00    +0.000 OA
BRANCH   8  10
ATOM     10  O   UNL     1       2.151   2.699  19.410  0.00  0.00    +0.000 OA
BRANCH  10  12
ATOM     11  C   UNL     1       1.327   2.854  21.651  0.00  0.00    +0.000 C 
ATOM     12  C   UNL     1       2.503   2.443  20.780  0.00  0.00    +0.000 C 
ENDBRANCH  10  12
ENDBRANCH   8  10
ENDBRANCH   1   8
BRANCH   1  13
ATOM     13  C   UNL     1       4.439   3.520  16.614  0.00  0.00    +0.000 C 
BRANCH  13  14
ATOM     14  C   UNL     1       4.965   4.803  15.958  0.00  0.00    +0.000 C 
BRANCH  14  15
ATOM     15  C   UNL     1       6.224   4.762  15.089  0.00  0.00    +0.000 C 
ATOM     16  C   UNL     1       6.233   3.984  13.794  0.00  0.00    +0.000 C 
ATOM     17  N   UNL     1       7.323   5.399  15.396  0.00  0.00    +0.000 NA
BRANCH  17  18
ATOM     18  N   UNL     1       7.347   6.129  16.561  0.00  0.00    +0.000 N 
ATOM     19  C   UNL     1       7.725   5.614  17.774  0.00  0.00    +0.000 C 
ATOM     20  N   UNL     1       8.104   4.313  17.750  0.00  0.00    +0.000 N 
ATOM     21  O   UNL     1       7.721   6.272  18.802  0.00  0.00    +0.000 OA
ATOM     22  H   UNL     1       7.037   7.091  16.590  0.00  0.00    +0.000 HD
ATOM     23  H   UNL     1       7.772   3.787  16.952  0.00  0.00    +0.000 HD
ATOM     24  H   UNL     1       8.196   3.851  18.644  0.00  0.00    +0.000 HD
ENDBRANCH  17  18
ENDBRANCH  14  15
ENDBRANCH  13  14
ENDBRANCH   1  13
TORSDOF 7
ENDMDL
MODEL 3
REMARK VINA RESULT:      -7.4      1.274      3.127
REMARK  Name = 
REMARK  10 active torsions:
REMARK  status: ('A' for Active; 'I' for Inactive)
REMARK    1  A    between atoms: C_1  and  C_2
REMARK    2  A    between atoms: C_2  and  O_3
REMARK    3  A    between atoms: O_3  and  C_4
REMARK    4  A    between atoms: C_4  and  C_6
REMARK    5  A    between atoms: C_6  and  C_7
REMARK    6  A    between atoms: C_7  and  C_8
REMARK    7  A    between atoms: C_8  and  C_9
REMARK    8  A    between atoms: C_9  and  C_10
REMARK    9  A    between atoms: N_11  and  N_12
REMARK   10  A    between atoms: C_17  and  C_18
REMARK                            x       y       z     vdW  Elec       q    Type
REMARK                         _______ _______ _______ _____ _____    ______ ____
ROOT
ATOM      1  C   UNL     1       3.234   4.683  17.950  0.00  0.00    +0.000 C 
ATOM      2  C   UNL     1       3.821   3.895  19.129  0.00  0.00    +0.000 C 
ATOM      3  C   UNL     1       3.002   2.623  19.249  0.00  0.00    +0.000 C 
ATOM      4  C   UNL     1       3.602   1.364  18.634  0.00  0.00    +0.000 C 
ATOM      5  O   UNL     1       1.768   2.922  18.605  0.00  0.00    +0.000 OA
ATOM      6  C   UNL     1       1.851   4.055  17.862  0.00  0.00    +0.000 C 
ATOM      7  O   UNL     1       0.911   4.479  17.207  0.00  0.00    +0.000 OA
ENDROOT
BRANCH   1   8
ATOM      8  C   UNL     1       3.101   6.169  18.278  0.00  0.00    +0.000 C 
ATOM      9  O   UNL     1       3.434   7.074  17.523  0.00  0.00    +0.000 OA
BRANCH   8  10
ATOM     10  O   UNL     1       2.574   6.359  19.517  0.00  0.00    +0.000 OA
BRANCH  10  12
ATOM     11  C   UNL     1       1.242   7.633  21.041  0.00  0.00    +0.000 C 
ATOM     12  C   UNL     1       2.108   7.691  19.794  0.00  0.00    +0.000 C 
ENDBRANCH  10  12
ENDBRANCH   8  10
ENDBRANCH   1   8
BRANCH   1  13
ATOM     13  C   UNL     1       4.002   4.496  16.616  0.00  0.00    +0.000 C 
BRANCH  13  14
ATOM     14  C   UNL     1       5.333   3.750  16.778  0.00  0.00    +0.000 C 
BRANCH  14  15
ATOM     15  C   UNL     1       6.591   4.259  16.072  0.00  0.00    +0.000 C 
ATOM     16  C   UNL     1       6.606   4.433  14.571  0.00  0.00    +0.000 C 
ATOM     17  N   UNL     1       7.684   4.586  16.709  0.00  0.00    +0.000 NA
BRANCH  17  18
ATOM     18  N   UNL     1       7.702   4.454  18.078  0.00  0.00    +0.000 N 
ATOM     19  C   UNL     1       7.716   5.515  18.944  0.00  0.00    +0.000 C 
ATOM     20  N   UNL     1       7.689   6.736  18.355  0.00  0.00    +0.000 N 
ATOM     21  O   UNL     1       7.752   5.378  20.157  0.00  0.00    +0.000 OA
ATOM     22  H   UNL     1       7.752   3.547  18.522  0.00  0.00    +0.000 HD
ATOM     23  H   UNL     1       7.983   6.747  17.387  0.00  0.00    +0.000 HD
ATOM     24  H   UNL     1       7.898   7.529  18.945  0.00  0.00    +0.000 HD
ENDBRANCH  17  18
ENDBRANCH  14  15
ENDBRANCH  13  14
ENDBRANCH   1  13
TORSDOF 7
ENDMDL
MODEL 4
REMARK VINA RESULT:      -7.3      3.322      5.588
REMARK  Name = 
REMARK  10 active torsions:
REMARK  status: ('A' for Active; 'I' for Inactive)
REMARK    1  A    between atoms: C_1  and  C_2
REMARK    2  A    between atoms: C_2  and  O_3
REMARK    3  A    between atoms: O_3  and  C_4
REMARK    4  A    between atoms: C_4  and  C_6
REMARK    5  A    between atoms: C_6  and  C_7
REMARK    6  A    between atoms: C_7  and  C_8
REMARK    7  A    between atoms: C_8  and  C_9
REMARK    8  A    between atoms: C_9  and  C_10
REMARK    9  A    between atoms: N_11  and  N_12
REMARK   10  A    between atoms: C_17  and  C_18
REMARK                            x       y       z     vdW  Elec       q    Type
REMARK                         _______ _______ _______ _____ _____    ______ ____
ROOT
ATOM      1  C   UNL     1       6.315   4.770  16.035  0.00  0.00    +0.000 C 
ATOM      2  C   UNL     1       7.433   4.685  17.083  0.00  0.00    +0.000 C 
ATOM      3  C   UNL     1       7.174   5.798  18.082  0.00  0.00    +0.000 C 
ATOM      4  C   UNL     1       6.480   5.404  19.380  0.00  0.00    +0.000 C 
ATOM      5  O   UNL     1       6.366   6.737  17.380  0.00  0.00    +0.000 OA
ATOM      6  C   UNL     1       5.857   6.206  16.239  0.00  0.00    +0.000 C 
ATOM      7  O   UNL     1       5.116   6.834  15.498  0.00  0.00    +0.000 OA
ENDROOT
BRANCH   1   8
ATOM      8  C   UNL     1       6.860   4.602  14.618  0.00  0.00    +0.000 C 
ATOM      9  O   UNL     1       7.718   5.321  14.120  0.00  0.00    +0.000 OA
BRANCH   8  10
ATOM     10  O   UNL     1       6.266   3.561  13.976  0.00  0.00    +0.000 OA
BRANCH  10  12
ATOM     11  C   UNL     1       5.027   3.400  11.937  0.00  0.00    +0.000 C 
ATOM     12  C   UNL     1       6.410   3.551  12.546  0.00  0.00    +0.000 C 
ENDBRANCH  10  12
ENDBRANCH   8  10
ENDBRANCH   1   8
BRANCH   1  13
ATOM     13  C   UNL     1       5.141   3.785  16.277  0.00  0.00    +0.000 C 
BRANCH  13  14
ATOM     14  C   UNL     1       4.014   4.380  17.132  0.00  0.00    +0.000 C 
BRANCH  14  15
ATOM     15  C   UNL     1       3.109   3.462  17.956  0.00  0.00    +0.000 C 
ATOM     16  C   UNL     1       3.261   1.961  17.870  0.00  0.00    +0.000 C 
ATOM     17  N   UNL     1       2.195   3.911  18.776  0.00  0.00    +0.000 NA
BRANCH  17  18
ATOM     18  N   UNL     1       2.037   5.272  18.890  0.00  0.00    +0.000 N 
ATOM     19  C   UNL     1       2.161   5.956  20.071  0.00  0.00    +0.000 C 
ATOM     20  N   UNL     1       2.478   5.191  21.144  0.00  0.00    +0.000 N 
ATOM     21  O   UNL     1       1.997   7.163  20.156  0.00  0.00    +0.000 OA
ATOM     22  H   UNL     1       1.771   5.843  18.098  0.00  0.00    +0.000 HD
ATOM     23  H   UNL     1       2.275   4.206  21.039  0.00  0.00    +0.000 HD
ATOM     24  H   UNL     1       2.382   5.623  22.052  0.00  0.00    +0.000 HD
ENDBRANCH  17  18
ENDBRANCH  14  15
ENDBRANCH  13  14
ENDBRANCH   1  13
TORSDOF 7
ENDMDL
MODEL 5
REMARK VINA RESULT:      -7.3      2.094      2.816
REMARK  Name = 
REMARK  10 active torsions:
REMARK  status: ('A' for Active; 'I' for Inactive)
REMARK    1  A    between atoms: C_1  and  C_2
REMARK    2  A    between atoms: C_2  and  O_3
REMARK    3  A    between atoms: O_3  and  C_4
REMARK    4  A    between atoms: C_4  and  C_6
REMARK    5  A    between atoms: C_6  and  C_7
REMARK    6  A    between atoms: C_7  and  C_8
REMARK    7  A    between atoms: C_8  and  C_9
REMARK    8  A    between atoms: C_9  and  C_10
REMARK    9  A    between atoms: N_11  and  N_12
REMARK   10  A    between atoms: C_17  and  C_18
REMARK                            x       y       z     vdW  Elec       q    Type
REMARK                         _______ _______ _______ _____ _____    ______ ____
ROOT
ATOM      1  C   UNL     1       3.625   4.114  17.674  0.00  0.00    +0.000 C 
ATOM      2  C   UNL     1       2.560   5.219  17.674  0.00  0.00    +0.000 C 
ATOM      3  C   UNL     1       3.090   6.329  18.563  0.00  0.00    +0.000 C 
ATOM      4  C   UNL     1       3.741   7.515  17.861  0.00  0.00    +0.000 C 
ATOM      5  O   UNL     1       4.047   5.696  19.406  0.00  0.00    +0.000 OA
ATOM      6  C   UNL     1       4.383   4.464  18.946  0.00  0.00    +0.000 C 
ATOM      7  O   UNL     1       5.207   3.758  19.507  0.00  0.00    +0.000 OA
ENDROOT
BRANCH   1   8
ATOM      8  C   UNL     1       2.996   2.729  17.818  0.00  0.00    +0.000 C 
ATOM      9  O   UNL     1       3.633   1.684  17.864  0.00  0.00    +0.000 OA
BRANCH   8  10
ATOM     10  O   UNL     1       1.640   2.802  17.879  0.00  0.00    +0.000 OA
BRANCH  10  12
ATOM     11  C   UNL     1       1.041   3.165  20.166  0.00  0.00    +0.000 C 
ATOM     12  C   UNL     1       1.036   2.168  19.019  0.00  0.00    +0.000 C 
ENDBRANCH  10  12
ENDBRANCH   8  10
ENDBRANCH   1   8
BRANCH   1  13
ATOM     13  C   UNL     1       4.574   4.146  16.449  0.00  0.00    +0.000 C 
BRANCH  13  14
ATOM     14  C   UNL     1       6.060   4.177  16.830  0.00  0.00    +0.000 C 
BRANCH  14  15
ATOM     15  C   UNL     1       6.888   5.441  16.592  0.00  0.00    +0.000 C 
ATOM     16  C   UNL     1       7.289   6.322  17.752  0.00  0.00    +0.000 C 
ATOM     17  N   UNL     1       7.305   5.808  15.408  0.00  0.00    +0.000 NA
BRANCH  17  18
ATOM     18  N   UNL     1       6.971   5.023  14.330  0.00  0.00    +0.000 N 
ATOM     19  C   UNL     1       7.631   5.058  13.130  0.00  0.00    +0.000 C 
ATOM     20  N   UNL     1       8.675   5.921  13.076  0.00  0.00    +0.000 N 
ATOM     21  O   UNL     1       7.307   4.367  12.176  0.00  0.00    +0.000 OA
ATOM     22  H   UNL     1       6.175   4.400  14.355  0.00  0.00    +0.000 HD
ATOM     23  H   UNL     1       8.657   6.654  13.772  0.00  0.00    +0.000 HD
ATOM     24  H   UNL     1       9.054   6.118  12.160  0.00  0.00    +0.000 HD
ENDBRANCH  17  18
ENDBRANCH  14  15
ENDBRANCH  13  14
ENDBRANCH   1  13
TORSDOF 7
ENDMDL
MODEL 6
REMARK VINA RESULT:      -7.3      1.287      3.422
REMARK  Name = 
REMARK  10 active torsions:
REMARK  status: ('A' for Active; 'I' for Inactive)
REMARK    1  A    between atoms: C_1  and  C_2
REMARK    2  A    between atoms: C_2  and  O_3
REMARK    3  A    between atoms: O_3  and  C_4
REMARK    4  A    between atoms: C_4  and  C_6
REMARK    5  A    between atoms: C_6  and  C_7
REMARK    6  A    between atoms: C_7  and  C_8
REMARK    7  A    between atoms: C_8  and  C_9
REMARK    8  A    between atoms: C_9  and  C_10
REMARK    9  A    between atoms: N_11  and  N_12
REMARK   10  A    between atoms: C_17  and  C_18
REMARK                            x       y       z     vdW  Elec       q    Type
REMARK                         _______ _______ _______ _____ _____    ______ ____
ROOT
ATOM      1  C   UNL     1       3.108   4.561  18.167  0.00  0.00    +0.000 C 
ATOM      2  C   UNL     1       3.684   3.646  19.255  0.00  0.00    +0.000 C 
ATOM      3  C   UNL     1       3.004   2.300  19.093  0.00  0.00    +0.000 C 
ATOM      4  C   UNL     1       3.783   1.225  18.344  0.00  0.00    +0.000 C 
ATOM      5  O   UNL     1       1.798   2.583  18.392  0.00  0.00    +0.000 OA
ATOM      6  C   UNL     1       1.813   3.828  17.850  0.00  0.00    +0.000 C 
ATOM      7  O   UNL     1       0.885   4.265  17.186  0.00  0.00    +0.000 OA
ENDROOT
BRANCH   1   8
ATOM      8  C   UNL     1       2.788   5.951  18.714  0.00  0.00    +0.000 C 
ATOM      9  O   UNL     1       2.824   6.250  19.901  0.00  0.00    +0.000 OA
BRANCH   8  10
ATOM     10  O   UNL     1       2.449   6.812  17.717  0.00  0.00    +0.000 OA
BRANCH  10  12
ATOM     11  C   UNL     1       1.647   9.062  17.838  0.00  0.00    +0.000 C 
ATOM     12  C   UNL     1       2.877   8.172  17.900  0.00  0.00    +0.000 C 
ENDBRANCH  10  12
ENDBRANCH   8  10
ENDBRANCH   1   8
BRANCH   1  13
ATOM     13  C   UNL     1       3.992   4.676  16.898  0.00  0.00    +0.000 C 
BRANCH  13  14
ATOM     14  C   UNL     1       5.296   3.873  16.990  0.00  0.00    +0.000 C 
BRANCH  14  15
ATOM     15  C   UNL     1       6.571   4.400  16.329  0.00  0.00    +0.000 C 
ATOM     16  C   UNL     1       6.619   4.632  14.837  0.00  0.00    +0.000 C 
ATOM     17  N   UNL     1       7.654   4.695  17.001  0.00  0.00    +0.000 NA
BRANCH  17  18
ATOM     18  N   UNL     1       7.643   4.509  18.363  0.00  0.00    +0.000 N 
ATOM     19  C   UNL     1       7.852   5.516  19.269  0.00  0.00    +0.000 C 
ATOM     20  N   UNL     1       8.054   6.741  18.727  0.00  0.00    +0.000 N 
ATOM     21  O   UNL     1       7.859   5.328  20.476  0.00  0.00    +0.000 OA
ATOM     22  H   UNL     1       7.522   3.592  18.772  0.00  0.00    +0.000 HD
ATOM     23  H   UNL     1       8.347   6.735  17.759  0.00  0.00    +0.000 HD
ATOM     24  H   UNL     1       8.405   7.459  19.346  0.00  0.00    +0.000 HD
ENDBRANCH  17  18
ENDBRANCH  14  15
ENDBRANCH  13  14
ENDBRANCH   1  13
TORSDOF 7
ENDMDL
MODEL 7
REMARK VINA RESULT:      -7.1      1.835      2.917
REMARK  Name = 
REMARK  10 active torsions:
REMARK  status: ('A' for Active; 'I' for Inactive)
REMARK    1  A    between atoms: C_1  and  C_2
REMARK    2  A    between atoms: C_2  and  O_3
REMARK    3  A    between atoms: O_3  and  C_4
REMARK    4  A    between atoms: C_4  and  C_6
REMARK    5  A    between atoms: C_6  and  C_7
REMARK    6  A    between atoms: C_7  and  C_8
REMARK    7  A    between atoms: C_8  and  C_9
REMARK    8  A    between atoms: C_9  and  C_10
REMARK    9  A    between atoms: N_11  and  N_12
REMARK   10  A    between atoms: C_17  and  C_18
REMARK                            x       y       z     vdW  Elec       q    Type
REMARK                         _______ _______ _______ _____ _____    ______ ____
ROOT
ATOM      1  C   UNL     1       4.085   4.538  19.028  0.00  0.00    +0.000 C 
ATOM      2  C   UNL     1       3.554   5.000  17.664  0.00  0.00    +0.000 C 
ATOM      3  C   UNL     1       2.630   6.173  17.935  0.00  0.00    +0.000 C 
ATOM      4  C   UNL     1       3.214   7.565  17.727  0.00  0.00    +0.000 C 
ATOM      5  O   UNL     1       2.241   6.023  19.296  0.00  0.00    +0.000 OA
ATOM      6  C   UNL     1       3.028   5.130  19.948  0.00  0.00    +0.000 C 
ATOM      7  O   UNL     1       2.882   4.870  21.133  0.00  0.00    +0.000 OA
ENDROOT
BRANCH   1   8
ATOM      8  C   UNL     1       4.073   3.015  19.149  0.00  0.00    +0.000 C 
ATOM      9  O   UNL     1       4.770   2.380  19.931  0.00  0.00    +0.000 OA
BRANCH   8  10
ATOM     10  O   UNL     1       3.199   2.454  18.272  0.00  0.00    +0.000 OA
BRANCH  10  12
ATOM     11  C   UNL     1       0.854   2.557  18.735  0.00  0.00    +0.000 C 
ATOM     12  C   UNL     1       2.115   1.718  18.864  0.00  0.00    +0.000 C 
ENDBRANCH  10  12
ENDBRANCH   8  10
ENDBRANCH   1   8
BRANCH   1  13
ATOM     13  C   UNL     1       5.489   5.092  19.385  0.00  0.00    +0.000 C 
BRANCH  13  14
ATOM     14  C   UNL     1       6.553   4.784  18.323  0.00  0.00    +0.000 C 
BRANCH  14  15
ATOM     15  C   UNL     1       7.361   5.921  17.693  0.00  0.00    +0.000 C 
ATOM     16  C   UNL     1       7.956   7.006  18.559  0.00  0.00    +0.000 C 
ATOM     17  N   UNL     1       7.597   6.002  16.410  0.00  0.00    +0.000 NA
BRANCH  17  18
ATOM     18  N   UNL     1       7.082   5.024  15.592  0.00  0.00    +0.000 N 
ATOM     19  C   UNL     1       5.933   5.171  14.859  0.00  0.00    +0.000 C 
ATOM     20  N   UNL     1       5.331   6.379  14.978  0.00  0.00    +0.000 N 
ATOM     21  O   UNL     1       5.481   4.283  14.154  0.00  0.00    +0.000 OA
ATOM     22  H   UNL     1       7.512   4.110  15.523  0.00  0.00    +0.000 HD
ATOM     23  H   UNL     1       5.588   6.904  15.803  0.00  0.00    +0.000 HD
ATOM     24  H   UNL     1       4.390   6.454  14.616  0.00  0.00    +0.000 HD
ENDBRANCH  17  18
ENDBRANCH  14  15
ENDBRANCH  13  14
ENDBRANCH   1  13
TORSDOF 7
ENDMDL
MODEL 8
REMARK VINA RESULT:      -7.1      3.146      5.572
REMARK  Name = 
REMARK  10 active torsions:
REMARK  status: ('A' for Active; 'I' for Inactive)
REMARK    1  A    between atoms: C_1  and  C_2
REMARK    2  A    between atoms: C_2  and  O_3
REMARK    3  A    between atoms: O_3  and  C_4
REMARK    4  A    between atoms: C_4  and  C_6
REMARK    5  A    between atoms: C_6  and  C_7
REMARK    6  A    between atoms: C_7  and  C_8
REMARK    7  A    between atoms: C_8  and  C_9
REMARK    8  A    between atoms: C_9  and  C_10
REMARK    9  A    between atoms: N_11  and  N_12
REMARK   10  A    between atoms: C_17  and  C_18
REMARK                            x       y       z     vdW  Elec       q    Type
REMARK                         _______ _______ _______ _____ _____    ______ ____
ROOT
ATOM      1  C   UNL     1       5.367   5.118  17.376  0.00  0.00    +0.000 C 
ATOM      2  C   UNL     1       4.635   4.177  16.409  0.00  0.00    +0.000 C 
ATOM      3  C   UNL     1       3.888   3.172  17.267  0.00  0.00    +0.000 C 
ATOM      4  C   UNL     1       2.405   3.436  17.495  0.00  0.00    +0.000 C 
ATOM      5  O   UNL     1       4.567   3.185  18.518  0.00  0.00    +0.000 OA
ATOM      6  C   UNL     1       5.395   4.255  18.629  0.00  0.00    +0.000 C 
ATOM      7  O   UNL     1       6.055   4.471  19.634  0.00  0.00    +0.000 OA
ENDROOT
BRANCH   1   8
ATOM      8  C   UNL     1       6.796   5.396  16.915  0.00  0.00    +0.000 C 
ATOM      9  O   UNL     1       7.622   4.527  16.666  0.00  0.00    +0.000 OA
BRANCH   8  10
ATOM     10  O   UNL     1       7.038   6.731  16.824  0.00  0.00    +0.000 OA
BRANCH  10  12
ATOM     11  C   UNL     1       7.832   8.780  17.768  0.00  0.00    +0.000 C 
ATOM     12  C   UNL     1       7.943   7.265  17.805  0.00  0.00    +0.000 C 
ENDBRANCH  10  12
ENDBRANCH   8  10
ENDBRANCH   1   8
BRANCH   1  13
ATOM     13  C   UNL     1       4.624   6.451  17.650  0.00  0.00    +0.000 C 
BRANCH  13  14
ATOM     14  C   UNL     1       4.001   6.524  19.051  0.00  0.00    +0.000 C 
BRANCH  14  15
ATOM     15  C   UNL     1       2.494   6.731  19.212  0.00  0.00    +0.000 C 
ATOM     16  C   UNL     1       1.746   7.655  18.279  0.00  0.00    +0.000 C 
ATOM     17  N   UNL     1       1.783   6.120  20.123  0.00  0.00    +0.000 NA
BRANCH  17  18
ATOM     18  N   UNL     1       2.428   5.261  20.981  0.00  0.00    +0.000 N 
ATOM     19  C   UNL     1       1.974   4.004  21.283  0.00  0.00    +0.000 C 
ATOM     20  N   UNL     1       0.831   3.642  20.651  0.00  0.00    +0.000 N 
ATOM     21  O   UNL     1       2.550   3.263  22.064  0.00  0.00    +0.000 OA
ATOM     22  H   UNL     1       3.265   5.538  21.478  0.00  0.00    +0.000 HD
ATOM     23  H   UNL     1       0.278   4.411  20.299  0.00  0.00    +0.000 HD
ATOM     24  H   UNL     1       0.366   2.813  20.996  0.00  0.00    +0.000 HD
ENDBRANCH  17  18
ENDBRANCH  14  15
ENDBRANCH  13  14
ENDBRANCH   1  13
TORSDOF 7
ENDMDL
MODEL 9
REMARK VINA RESULT:      -7.0      3.286      5.488
REMARK  Name = 
REMARK  10 active torsions:
REMARK  status: ('A' for Active; 'I' for Inactive)
REMARK    1  A    between atoms: C_1  and  C_2
REMARK    2  A    between atoms: C_2  and  O_3
REMARK    3  A    between atoms: O_3  and  C_4
REMARK    4  A    between atoms: C_4  and  C_6
REMARK    5  A    between atoms: C_6  and  C_7
REMARK    6  A    between atoms: C_7  and  C_8
REMARK    7  A    between atoms: C_8  and  C_9
REMARK    8  A    between atoms: C_9  and  C_10
REMARK    9  A    between atoms: N_11  and  N_12
REMARK   10  A    between atoms: C_17  and  C_18
REMARK                            x       y       z     vdW  Elec       q    Type
REMARK                         _______ _______ _______ _____ _____    ______ ____
ROOT
ATOM      1  C   UNL     1       6.233   4.841  15.964  0.00  0.00    +0.000 C 
ATOM      2  C   UNL     1       7.340   4.667  17.013  0.00  0.00    +0.000 C 
ATOM      3  C   UNL     1       7.130   5.756  18.048  0.00  0.00    +0.000 C 
ATOM      4  C   UNL     1       6.411   5.352  19.330  0.00  0.00    +0.000 C 
ATOM      5  O   UNL     1       6.371   6.756  17.377  0.00  0.00    +0.000 OA
ATOM      6  C   UNL     1       5.843   6.291  16.216  0.00  0.00    +0.000 C 
ATOM      7  O   UNL     1       5.137   6.979  15.495  0.00  0.00    +0.000 OA
ENDROOT
BRANCH   1   8
ATOM      8  C   UNL     1       6.777   4.697  14.544  0.00  0.00    +0.000 C 
ATOM      9  O   UNL     1       7.644   5.415  14.062  0.00  0.00    +0.000 OA
BRANCH   8  10
ATOM     10  O   UNL     1       6.171   3.677  13.881  0.00  0.00    +0.000 OA
BRANCH  10  12
ATOM     11  C   UNL     1       5.059   3.132  11.834  0.00  0.00    +0.000 C 
ATOM     12  C   UNL     1       6.333   3.683  12.453  0.00  0.00    +0.000 C 
ENDBRANCH  10  12
ENDBRANCH   8  10
ENDBRANCH   1   8
BRANCH   1  13
ATOM     13  C   UNL     1       5.012   3.907  16.168  0.00  0.00    +0.000 C 
BRANCH  13  14
ATOM     14  C   UNL     1       4.374   4.032  17.558  0.00  0.00    +0.000 C 
BRANCH  14  15
ATOM     15  C   UNL     1       3.051   3.327  17.862  0.00  0.00    +0.000 C 
ATOM     16  C   UNL     1       1.770   3.790  17.209  0.00  0.00    +0.000 C 
ATOM     17  N   UNL     1       2.959   2.297  18.662  0.00  0.00    +0.000 NA
BRANCH  17  18
ATOM     18  N   UNL     1       4.108   1.838  19.264  0.00  0.00    +0.000 N 
ATOM     19  C   UNL     1       4.359   1.950  20.607  0.00  0.00    +0.000 C 
ATOM     20  N   UNL     1       3.371   2.536  21.327  0.00  0.00    +0.000 N 
ATOM     21  O   UNL     1       5.394   1.554  21.121  0.00  0.00    +0.000 OA
ATOM     22  H   UNL     1       4.860   1.427  18.727  0.00  0.00    +0.000 HD
ATOM     23  H   UNL     1       2.730   3.102  20.788  0.00  0.00    +0.000 HD
ATOM     24  H   UNL     1       3.602   2.812  22.271  0.00  0.00    +0.000 HD
ENDBRANCH  17  18
ENDBRANCH  14  15
ENDBRANCH  13  14
ENDBRANCH   1  13
TORSDOF 7
ENDMDL
