MODEL 1
REMARK VINA RESULT:      -9.5      0.000      0.000
REMARK  Name = 
REMARK  4 active torsions:
REMARK  status: ('A' for Active; 'I' for Inactive)
REMARK    1  A    between atoms: C_1  and  O_2
REMARK    2  A    between atoms: O_2  and  C_3
REMARK    3  A    between atoms: C_9  and  C_10
REMARK    4  A    between atoms: C_17  and  C_19
REMARK                            x       y       z     vdW  Elec       q    Type
REMARK                         _______ _______ _______ _____ _____    ______ ____
ROOT
ATOM      1  C   UNL     1       2.471   7.101  18.679  0.00  0.00    +0.000 A 
ATOM      2  N   UNL     1       2.389   8.167  17.844  0.00  0.00    +0.000 NA
ATOM      3  C   UNL     1       1.726   9.214  18.364  0.00  0.00    +0.000 A 
ATOM      4  N   UNL     1       1.494  10.399  17.738  0.00  0.00    +0.000 N 
ATOM      5  N   UNL     1       0.796  11.265  18.477  0.00  0.00    +0.000 NA
ATOM      6  C   UNL     1       0.562  10.633  19.629  0.00  0.00    +0.000 A 
ATOM      7  N   UNL     1      -0.134  11.192  20.689  0.00  0.00    +0.000 N 
ATOM      8  C   UNL     1      -0.663  12.472  20.663  0.00  0.00    +0.000 C 
ATOM      9  O   UNL     1      -0.658  13.252  19.718  0.00  0.00    +0.000 OA
ATOM     10  C   UNL     1       1.141   9.321  19.617  0.00  0.00    +0.000 A 
ATOM     11  C   UNL     1       1.254   8.213  20.468  0.00  0.00    +0.000 A 
ATOM     12  C   UNL     1       1.933   7.094  19.970  0.00  0.00    +0.000 A 
ATOM     13  F   UNL     1       2.051   6.022  20.769  0.00  0.00    +0.000 F 
ATOM     14  H   UNL     1       1.787  10.670  16.809  0.00  0.00    +0.000 HD
ATOM     15  H   UNL     1      -0.181  10.641  21.532  0.00  0.00    +0.000 HD
ENDROOT
BRANCH   1  22
ATOM     16  C   UNL     1       6.671   6.412  16.933  0.00  0.00    +0.000 A 
ATOM     17  C   UNL     1       6.835   5.060  16.420  0.00  0.00    +0.000 A 
ATOM     18  C   UNL     1       5.828   4.181  16.551  0.00  0.00    +0.000 A 
ATOM     19  N   UNL     1       4.630   4.570  17.153  0.00  0.00    +0.000 N 
ATOM     20  N   UNL     1       3.541   3.793  17.376  0.00  0.00    +0.000 NA
ATOM     21  C   UNL     1       2.658   4.606  17.956  0.00  0.00    +0.000 A 
ATOM     22  C   UNL     1       3.133   5.924  18.125  0.00  0.00    +0.000 A 
ATOM     23  C   UNL     1       4.419   5.871  17.616  0.00  0.00    +0.000 A 
ATOM     24  C   UNL     1       5.501   6.797  17.489  0.00  0.00    +0.000 A 
BRANCH  16  26
ATOM     25  C   UNL     1       7.930   8.270  17.710  0.00  0.00    +0.000 C 
ATOM     26  O   UNL     1       7.807   7.175  16.805  0.00  0.00    +0.000 OA
ENDBRANCH  16  26
ENDBRANCH   1  22
BRANCH   8  27
ATOM     27  C   UNL     1      -1.269  12.969  21.936  0.00  0.00    +0.000 A 
ATOM     28  C   UNL     1      -2.458  12.353  22.364  0.00  0.00    +0.000 A 
ATOM     29  C   UNL     1      -3.094  12.771  23.532  0.00  0.00    +0.000 A 
ATOM     30  C   UNL     1      -2.536  13.800  24.278  0.00  0.00    +0.000 A 
ATOM     31  F   UNL     1      -3.149  14.212  25.395  0.00  0.00    +0.000 F 
ATOM     32  C   UNL     1      -1.346  14.406  23.884  0.00  0.00    +0.000 A 
ATOM     33  C   UNL     1      -0.702  13.988  22.713  0.00  0.00    +0.000 A 
ENDBRANCH   8  27
TORSDOF 3
ENDMDL
MODEL 2
REMARK VINA RESULT:      -9.2      3.159     10.503
REMARK  Name = 
REMARK  4 active torsions:
REMARK  status: ('A' for Active; 'I' for Inactive)
REMARK    1  A    between atoms: C_1  and  O_2
REMARK    2  A    between atoms: O_2  and  C_3
REMARK    3  A    between atoms: C_9  and  C_10
REMARK    4  A    between atoms: C_17  and  C_19
REMARK                            x       y       z     vdW  Elec       q    Type
REMARK                         _______ _______ _______ _____ _____    ______ ____
ROOT
ATOM      1  C   UNL     1       1.443   9.054  19.728  0.00  0.00    +0.000 A 
ATOM      2  N   UNL     1       1.716   7.871  20.335  0.00  0.00    +0.000 NA
ATOM      3  C   UNL     1       2.433   7.024  19.578  0.00  0.00    +0.000 A 
ATOM      4  N   UNL     1       2.833   5.776  19.941  0.00  0.00    +0.000 N 
ATOM      5  N   UNL     1       3.523   5.140  18.991  0.00  0.00    +0.000 NA
ATOM      6  C   UNL     1       3.583   5.995  17.968  0.00  0.00    +0.000 A 
ATOM      7  N   UNL     1       4.227   5.725  16.772  0.00  0.00    +0.000 N 
ATOM      8  C   UNL     1       4.879   4.531  16.509  0.00  0.00    +0.000 C 
ATOM      9  O   UNL     1       4.930   3.545  17.235  0.00  0.00    +0.000 OA
ATOM     10  C   UNL     1       2.910   7.220  18.290  0.00  0.00    +0.000 A 
ATOM     11  C   UNL     1       2.631   8.456  17.691  0.00  0.00    +0.000 A 
ATOM     12  C   UNL     1       1.881   9.373  18.439  0.00  0.00    +0.000 A 
ATOM     13  F   UNL     1       1.602  10.561  17.881  0.00  0.00    +0.000 F 
ATOM     14  H   UNL     1       2.664   5.309  20.822  0.00  0.00    +0.000 HD
ATOM     15  H   UNL     1       4.265   6.481  16.105  0.00  0.00    +0.000 HD
ENDROOT
BRANCH   1  22
ATOM     16  C   UNL     1      -2.365  11.427  18.712  0.00  0.00    +0.000 A 
ATOM     17  C   UNL     1      -2.777  12.293  19.806  0.00  0.00    +0.000 A 
ATOM     18  C   UNL     1      -2.085  12.272  20.957  0.00  0.00    +0.000 A 
ATOM     19  N   UNL     1      -0.967  11.446  21.091  0.00  0.00    +0.000 N 
ATOM     20  N   UNL     1      -0.189  11.301  22.192  0.00  0.00    +0.000 NA
ATOM     21  C   UNL     1       0.747  10.423  21.830  0.00  0.00    +0.000 A 
ATOM     22  C   UNL     1       0.615   9.975  20.499  0.00  0.00    +0.000 A 
ATOM     23  C   UNL     1      -0.514  10.635  20.047  0.00  0.00    +0.000 A 
ATOM     24  C   UNL     1      -1.267  10.648  18.831  0.00  0.00    +0.000 A 
BRANCH  16  26
ATOM     25  C   UNL     1      -4.605  11.486  17.926  0.00  0.00    +0.000 C 
ATOM     26  O   UNL     1      -3.210  11.490  17.630  0.00  0.00    +0.000 OA
ENDBRANCH  16  26
ENDBRANCH   1  22
BRANCH   8  27
ATOM     27  C   UNL     1       5.634   4.453  15.222  0.00  0.00    +0.000 A 
ATOM     28  C   UNL     1       5.031   3.749  14.166  0.00  0.00    +0.000 A 
ATOM     29  C   UNL     1       5.679   3.616  12.938  0.00  0.00    +0.000 A 
ATOM     30  C   UNL     1       6.928   4.195  12.764  0.00  0.00    +0.000 A 
ATOM     31  F   UNL     1       7.558   4.061  11.591  0.00  0.00    +0.000 F 
ATOM     32  C   UNL     1       7.532   4.917  13.790  0.00  0.00    +0.000 A 
ATOM     33  C   UNL     1       6.884   5.056  15.023  0.00  0.00    +0.000 A 
ENDBRANCH   8  27
TORSDOF 3
ENDMDL
MODEL 3
REMARK VINA RESULT:      -9.1      3.111     10.412
REMARK  Name = 
REMARK  4 active torsions:
REMARK  status: ('A' for Active; 'I' for Inactive)
REMARK    1  A    between atoms: C_1  and  O_2
REMARK    2  A    between atoms: O_2  and  C_3
REMARK    3  A    between atoms: C_9  and  C_10
REMARK    4  A    between atoms: C_17  and  C_19
REMARK                            x       y       z     vdW  Elec       q    Type
REMARK                         _______ _______ _______ _____ _____    ______ ____
ROOT
ATOM      1  C   UNL     1       1.193   9.235  19.801  0.00  0.00    +0.000 A 
ATOM      2  N   UNL     1       1.497   8.090  20.462  0.00  0.00    +0.000 NA
ATOM      3  C   UNL     1       2.238   7.228  19.744  0.00  0.00    +0.000 A 
ATOM      4  N   UNL     1       2.672   6.010  20.165  0.00  0.00    +0.000 N 
ATOM      5  N   UNL     1       3.379   5.350  19.244  0.00  0.00    +0.000 NA
ATOM      6  C   UNL     1       3.415   6.158  18.183  0.00  0.00    +0.000 A 
ATOM      7  N   UNL     1       4.067   5.850  16.999  0.00  0.00    +0.000 N 
ATOM      8  C   UNL     1       4.751   4.664  16.792  0.00  0.00    +0.000 C 
ATOM      9  O   UNL     1       4.829   3.715  17.563  0.00  0.00    +0.000 OA
ATOM     10  C   UNL     1       2.710   7.378  18.448  0.00  0.00    +0.000 A 
ATOM     11  C   UNL     1       2.396   8.577  17.792  0.00  0.00    +0.000 A 
ATOM     12  C   UNL     1       1.622   9.506  18.498  0.00  0.00    +0.000 A 
ATOM     13  F   UNL     1       1.310  10.659  17.886  0.00  0.00    +0.000 F 
ATOM     14  H   UNL     1       2.515   5.580  21.066  0.00  0.00    +0.000 HD
ATOM     15  H   UNL     1       4.084   6.575  16.298  0.00  0.00    +0.000 HD
ENDROOT
BRANCH   1  22
ATOM     16  C   UNL     1      -2.629  11.524  18.650  0.00  0.00    +0.000 A 
ATOM     17  C   UNL     1      -3.071  12.417  19.710  0.00  0.00    +0.000 A 
ATOM     18  C   UNL     1      -2.398  12.442  20.872  0.00  0.00    +0.000 A 
ATOM     19  N   UNL     1      -1.272  11.635  21.049  0.00  0.00    +0.000 N 
ATOM     20  N   UNL     1      -0.510  11.534  22.167  0.00  0.00    +0.000 NA
ATOM     21  C   UNL     1       0.443  10.659  21.848  0.00  0.00    +0.000 A 
ATOM     22  C   UNL     1       0.339  10.168  20.530  0.00  0.00    +0.000 A 
ATOM     23  C   UNL     1      -0.791  10.799  20.039  0.00  0.00    +0.000 A 
ATOM     24  C   UNL     1      -1.522  10.764  18.811  0.00  0.00    +0.000 A 
BRANCH  16  26
ATOM     25  C   UNL     1      -2.889  11.069  16.334  0.00  0.00    +0.000 C 
ATOM     26  O   UNL     1      -3.456  11.543  17.553  0.00  0.00    +0.000 OA
ENDBRANCH  16  26
ENDBRANCH   1  22
BRANCH   8  27
ATOM     27  C   UNL     1       5.508   4.547  15.509  0.00  0.00    +0.000 A 
ATOM     28  C   UNL     1       6.732   5.234  15.421  0.00  0.00    +0.000 A 
ATOM     29  C   UNL     1       7.490   5.189  14.251  0.00  0.00    +0.000 A 
ATOM     30  C   UNL     1       7.028   4.450  13.171  0.00  0.00    +0.000 A 
ATOM     31  F   UNL     1       7.747   4.413  12.042  0.00  0.00    +0.000 F 
ATOM     32  C   UNL     1       5.831   3.743  13.246  0.00  0.00    +0.000 A 
ATOM     33  C   UNL     1       5.067   3.783  14.419  0.00  0.00    +0.000 A 
ENDBRANCH   8  27
TORSDOF 3
ENDMDL
MODEL 4
REMARK VINA RESULT:      -8.8      2.855     10.412
REMARK  Name = 
REMARK  4 active torsions:
REMARK  status: ('A' for Active; 'I' for Inactive)
REMARK    1  A    between atoms: C_1  and  O_2
REMARK    2  A    between atoms: O_2  and  C_3
REMARK    3  A    between atoms: C_9  and  C_10
REMARK    4  A    between atoms: C_17  and  C_19
REMARK                            x       y       z     vdW  Elec       q    Type
REMARK                         _______ _______ _______ _____ _____    ______ ____
ROOT
ATOM      1  C   UNL     1      -0.675  11.948  21.654  0.00  0.00    +0.000 A 
ATOM      2  N   UNL     1      -0.193  12.238  20.418  0.00  0.00    +0.000 NA
ATOM      3  C   UNL     1       0.457  11.217  19.835  0.00  0.00    +0.000 A 
ATOM      4  N   UNL     1       1.039  11.244  18.606  0.00  0.00    +0.000 N 
ATOM      5  N   UNL     1       1.632  10.094  18.273  0.00  0.00    +0.000 NA
ATOM      6  C   UNL     1       1.432   9.282  19.312  0.00  0.00    +0.000 A 
ATOM      7  N   UNL     1       1.885   7.974  19.369  0.00  0.00    +0.000 N 
ATOM      8  C   UNL     1       2.598   7.369  18.346  0.00  0.00    +0.000 C 
ATOM      9  O   UNL     1       2.981   7.892  17.306  0.00  0.00    +0.000 OA
ATOM     10  C   UNL     1       0.678   9.943  20.337  0.00  0.00    +0.000 A 
ATOM     11  C   UNL     1       0.157   9.662  21.608  0.00  0.00    +0.000 A 
ATOM     12  C   UNL     1      -0.526  10.696  22.260  0.00  0.00    +0.000 A 
ATOM     13  F   UNL     1      -1.031  10.447  23.478  0.00  0.00    +0.000 F 
ATOM     14  H   UNL     1       1.064  12.017  17.955  0.00  0.00    +0.000 HD
ATOM     15  H   UNL     1       1.606   7.440  20.177  0.00  0.00    +0.000 HD
ENDROOT
BRANCH   1  22
ATOM     16  C   UNL     1      -5.099  12.961  22.407  0.00  0.00    +0.000 A 
ATOM     17  C   UNL     1      -5.259  14.241  23.080  0.00  0.00    +0.000 A 
ATOM     18  C   UNL     1      -4.167  14.932  23.447  0.00  0.00    +0.000 A 
ATOM     19  N   UNL     1      -2.893  14.436  23.163  0.00  0.00    +0.000 N 
ATOM     20  N   UNL     1      -1.706  15.004  23.491  0.00  0.00    +0.000 NA
ATOM     21  C   UNL     1      -0.787  14.173  23.000  0.00  0.00    +0.000 A 
ATOM     22  C   UNL     1      -1.334  13.052  22.342  0.00  0.00    +0.000 A 
ATOM     23  C   UNL     1      -2.700  13.233  22.478  0.00  0.00    +0.000 A 
ATOM     24  C   UNL     1      -3.866  12.494  22.106  0.00  0.00    +0.000 A 
BRANCH  16  26
ATOM     25  C   UNL     1      -6.527  11.925  20.817  0.00  0.00    +0.000 C 
ATOM     26  O   UNL     1      -6.295  12.329  22.165  0.00  0.00    +0.000 OA
ENDBRANCH  16  26
ENDBRANCH   1  22
BRANCH   8  27
ATOM     27  C   UNL     1       2.896   5.914  18.511  0.00  0.00    +0.000 A 
ATOM     28  C   UNL     1       2.009   5.005  17.909  0.00  0.00    +0.000 A 
ATOM     29  C   UNL     1       2.207   3.630  18.032  0.00  0.00    +0.000 A 
ATOM     30  C   UNL     1       3.299   3.164  18.750  0.00  0.00    +0.000 A 
ATOM     31  F   UNL     1       3.488   1.845  18.880  0.00  0.00    +0.000 F 
ATOM     32  C   UNL     1       4.203   4.048  19.334  0.00  0.00    +0.000 A 
ATOM     33  C   UNL     1       4.009   5.429  19.212  0.00  0.00    +0.000 A 
ENDBRANCH   8  27
TORSDOF 3
ENDMDL
MODEL 5
REMARK VINA RESULT:      -8.8      2.007      2.492
REMARK  Name = 
REMARK  4 active torsions:
REMARK  status: ('A' for Active; 'I' for Inactive)
REMARK    1  A    between atoms: C_1  and  O_2
REMARK    2  A    between atoms: O_2  and  C_3
REMARK    3  A    between atoms: C_9  and  C_10
REMARK    4  A    between atoms: C_17  and  C_19
REMARK                            x       y       z     vdW  Elec       q    Type
REMARK                         _______ _______ _______ _____ _____    ______ ____
ROOT
ATOM      1  C   UNL     1       2.534   6.863  18.651  0.00  0.00    +0.000 A 
ATOM      2  N   UNL     1       2.204   6.689  19.956  0.00  0.00    +0.000 NA
ATOM      3  C   UNL     1       1.627   7.764  20.519  0.00  0.00    +0.000 A 
ATOM      4  N   UNL     1       1.208   7.858  21.809  0.00  0.00    +0.000 N 
ATOM      5  N   UNL     1       0.682   9.048  22.112  0.00  0.00    +0.000 NA
ATOM      6  C   UNL     1       0.752   9.760  20.987  0.00  0.00    +0.000 A 
ATOM      7  N   UNL     1       0.298  11.064  20.868  0.00  0.00    +0.000 N 
ATOM      8  C   UNL     1      -0.279  11.769  21.912  0.00  0.00    +0.000 C 
ATOM      9  O   UNL     1      -0.412  11.391  23.071  0.00  0.00    +0.000 OA
ATOM     10  C   UNL     1       1.339   8.987  19.931  0.00  0.00    +0.000 A 
ATOM     11  C   UNL     1       1.674   9.137  18.578  0.00  0.00    +0.000 A 
ATOM     12  C   UNL     1       2.282   8.045  17.947  0.00  0.00    +0.000 A 
ATOM     13  F   UNL     1       2.611   8.169  16.652  0.00  0.00    +0.000 F 
ATOM     14  H   UNL     1       1.258   7.146  22.524  0.00  0.00    +0.000 HD
ATOM     15  H   UNL     1       0.340  11.469  19.945  0.00  0.00    +0.000 HD
ENDROOT
BRANCH   1  22
ATOM     16  C   UNL     1       6.750   6.359  16.880  0.00  0.00    +0.000 A 
ATOM     17  C   UNL     1       6.937   5.046  16.281  0.00  0.00    +0.000 A 
ATOM     18  C   UNL     1       5.945   4.143  16.352  0.00  0.00    +0.000 A 
ATOM     19  N   UNL     1       4.739   4.472  16.973  0.00  0.00    +0.000 N 
ATOM     20  N   UNL     1       3.663   3.664  17.141  0.00  0.00    +0.000 NA
ATOM     21  C   UNL     1       2.765   4.424  17.769  0.00  0.00    +0.000 A 
ATOM     22  C   UNL     1       3.216   5.735  18.025  0.00  0.00    +0.000 A 
ATOM     23  C   UNL     1       4.505   5.737  17.518  0.00  0.00    +0.000 A 
ATOM     24  C   UNL     1       5.572   6.687  17.456  0.00  0.00    +0.000 A 
BRANCH  16  26
ATOM     25  C   UNL     1       7.885   8.298  17.647  0.00  0.00    +0.000 C 
ATOM     26  O   UNL     1       7.872   7.147  16.806  0.00  0.00    +0.000 OA
ENDBRANCH  16  26
ENDBRANCH   1  22
BRANCH   8  27
ATOM     27  C   UNL     1      -0.834  13.115  21.581  0.00  0.00    +0.000 A 
ATOM     28  C   UNL     1      -0.476  13.670  20.340  0.00  0.00    +0.000 A 
ATOM     29  C   UNL     1      -0.939  14.931  19.964  0.00  0.00    +0.000 A 
ATOM     30  C   UNL     1      -1.768  15.634  20.826  0.00  0.00    +0.000 A 
ATOM     31  F   UNL     1      -2.206  16.849  20.474  0.00  0.00    +0.000 F 
ATOM     32  C   UNL     1      -2.155  15.092  22.049  0.00  0.00    +0.000 A 
ATOM     33  C   UNL     1      -1.695  13.826  22.430  0.00  0.00    +0.000 A 
ENDBRANCH   8  27
TORSDOF 3
ENDMDL
MODEL 6
REMARK VINA RESULT:      -8.8      2.738     10.586
REMARK  Name = 
REMARK  4 active torsions:
REMARK  status: ('A' for Active; 'I' for Inactive)
REMARK    1  A    between atoms: C_1  and  O_2
REMARK    2  A    between atoms: O_2  and  C_3
REMARK    3  A    between atoms: C_9  and  C_10
REMARK    4  A    between atoms: C_17  and  C_19
REMARK                            x       y       z     vdW  Elec       q    Type
REMARK                         _______ _______ _______ _____ _____    ______ ____
ROOT
ATOM      1  C   UNL     1      -0.759  12.092  21.826  0.00  0.00    +0.000 A 
ATOM      2  N   UNL     1      -0.339  12.478  20.595  0.00  0.00    +0.000 NA
ATOM      3  C   UNL     1       0.308  11.516  19.915  0.00  0.00    +0.000 A 
ATOM      4  N   UNL     1       0.836  11.640  18.668  0.00  0.00    +0.000 N 
ATOM      5  N   UNL     1       1.439  10.531  18.233  0.00  0.00    +0.000 NA
ATOM      6  C   UNL     1       1.303   9.646  19.221  0.00  0.00    +0.000 A 
ATOM      7  N   UNL     1       1.787   8.348  19.168  0.00  0.00    +0.000 N 
ATOM      8  C   UNL     1       2.468   7.833  18.078  0.00  0.00    +0.000 C 
ATOM      9  O   UNL     1       2.794   8.434  17.061  0.00  0.00    +0.000 OA
ATOM     10  C   UNL     1       0.580  10.217  20.319  0.00  0.00    +0.000 A 
ATOM     11  C   UNL     1       0.120   9.837  21.588  0.00  0.00    +0.000 A 
ATOM     12  C   UNL     1      -0.556  10.807  22.338  0.00  0.00    +0.000 A 
ATOM     13  F   UNL     1      -1.003  10.463  23.556  0.00  0.00    +0.000 F 
ATOM     14  H   UNL     1       0.815  12.456  18.072  0.00  0.00    +0.000 HD
ATOM     15  H   UNL     1       1.556   7.754  19.949  0.00  0.00    +0.000 HD
ENDROOT
BRANCH   1  22
ATOM     16  C   UNL     1      -5.170  12.959  22.805  0.00  0.00    +0.000 A 
ATOM     17  C   UNL     1      -5.329  14.183  23.574  0.00  0.00    +0.000 A 
ATOM     18  C   UNL     1      -4.237  14.868  23.953  0.00  0.00    +0.000 A 
ATOM     19  N   UNL     1      -2.966  14.419  23.590  0.00  0.00    +0.000 N 
ATOM     20  N   UNL     1      -1.778  14.987  23.916  0.00  0.00    +0.000 NA
ATOM     21  C   UNL     1      -0.862  14.212  23.334  0.00  0.00    +0.000 A 
ATOM     22  C   UNL     1      -1.413  13.131  22.616  0.00  0.00    +0.000 A 
ATOM     23  C   UNL     1      -2.776  13.274  22.812  0.00  0.00    +0.000 A 
ATOM     24  C   UNL     1      -3.942  12.540  22.428  0.00  0.00    +0.000 A 
BRANCH  16  26
ATOM     25  C   UNL     1      -7.352  12.431  23.580  0.00  0.00    +0.000 C 
ATOM     26  O   UNL     1      -6.363  12.322  22.559  0.00  0.00    +0.000 OA
ENDBRANCH  16  26
ENDBRANCH   1  22
BRANCH   8  27
ATOM     27  C   UNL     1       2.805   6.378  18.130  0.00  0.00    +0.000 A 
ATOM     28  C   UNL     1       4.154   6.025  17.952  0.00  0.00    +0.000 A 
ATOM     29  C   UNL     1       4.548   4.687  17.970  0.00  0.00    +0.000 A 
ATOM     30  C   UNL     1       3.592   3.701  18.174  0.00  0.00    +0.000 A 
ATOM     31  F   UNL     1       3.963   2.415  18.181  0.00  0.00    +0.000 F 
ATOM     32  C   UNL     1       2.255   4.032  18.376  0.00  0.00    +0.000 A 
ATOM     33  C   UNL     1       1.855   5.373  18.362  0.00  0.00    +0.000 A 
ENDBRANCH   8  27
TORSDOF 3
ENDMDL
MODEL 7
REMARK VINA RESULT:      -8.7      0.937      1.061
REMARK  Name = 
REMARK  4 active torsions:
REMARK  status: ('A' for Active; 'I' for Inactive)
REMARK    1  A    between atoms: C_1  and  O_2
REMARK    2  A    between atoms: O_2  and  C_3
REMARK    3  A    between atoms: C_9  and  C_10
REMARK    4  A    between atoms: C_17  and  C_19
REMARK                            x       y       z     vdW  Elec       q    Type
REMARK                         _______ _______ _______ _____ _____    ______ ____
ROOT
ATOM      1  C   UNL     1       2.637   6.888  19.058  0.00  0.00    +0.000 A 
ATOM      2  N   UNL     1       2.576   7.906  18.163  0.00  0.00    +0.000 NA
ATOM      3  C   UNL     1       1.730   8.889  18.515  0.00  0.00    +0.000 A 
ATOM      4  N   UNL     1       1.476  10.015  17.796  0.00  0.00    +0.000 N 
ATOM      5  N   UNL     1       0.579  10.822  18.370  0.00  0.00    +0.000 NA
ATOM      6  C   UNL     1       0.232  10.211  19.504  0.00  0.00    +0.000 A 
ATOM      7  N   UNL     1      -0.681  10.725  20.411  0.00  0.00    +0.000 N 
ATOM      8  C   UNL     1      -1.333  11.935  20.233  0.00  0.00    +0.000 C 
ATOM      9  O   UNL     1      -1.260  12.674  19.259  0.00  0.00    +0.000 OA
ATOM     10  C   UNL     1       0.943   8.975  19.654  0.00  0.00    +0.000 A 
ATOM     11  C   UNL     1       1.037   7.919  20.572  0.00  0.00    +0.000 A 
ATOM     12  C   UNL     1       1.903   6.867  20.248  0.00  0.00    +0.000 A 
ATOM     13  F   UNL     1       2.005   5.847  21.114  0.00  0.00    +0.000 F 
ATOM     14  H   UNL     1       1.883  10.283  16.911  0.00  0.00    +0.000 HD
ATOM     15  H   UNL     1      -0.802  10.204  21.266  0.00  0.00    +0.000 HD
ENDROOT
BRANCH   1  22
ATOM     16  C   UNL     1       6.836   6.692  17.189  0.00  0.00    +0.000 A 
ATOM     17  C   UNL     1       7.249   5.323  16.913  0.00  0.00    +0.000 A 
ATOM     18  C   UNL     1       6.440   4.310  17.265  0.00  0.00    +0.000 A 
ATOM     19  N   UNL     1       5.207   4.571  17.866  0.00  0.00    +0.000 N 
ATOM     20  N   UNL     1       4.301   3.657  18.295  0.00  0.00    +0.000 NA
ATOM     21  C   UNL     1       3.292   4.383  18.778  0.00  0.00    +0.000 A 
ATOM     22  C   UNL     1       3.502   5.775  18.679  0.00  0.00    +0.000 A 
ATOM     23  C   UNL     1       4.757   5.872  18.104  0.00  0.00    +0.000 A 
ATOM     24  C   UNL     1       5.631   6.945  17.744  0.00  0.00    +0.000 A 
BRANCH  16  26
ATOM     25  C   UNL     1       8.060   8.623  17.828  0.00  0.00    +0.000 C 
ATOM     26  O   UNL     1       7.794   7.618  16.853  0.00  0.00    +0.000 OA
ENDBRANCH  16  26
ENDBRANCH   1  22
BRANCH   8  27
ATOM     27  C   UNL     1      -2.184  12.405  21.367  0.00  0.00    +0.000 A 
ATOM     28  C   UNL     1      -3.378  13.072  21.040  0.00  0.00    +0.000 A 
ATOM     29  C   UNL     1      -4.219  13.558  22.041  0.00  0.00    +0.000 A 
ATOM     30  C   UNL     1      -3.870  13.369  23.371  0.00  0.00    +0.000 A 
ATOM     31  F   UNL     1      -4.668  13.842  24.336  0.00  0.00    +0.000 F 
ATOM     32  C   UNL     1      -2.704  12.690  23.716  0.00  0.00    +0.000 A 
ATOM     33  C   UNL     1      -1.858  12.198  22.715  0.00  0.00    +0.000 A 
ENDBRANCH   8  27
TORSDOF 3
ENDMDL
MODEL 8
REMARK VINA RESULT:      -8.6      2.778     10.321
REMARK  Name = 
REMARK  4 active torsions:
REMARK  status: ('A' for Active; 'I' for Inactive)
REMARK    1  A    between atoms: C_1  and  O_2
REMARK    2  A    between atoms: O_2  and  C_3
REMARK    3  A    between atoms: C_9  and  C_10
REMARK    4  A    between atoms: C_17  and  C_19
REMARK                            x       y       z     vdW  Elec       q    Type
REMARK                         _______ _______ _______ _____ _____    ______ ____
ROOT
ATOM      1  C   UNL     1      -0.214  11.778  21.131  0.00  0.00    +0.000 A 
ATOM      2  N   UNL     1       0.363  12.028  19.928  0.00  0.00    +0.000 NA
ATOM      3  C   UNL     1       0.952  10.954  19.375  0.00  0.00    +0.000 A 
ATOM      4  N   UNL     1       1.606  10.932  18.183  0.00  0.00    +0.000 N 
ATOM      5  N   UNL     1       2.113   9.735  17.876  0.00  0.00    +0.000 NA
ATOM      6  C   UNL     1       1.781   8.941  18.895  0.00  0.00    +0.000 A 
ATOM      7  N   UNL     1       2.112   7.597  18.968  0.00  0.00    +0.000 N 
ATOM      8  C   UNL     1       2.826   6.934  17.984  0.00  0.00    +0.000 C 
ATOM      9  O   UNL     1       3.314   7.423  16.971  0.00  0.00    +0.000 OA
ATOM     10  C   UNL     1       1.030   9.664  19.880  0.00  0.00    +0.000 A 
ATOM     11  C   UNL     1       0.412   9.427  21.116  0.00  0.00    +0.000 A 
ATOM     12  C   UNL     1      -0.212  10.517  21.736  0.00  0.00    +0.000 A 
ATOM     13  F   UNL     1      -0.808  10.311  22.920  0.00  0.00    +0.000 F 
ATOM     14  H   UNL     1       1.737  11.701  17.541  0.00  0.00    +0.000 HD
ATOM     15  H   UNL     1       1.739   7.088  19.755  0.00  0.00    +0.000 HD
ENDROOT
BRANCH   1  22
ATOM     16  C   UNL     1      -4.563  12.911  22.112  0.00  0.00    +0.000 A 
ATOM     17  C   UNL     1      -4.662  14.234  22.709  0.00  0.00    +0.000 A 
ATOM     18  C   UNL     1      -3.540  14.929  22.957  0.00  0.00    +0.000 A 
ATOM     19  N   UNL     1      -2.294  14.394  22.621  0.00  0.00    +0.000 N 
ATOM     20  N   UNL     1      -1.081  14.963  22.830  0.00  0.00    +0.000 NA
ATOM     21  C   UNL     1      -0.207  14.087  22.334  0.00  0.00    +0.000 A 
ATOM     22  C   UNL     1      -0.812  12.935  21.789  0.00  0.00    +0.000 A 
ATOM     23  C   UNL     1      -2.163  13.147  22.005  0.00  0.00    +0.000 A 
ATOM     24  C   UNL     1      -3.360  12.405  21.761  0.00  0.00    +0.000 A 
BRANCH  16  26
ATOM     25  C   UNL     1      -6.199  11.980  20.665  0.00  0.00    +0.000 C 
ATOM     26  O   UNL     1      -5.781  12.284  21.993  0.00  0.00    +0.000 OA
ENDBRANCH  16  26
ENDBRANCH   1  22
BRANCH   8  27
ATOM     27  C   UNL     1       2.983   5.458  18.155  0.00  0.00    +0.000 A 
ATOM     28  C   UNL     1       4.174   5.003  18.746  0.00  0.00    +0.000 A 
ATOM     29  C   UNL     1       4.404   3.639  18.925  0.00  0.00    +0.000 A 
ATOM     30  C   UNL     1       3.438   2.729  18.519  0.00  0.00    +0.000 A 
ATOM     31  F   UNL     1       3.659   1.419  18.679  0.00  0.00    +0.000 F 
ATOM     32  C   UNL     1       2.241   3.160  17.954  0.00  0.00    +0.000 A 
ATOM     33  C   UNL     1       2.004   4.529  17.774  0.00  0.00    +0.000 A 
ENDBRANCH   8  27
TORSDOF 3
ENDMDL
MODEL 9
REMARK VINA RESULT:      -8.6      2.747     10.202
REMARK  Name = 
REMARK  4 active torsions:
REMARK  status: ('A' for Active; 'I' for Inactive)
REMARK    1  A    between atoms: C_1  and  O_2
REMARK    2  A    between atoms: O_2  and  C_3
REMARK    3  A    between atoms: C_9  and  C_10
REMARK    4  A    between atoms: C_17  and  C_19
REMARK                            x       y       z     vdW  Elec       q    Type
REMARK                         _______ _______ _______ _____ _____    ______ ____
ROOT
ATOM      1  C   UNL     1      -0.549  11.398  21.190  0.00  0.00    +0.000 A 
ATOM      2  N   UNL     1       0.045  11.700  20.007  0.00  0.00    +0.000 NA
ATOM      3  C   UNL     1       0.746  10.683  19.477  0.00  0.00    +0.000 A 
ATOM      4  N   UNL     1       1.441  10.721  18.308  0.00  0.00    +0.000 N 
ATOM      5  N   UNL     1       2.061   9.574  18.020  0.00  0.00    +0.000 NA
ATOM      6  C   UNL     1       1.765   8.751  19.028  0.00  0.00    +0.000 A 
ATOM      7  N   UNL     1       2.210   7.442  19.114  0.00  0.00    +0.000 N 
ATOM      8  C   UNL     1       3.014   6.846  18.156  0.00  0.00    +0.000 C 
ATOM      9  O   UNL     1       3.492   7.378  17.161  0.00  0.00    +0.000 OA
ATOM     10  C   UNL     1       0.919   9.404  19.985  0.00  0.00    +0.000 A 
ATOM     11  C   UNL     1       0.281   9.111  21.199  0.00  0.00    +0.000 A 
ATOM     12  C   UNL     1      -0.458  10.140  21.795  0.00  0.00    +0.000 A 
ATOM     13  F   UNL     1      -1.075   9.880  22.958  0.00  0.00    +0.000 F 
ATOM     14  H   UNL     1       1.526  11.500  17.670  0.00  0.00    +0.000 HD
ATOM     15  H   UNL     1       1.856   6.901  19.888  0.00  0.00    +0.000 HD
ENDROOT
BRANCH   1  22
ATOM     16  C   UNL     1      -4.608  13.384  20.324  0.00  0.00    +0.000 A 
ATOM     17  C   UNL     1      -4.856  14.521  21.197  0.00  0.00    +0.000 A 
ATOM     18  C   UNL     1      -3.961  14.826  22.151  0.00  0.00    +0.000 A 
ATOM     19  N   UNL     1      -2.794  14.072  22.286  0.00  0.00    +0.000 N 
ATOM     20  N   UNL     1      -1.816  14.243  23.210  0.00  0.00    +0.000 NA
ATOM     21  C   UNL     1      -0.916  13.300  22.929  0.00  0.00    +0.000 A 
ATOM     22  C   UNL     1      -1.269  12.497  21.824  0.00  0.00    +0.000 A 
ATOM     23  C   UNL     1      -2.499  13.002  21.437  0.00  0.00    +0.000 A 
ATOM     24  C   UNL     1      -3.464  12.672  20.436  0.00  0.00    +0.000 A 
BRANCH  16  26
ATOM     25  C   UNL     1      -5.420  12.111  18.492  0.00  0.00    +0.000 C 
ATOM     26  O   UNL     1      -5.642  13.140  19.454  0.00  0.00    +0.000 OA
ENDBRANCH  16  26
ENDBRANCH   1  22
BRANCH   8  27
ATOM     27  C   UNL     1       3.294   5.389  18.334  0.00  0.00    +0.000 A 
ATOM     28  C   UNL     1       2.424   4.486  17.698  0.00  0.00    +0.000 A 
ATOM     29  C   UNL     1       2.607   3.110  17.830  0.00  0.00    +0.000 A 
ATOM     30  C   UNL     1       3.667   2.636  18.591  0.00  0.00    +0.000 A 
ATOM     31  F   UNL     1       3.840   1.316  18.729  0.00  0.00    +0.000 F 
ATOM     32  C   UNL     1       4.554   3.514  19.208  0.00  0.00    +0.000 A 
ATOM     33  C   UNL     1       4.375   4.896  19.077  0.00  0.00    +0.000 A 
ENDBRANCH   8  27
TORSDOF 3
ENDMDL
