MODEL 1
REMARK VINA RESULT:      -7.7      0.000      0.000
REMARK  Name = 
REMARK  11 active torsions:
REMARK  status: ('A' for Active; 'I' for Inactive)
REMARK    1  A    between atoms: C_1  and  O_2
REMARK    2  A    between atoms: O_2  and  C_3
REMARK    3  A    between atoms: C_6  and  N_7
REMARK    4  A    between atoms: C_8  and  C_10
REMARK    5  A    between atoms: C_10  and  C_11
REMARK    6  A    between atoms: N_14  and  C_15
REMARK    7  A    between atoms: C_18  and  O_19
REMARK    8  A    between atoms: O_19  and  C_20
REMARK    9  A    between atoms: N_25  and  C_26
REMARK   10  A    between atoms: C_26  and  C_27
REMARK   11  A    between atoms: C_27  and  C_28
REMARK                            x       y       z     vdW  Elec       q    Type
REMARK                         _______ _______ _______ _____ _____    ______ ____
ROOT
ATOM      1  C   UNL     1      -0.260   9.825  20.885  0.00  0.00    +0.000 C 
ATOM      2  C   UNL     1      -0.743  10.507  22.166  0.00  0.00    +0.000 C 
ATOM      3  O   UNL     1      -0.639   9.985  23.270  0.00  0.00    +0.000 OA
ATOM      4  N   UNL     1      -1.266  11.740  21.860  0.00  0.00    +0.000 N 
ATOM      5  C   UNL     1      -1.256  11.928  20.493  0.00  0.00    +0.000 C 
ATOM      6  O   UNL     1      -1.638  12.895  19.853  0.00  0.00    +0.000 OA
ATOM      7  N   UNL     1      -0.662  10.815  19.902  0.00  0.00    +0.000 N 
ENDROOT
BRANCH   4   8
ATOM      8  C   UNL     1      -1.703  12.695  22.819  0.00  0.00    +0.000 A 
ATOM      9  C   UNL     1      -0.901  13.791  23.175  0.00  0.00    +0.000 A 
ATOM     10  C   UNL     1      -1.353  14.759  24.079  0.00  0.00    +0.000 A 
ATOM     11  C   UNL     1      -2.614  14.651  24.658  0.00  0.00    +0.000 A 
ATOM     12  C   UNL     1      -3.411  13.555  24.345  0.00  0.00    +0.000 A 
ATOM     13  C   UNL     1      -2.961  12.593  23.430  0.00  0.00    +0.000 A 
BRANCH  11  14
ATOM     14  O   UNL     1      -2.943  15.645  25.536  0.00  0.00    +0.000 OA
ATOM     15  C   UNL     1      -1.869  16.483  25.947  0.00  0.00    +0.000 C 
ENDBRANCH  11  14
ENDBRANCH   4   8
BRANCH   1  16
ATOM     16  C   UNL     1       1.247   9.609  20.968  0.00  0.00    +0.000 C 
BRANCH  16  18
ATOM     17  N   UNL     1       1.768   7.227  20.984  0.00  0.00    +0.000 N 
ATOM     18  C   UNL     1       1.611   8.355  20.197  0.00  0.00    +0.000 C 
ATOM     19  O   UNL     1       1.708   8.422  18.974  0.00  0.00    +0.000 OA
ATOM     20  H   UNL     1       1.490   7.282  21.956  0.00  0.00    +0.000 HD
BRANCH  17  24
ATOM     21  C   UNL     1       2.748   3.346  19.605  0.00  0.00    +0.000 A 
ATOM     22  C   UNL     1       1.485   3.599  20.134  0.00  0.00    +0.000 A 
ATOM     23  C   UNL     1       1.139   4.880  20.568  0.00  0.00    +0.000 A 
ATOM     24  C   UNL     1       2.058   5.924  20.504  0.00  0.00    +0.000 A 
ATOM     25  C   UNL     1       3.322   5.676  19.957  0.00  0.00    +0.000 A 
ATOM     26  C   UNL     1       3.669   4.389  19.518  0.00  0.00    +0.000 A 
BRANCH  21  28
ATOM     27  C   UNL     1       3.210   1.806  17.874  0.00  0.00    +0.000 C 
ATOM     28  O   UNL     1       2.973   2.044  19.253  0.00  0.00    +0.000 OA
ENDBRANCH  21  28
ENDBRANCH  17  24
ENDBRANCH  16  18
ENDBRANCH   1  16
BRANCH   7  29
ATOM     29  C   UNL     1      -0.428  10.684  18.463  0.00  0.00    +0.000 C 
BRANCH  29  30
ATOM     30  C   UNL     1      -1.265   9.577  17.815  0.00  0.00    +0.000 C 
BRANCH  30  31
ATOM     31  C   UNL     1      -2.396  10.122  16.987  0.00  0.00    +0.000 A 
ATOM     32  C   UNL     1      -2.579  10.024  15.621  0.00  0.00    +0.000 A 
ATOM     33  C   UNL     1      -3.742  10.720  15.178  0.00  0.00    +0.000 A 
ATOM     34  C   UNL     1      -4.413  11.318  16.221  0.00  0.00    +0.000 A 
ATOM     35  S   UNL     1      -3.650  11.029  17.724  0.00  0.00    +0.000 S 
ENDBRANCH  30  31
ENDBRANCH  29  30
ENDBRANCH   7  29
TORSDOF 9
ENDMDL
MODEL 2
REMARK VINA RESULT:      -7.6      0.728      1.211
REMARK  Name = 
REMARK  11 active torsions:
REMARK  status: ('A' for Active; 'I' for Inactive)
REMARK    1  A    between atoms: C_1  and  O_2
REMARK    2  A    between atoms: O_2  and  C_3
REMARK    3  A    between atoms: C_6  and  N_7
REMARK    4  A    between atoms: C_8  and  C_10
REMARK    5  A    between atoms: C_10  and  C_11
REMARK    6  A    between atoms: N_14  and  C_15
REMARK    7  A    between atoms: C_18  and  O_19
REMARK    8  A    between atoms: O_19  and  C_20
REMARK    9  A    between atoms: N_25  and  C_26
REMARK   10  A    between atoms: C_26  and  C_27
REMARK   11  A    between atoms: C_27  and  C_28
REMARK                            x       y       z     vdW  Elec       q    Type
REMARK                         _______ _______ _______ _____ _____    ______ ____
ROOT
ATOM      1  C   UNL     1      -0.224   9.709  20.760  0.00  0.00    +0.000 C 
ATOM      2  C   UNL     1      -0.742  10.404  22.019  0.00  0.00    +0.000 C 
ATOM      3  O   UNL     1      -0.691   9.883  23.127  0.00  0.00    +0.000 OA
ATOM      4  N   UNL     1      -1.230  11.646  21.690  0.00  0.00    +0.000 N 
ATOM      5  C   UNL     1      -1.164  11.829  20.324  0.00  0.00    +0.000 C 
ATOM      6  O   UNL     1      -1.502  12.800  19.667  0.00  0.00    +0.000 OA
ATOM      7  N   UNL     1      -0.568  10.703  19.759  0.00  0.00    +0.000 N 
ENDROOT
BRANCH   4   8
ATOM      8  C   UNL     1      -1.685  12.612  22.629  0.00  0.00    +0.000 A 
ATOM      9  C   UNL     1      -2.962  12.523  23.207  0.00  0.00    +0.000 A 
ATOM     10  C   UNL     1      -3.389  13.444  24.170  0.00  0.00    +0.000 A 
ATOM     11  C   UNL     1      -2.556  14.481  24.574  0.00  0.00    +0.000 A 
ATOM     12  C   UNL     1      -1.299  14.607  23.990  0.00  0.00    +0.000 A 
ATOM     13  C   UNL     1      -0.869  13.677  23.034  0.00  0.00    +0.000 A 
BRANCH  11  14
ATOM     14  O   UNL     1      -3.083  15.328  25.508  0.00  0.00    +0.000 OA
ATOM     15  C   UNL     1      -3.953  16.335  25.004  0.00  0.00    +0.000 C 
ENDBRANCH  11  14
ENDBRANCH   4   8
BRANCH   1  16
ATOM     16  C   UNL     1       1.274   9.464  20.901  0.00  0.00    +0.000 C 
BRANCH  16  18
ATOM     17  N   UNL     1       1.600   7.047  20.889  0.00  0.00    +0.000 N 
ATOM     18  C   UNL     1       1.646   8.208  20.136  0.00  0.00    +0.000 C 
ATOM     19  O   UNL     1       1.921   8.304  18.943  0.00  0.00    +0.000 OA
ATOM     20  H   UNL     1       1.191   7.095  21.815  0.00  0.00    +0.000 HD
BRANCH  17  24
ATOM     21  C   UNL     1       2.472   3.151  19.480  0.00  0.00    +0.000 A 
ATOM     22  C   UNL     1       1.231   3.425  20.048  0.00  0.00    +0.000 A 
ATOM     23  C   UNL     1       0.919   4.711  20.493  0.00  0.00    +0.000 A 
ATOM     24  C   UNL     1       1.853   5.740  20.401  0.00  0.00    +0.000 A 
ATOM     25  C   UNL     1       3.096   5.471  19.814  0.00  0.00    +0.000 A 
ATOM     26  C   UNL     1       3.407   4.179  19.365  0.00  0.00    +0.000 A 
BRANCH  21  28
ATOM     27  C   UNL     1       4.000   1.476  18.816  0.00  0.00    +0.000 C 
ATOM     28  O   UNL     1       2.664   1.846  19.121  0.00  0.00    +0.000 OA
ENDBRANCH  21  28
ENDBRANCH  17  24
ENDBRANCH  16  18
ENDBRANCH   1  16
BRANCH   7  29
ATOM     29  C   UNL     1      -0.283  10.562  18.330  0.00  0.00    +0.000 C 
BRANCH  29  30
ATOM     30  C   UNL     1      -1.239   9.604  17.616  0.00  0.00    +0.000 C 
BRANCH  30  31
ATOM     31  C   UNL     1      -2.549  10.254  17.266  0.00  0.00    +0.000 A 
ATOM     32  C   UNL     1      -3.659  10.428  18.071  0.00  0.00    +0.000 A 
ATOM     33  C   UNL     1      -4.745  11.034  17.376  0.00  0.00    +0.000 A 
ATOM     34  C   UNL     1      -4.427  11.312  16.066  0.00  0.00    +0.000 A 
ATOM     35  S   UNL     1      -2.824  10.855  15.684  0.00  0.00    +0.000 S 
ENDBRANCH  30  31
ENDBRANCH  29  30
ENDBRANCH   7  29
TORSDOF 9
ENDMDL
MODEL 3
REMARK VINA RESULT:      -7.4      2.654      9.586
REMARK  Name = 
REMARK  11 active torsions:
REMARK  status: ('A' for Active; 'I' for Inactive)
REMARK    1  A    between atoms: C_1  and  O_2
REMARK    2  A    between atoms: O_2  and  C_3
REMARK    3  A    between atoms: C_6  and  N_7
REMARK    4  A    between atoms: C_8  and  C_10
REMARK    5  A    between atoms: C_10  and  C_11
REMARK    6  A    between atoms: N_14  and  C_15
REMARK    7  A    between atoms: C_18  and  O_19
REMARK    8  A    between atoms: O_19  and  C_20
REMARK    9  A    between atoms: N_25  and  C_26
REMARK   10  A    between atoms: C_26  and  C_27
REMARK   11  A    between atoms: C_27  and  C_28
REMARK                            x       y       z     vdW  Elec       q    Type
REMARK                         _______ _______ _______ _____ _____    ______ ____
ROOT
ATOM      1  C   UNL     1       1.130   9.511  20.526  0.00  0.00    +0.000 C 
ATOM      2  C   UNL     1       1.726   8.104  20.473  0.00  0.00    +0.000 C 
ATOM      3  O   UNL     1       1.827   7.393  21.467  0.00  0.00    +0.000 OA
ATOM      4  N   UNL     1       2.089   7.807  19.182  0.00  0.00    +0.000 N 
ATOM      5  C   UNL     1       1.869   8.902  18.370  0.00  0.00    +0.000 C 
ATOM      6  O   UNL     1       2.069   9.014  17.171  0.00  0.00    +0.000 OA
ATOM      7  N   UNL     1       1.299   9.912  19.141  0.00  0.00    +0.000 N 
ENDROOT
BRANCH   4   8
ATOM      8  C   UNL     1       2.570   6.542  18.746  0.00  0.00    +0.000 A 
ATOM      9  C   UNL     1       1.689   5.527  18.339  0.00  0.00    +0.000 A 
ATOM     10  C   UNL     1       2.164   4.301  17.860  0.00  0.00    +0.000 A 
ATOM     11  C   UNL     1       3.531   4.054  17.784  0.00  0.00    +0.000 A 
ATOM     12  C   UNL     1       4.421   5.033  18.214  0.00  0.00    +0.000 A 
ATOM     13  C   UNL     1       3.943   6.265  18.683  0.00  0.00    +0.000 A 
BRANCH  11  14
ATOM     14  O   UNL     1       3.879   2.818  17.316  0.00  0.00    +0.000 OA
ATOM     15  C   UNL     1       3.430   1.717  18.097  0.00  0.00    +0.000 C 
ENDBRANCH  11  14
ENDBRANCH   4   8
BRANCH   1  16
ATOM     16  C   UNL     1      -0.324   9.425  20.974  0.00  0.00    +0.000 C 
BRANCH  16  18
ATOM     17  N   UNL     1      -1.371  11.486  21.749  0.00  0.00    +0.000 N 
ATOM     18  C   UNL     1      -0.558  10.420  22.094  0.00  0.00    +0.000 C 
ATOM     19  O   UNL     1      -0.052  10.202  23.192  0.00  0.00    +0.000 OA
ATOM     20  H   UNL     1      -1.856  11.447  20.861  0.00  0.00    +0.000 HD
BRANCH  17  24
ATOM     21  C   UNL     1      -2.646  14.494  24.441  0.00  0.00    +0.000 A 
ATOM     22  C   UNL     1      -1.388  14.575  23.853  0.00  0.00    +0.000 A 
ATOM     23  C   UNL     1      -0.964  13.604  22.943  0.00  0.00    +0.000 A 
ATOM     24  C   UNL     1      -1.782  12.523  22.625  0.00  0.00    +0.000 A 
ATOM     25  C   UNL     1      -3.055  12.449  23.203  0.00  0.00    +0.000 A 
ATOM     26  C   UNL     1      -3.481  13.426  24.115  0.00  0.00    +0.000 A 
BRANCH  21  28
ATOM     27  C   UNL     1      -3.973  16.372  24.985  0.00  0.00    +0.000 C 
ATOM     28  O   UNL     1      -2.923  15.485  25.342  0.00  0.00    +0.000 OA
ENDBRANCH  21  28
ENDBRANCH  17  24
ENDBRANCH  16  18
ENDBRANCH   1  16
BRANCH   7  29
ATOM     29  C   UNL     1       0.877  11.207  18.604  0.00  0.00    +0.000 C 
BRANCH  29  30
ATOM     30  C   UNL     1       1.871  12.334  18.899  0.00  0.00    +0.000 C 
BRANCH  30  31
ATOM     31  C   UNL     1       1.198  13.671  19.039  0.00  0.00    +0.000 A 
ATOM     32  C   UNL     1      -0.132  13.935  19.306  0.00  0.00    +0.000 A 
ATOM     33  C   UNL     1      -0.420  15.331  19.304  0.00  0.00    +0.000 A 
ATOM     34  C   UNL     1       0.700  16.088  19.046  0.00  0.00    +0.000 A 
ATOM     35  S   UNL     1       2.091  15.118  18.819  0.00  0.00    +0.000 S 
ENDBRANCH  30  31
ENDBRANCH  29  30
ENDBRANCH   7  29
TORSDOF 9
ENDMDL
MODEL 4
REMARK VINA RESULT:      -7.3      1.588      9.091
REMARK  Name = 
REMARK  11 active torsions:
REMARK  status: ('A' for Active; 'I' for Inactive)
REMARK    1  A    between atoms: C_1  and  O_2
REMARK    2  A    between atoms: O_2  and  C_3
REMARK    3  A    between atoms: C_6  and  N_7
REMARK    4  A    between atoms: C_8  and  C_10
REMARK    5  A    between atoms: C_10  and  C_11
REMARK    6  A    between atoms: N_14  and  C_15
REMARK    7  A    between atoms: C_18  and  O_19
REMARK    8  A    between atoms: O_19  and  C_20
REMARK    9  A    between atoms: N_25  and  C_26
REMARK   10  A    between atoms: C_26  and  C_27
REMARK   11  A    between atoms: C_27  and  C_28
REMARK                            x       y       z     vdW  Elec       q    Type
REMARK                         _______ _______ _______ _____ _____    ______ ____
ROOT
ATOM      1  C   UNL     1       0.809   9.739  20.683  0.00  0.00    +0.000 C 
ATOM      2  C   UNL     1       1.698   8.501  20.550  0.00  0.00    +0.000 C 
ATOM      3  O   UNL     1       2.154   7.911  21.523  0.00  0.00    +0.000 OA
ATOM      4  N   UNL     1       1.863   8.194  19.222  0.00  0.00    +0.000 N 
ATOM      5  C   UNL     1       1.238   9.144  18.439  0.00  0.00    +0.000 C 
ATOM      6  O   UNL     1       1.169   9.205  17.223  0.00  0.00    +0.000 OA
ATOM      7  N   UNL     1       0.607  10.058  19.281  0.00  0.00    +0.000 N 
ENDROOT
BRANCH   4   8
ATOM      8  C   UNL     1       2.534   7.039  18.735  0.00  0.00    +0.000 A 
ATOM      9  C   UNL     1       3.675   7.146  17.922  0.00  0.00    +0.000 A 
ATOM     10  C   UNL     1       4.365   6.009  17.487  0.00  0.00    +0.000 A 
ATOM     11  C   UNL     1       3.929   4.738  17.844  0.00  0.00    +0.000 A 
ATOM     12  C   UNL     1       2.783   4.608  18.620  0.00  0.00    +0.000 A 
ATOM     13  C   UNL     1       2.098   5.748  19.065  0.00  0.00    +0.000 A 
BRANCH  11  14
ATOM     14  O   UNL     1       4.672   3.702  17.350  0.00  0.00    +0.000 OA
ATOM     15  C   UNL     1       5.333   3.955  16.115  0.00  0.00    +0.000 C 
ENDBRANCH  11  14
ENDBRANCH   4   8
BRANCH   1  16
ATOM     16  C   UNL     1      -0.468   9.364  21.424  0.00  0.00    +0.000 C 
BRANCH  16  18
ATOM     17  N   UNL     1      -1.533  11.429  22.164  0.00  0.00    +0.000 N 
ATOM     18  C   UNL     1      -0.715  10.373  22.529  0.00  0.00    +0.000 C 
ATOM     19  O   UNL     1      -0.215  10.174  23.632  0.00  0.00    +0.000 OA
ATOM     20  H   UNL     1      -2.013  11.375  21.273  0.00  0.00    +0.000 HD
BRANCH  17  24
ATOM     21  C   UNL     1      -2.746  14.636  24.647  0.00  0.00    +0.000 A 
ATOM     22  C   UNL     1      -3.610  13.571  24.414  0.00  0.00    +0.000 A 
ATOM     23  C   UNL     1      -3.215  12.493  23.619  0.00  0.00    +0.000 A 
ATOM     24  C   UNL     1      -1.956  12.475  23.022  0.00  0.00    +0.000 A 
ATOM     25  C   UNL     1      -1.078  13.538  23.270  0.00  0.00    +0.000 A 
ATOM     26  C   UNL     1      -1.476  14.618  24.071  0.00  0.00    +0.000 A 
BRANCH  21  28
ATOM     27  C   UNL     1      -4.323  16.387  24.818  0.00  0.00    +0.000 C 
ATOM     28  O   UNL     1      -3.268  15.644  25.410  0.00  0.00    +0.000 OA
ENDBRANCH  21  28
ENDBRANCH  17  24
ENDBRANCH  16  18
ENDBRANCH   1  16
BRANCH   7  29
ATOM     29  C   UNL     1      -0.204  11.180  18.804  0.00  0.00    +0.000 C 
BRANCH  29  30
ATOM     30  C   UNL     1      -1.708  10.953  18.976  0.00  0.00    +0.000 C 
BRANCH  30  31
ATOM     31  C   UNL     1      -2.403  10.690  17.669  0.00  0.00    +0.000 A 
ATOM     32  C   UNL     1      -1.995   9.870  16.634  0.00  0.00    +0.000 A 
ATOM     33  C   UNL     1      -2.884   9.918  15.520  0.00  0.00    +0.000 A 
ATOM     34  C   UNL     1      -3.945  10.766  15.744  0.00  0.00    +0.000 A 
ATOM     35  S   UNL     1      -3.873  11.488  17.293  0.00  0.00    +0.000 S 
ENDBRANCH  30  31
ENDBRANCH  29  30
ENDBRANCH   7  29
TORSDOF 9
ENDMDL
MODEL 5
REMARK VINA RESULT:      -7.3      1.001      1.051
REMARK  Name = 
REMARK  11 active torsions:
REMARK  status: ('A' for Active; 'I' for Inactive)
REMARK    1  A    between atoms: C_1  and  O_2
REMARK    2  A    between atoms: O_2  and  C_3
REMARK    3  A    between atoms: C_6  and  N_7
REMARK    4  A    between atoms: C_8  and  C_10
REMARK    5  A    between atoms: C_10  and  C_11
REMARK    6  A    between atoms: N_14  and  C_15
REMARK    7  A    between atoms: C_18  and  O_19
REMARK    8  A    between atoms: O_19  and  C_20
REMARK    9  A    between atoms: N_25  and  C_26
REMARK   10  A    between atoms: C_26  and  C_27
REMARK   11  A    between atoms: C_27  and  C_28
REMARK                            x       y       z     vdW  Elec       q    Type
REMARK                         _______ _______ _______ _____ _____    ______ ____
ROOT
ATOM      1  C   UNL     1      -0.400  10.383  21.018  0.00  0.00    +0.000 C 
ATOM      2  C   UNL     1      -0.864  11.067  22.305  0.00  0.00    +0.000 C 
ATOM      3  O   UNL     1      -0.797  10.523  23.401  0.00  0.00    +0.000 OA
ATOM      4  N   UNL     1      -1.327  12.327  22.014  0.00  0.00    +0.000 N 
ATOM      5  C   UNL     1      -1.294  12.536  20.650  0.00  0.00    +0.000 C 
ATOM      6  O   UNL     1      -1.624  13.529  20.022  0.00  0.00    +0.000 OA
ATOM      7  N   UNL     1      -0.745  11.406  20.047  0.00  0.00    +0.000 N 
ENDROOT
BRANCH   4   8
ATOM      8  C   UNL     1      -1.730  13.286  22.984  0.00  0.00    +0.000 A 
ATOM      9  C   UNL     1      -0.869  14.320  23.388  0.00  0.00    +0.000 A 
ATOM     10  C   UNL     1      -1.285  15.294  24.303  0.00  0.00    +0.000 A 
ATOM     11  C   UNL     1      -2.566  15.255  24.844  0.00  0.00    +0.000 A 
ATOM     12  C   UNL     1      -3.422  14.220  24.483  0.00  0.00    +0.000 A 
ATOM     13  C   UNL     1      -3.008  13.251  23.558  0.00  0.00    +0.000 A 
BRANCH  11  14
ATOM     14  O   UNL     1      -2.856  16.247  25.738  0.00  0.00    +0.000 OA
ATOM     15  C   UNL     1      -2.040  17.410  25.651  0.00  0.00    +0.000 C 
ENDBRANCH  11  14
ENDBRANCH   4   8
BRANCH   1  16
ATOM     16  C   UNL     1       1.094  10.096  21.112  0.00  0.00    +0.000 C 
BRANCH  16  18
ATOM     17  N   UNL     1       1.901   8.199  19.809  0.00  0.00    +0.000 N 
ATOM     18  C   UNL     1       1.319   8.601  20.999  0.00  0.00    +0.000 C 
ATOM     19  O   UNL     1       1.009   7.884  21.947  0.00  0.00    +0.000 OA
ATOM     20  H   UNL     1       2.260   8.915  19.188  0.00  0.00    +0.000 HD
BRANCH  17  24
ATOM     21  C   UNL     1       3.080   4.268  18.770  0.00  0.00    +0.000 A 
ATOM     22  C   UNL     1       2.497   4.516  20.010  0.00  0.00    +0.000 A 
ATOM     23  C   UNL     1       2.079   5.802  20.356  0.00  0.00    +0.000 A 
ATOM     24  C   UNL     1       2.260   6.868  19.477  0.00  0.00    +0.000 A 
ATOM     25  C   UNL     1       2.829   6.618  18.223  0.00  0.00    +0.000 A 
ATOM     26  C   UNL     1       3.246   5.324  17.875  0.00  0.00    +0.000 A 
BRANCH  21  28
ATOM     27  C   UNL     1       2.648   2.193  17.726  0.00  0.00    +0.000 C 
ATOM     28  O   UNL     1       3.479   2.975  18.571  0.00  0.00    +0.000 OA
ENDBRANCH  21  28
ENDBRANCH  17  24
ENDBRANCH  16  18
ENDBRANCH   1  16
BRANCH   7  29
ATOM     29  C   UNL     1      -0.503  11.286  18.608  0.00  0.00    +0.000 C 
BRANCH  29  30
ATOM     30  C   UNL     1      -1.157  10.048  17.988  0.00  0.00    +0.000 C 
BRANCH  30  31
ATOM     31  C   UNL     1      -2.364  10.391  17.158  0.00  0.00    +0.000 A 
ATOM     32  C   UNL     1      -2.583  10.128  15.820  0.00  0.00    +0.000 A 
ATOM     33  C   UNL     1      -3.823  10.659  15.358  0.00  0.00    +0.000 A 
ATOM     34  C   UNL     1      -4.514  11.301  16.360  0.00  0.00    +0.000 A 
ATOM     35  S   UNL     1      -3.675  11.251  17.850  0.00  0.00    +0.000 S 
ENDBRANCH  30  31
ENDBRANCH  29  30
ENDBRANCH   7  29
TORSDOF 9
ENDMDL
MODEL 6
REMARK VINA RESULT:      -7.3      2.754      9.677
REMARK  Name = 
REMARK  11 active torsions:
REMARK  status: ('A' for Active; 'I' for Inactive)
REMARK    1  A    between atoms: C_1  and  O_2
REMARK    2  A    between atoms: O_2  and  C_3
REMARK    3  A    between atoms: C_6  and  N_7
REMARK    4  A    between atoms: C_8  and  C_10
REMARK    5  A    between atoms: C_10  and  C_11
REMARK    6  A    between atoms: N_14  and  C_15
REMARK    7  A    between atoms: C_18  and  O_19
REMARK    8  A    between atoms: O_19  and  C_20
REMARK    9  A    between atoms: N_25  and  C_26
REMARK   10  A    between atoms: C_26  and  C_27
REMARK   11  A    between atoms: C_27  and  C_28
REMARK                            x       y       z     vdW  Elec       q    Type
REMARK                         _______ _______ _______ _____ _____    ______ ____
ROOT
ATOM      1  C   UNL     1       1.137   9.605  20.485  0.00  0.00    +0.000 C 
ATOM      2  C   UNL     1       1.696   8.182  20.457  0.00  0.00    +0.000 C 
ATOM      3  O   UNL     1       1.730   7.468  21.452  0.00  0.00    +0.000 OA
ATOM      4  N   UNL     1       2.109   7.876  19.183  0.00  0.00    +0.000 N 
ATOM      5  C   UNL     1       1.957   8.977  18.364  0.00  0.00    +0.000 C 
ATOM      6  O   UNL     1       2.214   9.084  17.176  0.00  0.00    +0.000 OA
ATOM      7  N   UNL     1       1.380  10.002  19.110  0.00  0.00    +0.000 N 
ENDROOT
BRANCH   4   8
ATOM      8  C   UNL     1       2.574   6.598  18.767  0.00  0.00    +0.000 A 
ATOM      9  C   UNL     1       1.694   5.638  18.240  0.00  0.00    +0.000 A 
ATOM     10  C   UNL     1       2.160   4.400  17.783  0.00  0.00    +0.000 A 
ATOM     11  C   UNL     1       3.514   4.087  17.847  0.00  0.00    +0.000 A 
ATOM     12  C   UNL     1       4.397   5.011  18.395  0.00  0.00    +0.000 A 
ATOM     13  C   UNL     1       3.930   6.255  18.844  0.00  0.00    +0.000 A 
BRANCH  11  14
ATOM     14  O   UNL     1       3.851   2.846  17.385  0.00  0.00    +0.000 OA
ATOM     15  C   UNL     1       3.332   1.751  18.130  0.00  0.00    +0.000 C 
ENDBRANCH  11  14
ENDBRANCH   4   8
BRANCH   1  16
ATOM     16  C   UNL     1      -0.338   9.560  20.866  0.00  0.00    +0.000 C 
BRANCH  16  18
ATOM     17  N   UNL     1      -1.475  11.496  21.815  0.00  0.00    +0.000 N 
ATOM     18  C   UNL     1      -0.572  10.474  22.053  0.00  0.00    +0.000 C 
ATOM     19  O   UNL     1       0.011  10.233  23.107  0.00  0.00    +0.000 OA
ATOM     20  H   UNL     1      -2.008  11.471  20.954  0.00  0.00    +0.000 HD
BRANCH  17  24
ATOM     21  C   UNL     1      -2.710  14.443  24.594  0.00  0.00    +0.000 A 
ATOM     22  C   UNL     1      -3.540  13.363  24.309  0.00  0.00    +0.000 A 
ATOM     23  C   UNL     1      -3.135  12.369  23.415  0.00  0.00    +0.000 A 
ATOM     24  C   UNL     1      -1.903  12.453  22.771  0.00  0.00    +0.000 A 
ATOM     25  C   UNL     1      -1.059  13.529  23.069  0.00  0.00    +0.000 A 
ATOM     26  C   UNL     1      -1.466  14.525  23.970  0.00  0.00    +0.000 A 
BRANCH  21  28
ATOM     27  C   UNL     1      -3.377  16.682  24.946  0.00  0.00    +0.000 C 
ATOM     28  O   UNL     1      -3.240  15.363  25.455  0.00  0.00    +0.000 OA
ENDBRANCH  21  28
ENDBRANCH  17  24
ENDBRANCH  16  18
ENDBRANCH   1  16
BRANCH   7  29
ATOM     29  C   UNL     1       1.020  11.309  18.557  0.00  0.00    +0.000 C 
BRANCH  29  30
ATOM     30  C   UNL     1       2.219  12.250  18.404  0.00  0.00    +0.000 C 
BRANCH  30  31
ATOM     31  C   UNL     1       2.111  13.465  19.283  0.00  0.00    +0.000 A 
ATOM     32  C   UNL     1       1.028  13.886  20.030  0.00  0.00    +0.000 A 
ATOM     33  C   UNL     1       1.274  15.124  20.694  0.00  0.00    +0.000 A 
ATOM     34  C   UNL     1       2.539  15.603  20.439  0.00  0.00    +0.000 A 
ATOM     35  S   UNL     1       3.426  14.558  19.416  0.00  0.00    +0.000 S 
ENDBRANCH  30  31
ENDBRANCH  29  30
ENDBRANCH   7  29
TORSDOF 9
ENDMDL
MODEL 7
REMARK VINA RESULT:      -7.2      2.702      9.651
REMARK  Name = 
REMARK  11 active torsions:
REMARK  status: ('A' for Active; 'I' for Inactive)
REMARK    1  A    between atoms: C_1  and  O_2
REMARK    2  A    between atoms: O_2  and  C_3
REMARK    3  A    between atoms: C_6  and  N_7
REMARK    4  A    between atoms: C_8  and  C_10
REMARK    5  A    between atoms: C_10  and  C_11
REMARK    6  A    between atoms: N_14  and  C_15
REMARK    7  A    between atoms: C_18  and  O_19
REMARK    8  A    between atoms: O_19  and  C_20
REMARK    9  A    between atoms: N_25  and  C_26
REMARK   10  A    between atoms: C_26  and  C_27
REMARK   11  A    between atoms: C_27  and  C_28
REMARK                            x       y       z     vdW  Elec       q    Type
REMARK                         _______ _______ _______ _____ _____    ______ ____
ROOT
ATOM      1  C   UNL     1       1.099   9.570  20.664  0.00  0.00    +0.000 C 
ATOM      2  C   UNL     1       1.773   8.220  20.412  0.00  0.00    +0.000 C 
ATOM      3  O   UNL     1       1.977   7.408  21.308  0.00  0.00    +0.000 OA
ATOM      4  N   UNL     1       2.071   8.097  19.077  0.00  0.00    +0.000 N 
ATOM      5  C   UNL     1       1.736   9.261  18.413  0.00  0.00    +0.000 C 
ATOM      6  O   UNL     1       1.852   9.522  17.227  0.00  0.00    +0.000 OA
ATOM      7  N   UNL     1       1.157  10.136  19.329  0.00  0.00    +0.000 N 
ENDROOT
BRANCH   4   8
ATOM      8  C   UNL     1       2.597   6.925  18.469  0.00  0.00    +0.000 A 
ATOM      9  C   UNL     1       3.895   6.900  17.932  0.00  0.00    +0.000 A 
ATOM     10  C   UNL     1       4.431   5.731  17.381  0.00  0.00    +0.000 A 
ATOM     11  C   UNL     1       3.682   4.559  17.344  0.00  0.00    +0.000 A 
ATOM     12  C   UNL     1       2.382   4.570  17.839  0.00  0.00    +0.000 A 
ATOM     13  C   UNL     1       1.850   5.740  18.401  0.00  0.00    +0.000 A 
BRANCH  11  14
ATOM     14  O   UNL     1       4.301   3.485  16.770  0.00  0.00    +0.000 OA
ATOM     15  C   UNL     1       5.463   3.782  16.005  0.00  0.00    +0.000 C 
ENDBRANCH  11  14
ENDBRANCH   4   8
BRANCH   1  16
ATOM     16  C   UNL     1      -0.316   9.337  21.179  0.00  0.00    +0.000 C 
BRANCH  16  18
ATOM     17  N   UNL     1      -1.425  11.375  21.929  0.00  0.00    +0.000 N 
ATOM     18  C   UNL     1      -0.605  10.321  22.296  0.00  0.00    +0.000 C 
ATOM     19  O   UNL     1      -0.134  10.105  23.409  0.00  0.00    +0.000 OA
ATOM     20  H   UNL     1      -1.878  11.334  21.025  0.00  0.00    +0.000 HD
BRANCH  17  24
ATOM     21  C   UNL     1      -2.836  14.344  24.598  0.00  0.00    +0.000 A 
ATOM     22  C   UNL     1      -1.589  14.485  23.996  0.00  0.00    +0.000 A 
ATOM     23  C   UNL     1      -1.121  13.527  23.094  0.00  0.00    +0.000 A 
ATOM     24  C   UNL     1      -1.883  12.399  22.797  0.00  0.00    +0.000 A 
ATOM     25  C   UNL     1      -3.145  12.265  23.387  0.00  0.00    +0.000 A 
ATOM     26  C   UNL     1      -3.615  13.229  24.291  0.00  0.00    +0.000 A 
BRANCH  21  28
ATOM     27  C   UNL     1      -2.979  16.662  25.032  0.00  0.00    +0.000 C 
ATOM     28  O   UNL     1      -3.158  15.330  25.489  0.00  0.00    +0.000 OA
ENDBRANCH  21  28
ENDBRANCH  17  24
ENDBRANCH  16  18
ENDBRANCH   1  16
BRANCH   7  29
ATOM     29  C   UNL     1       0.627  11.454  18.973  0.00  0.00    +0.000 C 
BRANCH  29  30
ATOM     30  C   UNL     1       1.721  12.496  18.721  0.00  0.00    +0.000 C 
BRANCH  30  31
ATOM     31  C   UNL     1       1.700  13.606  19.734  0.00  0.00    +0.000 A 
ATOM     32  C   UNL     1       2.388  13.685  20.930  0.00  0.00    +0.000 A 
ATOM     33  C   UNL     1       2.071  14.866  21.662  0.00  0.00    +0.000 A 
ATOM     34  C   UNL     1       1.160  15.656  20.998  0.00  0.00    +0.000 A 
ATOM     35  S   UNL     1       0.701  14.979  19.496  0.00  0.00    +0.000 S 
ENDBRANCH  30  31
ENDBRANCH  29  30
ENDBRANCH   7  29
TORSDOF 9
ENDMDL
MODEL 8
REMARK VINA RESULT:      -7.2      1.778      2.321
REMARK  Name = 
REMARK  11 active torsions:
REMARK  status: ('A' for Active; 'I' for Inactive)
REMARK    1  A    between atoms: C_1  and  O_2
REMARK    2  A    between atoms: O_2  and  C_3
REMARK    3  A    between atoms: C_6  and  N_7
REMARK    4  A    between atoms: C_8  and  C_10
REMARK    5  A    between atoms: C_10  and  C_11
REMARK    6  A    between atoms: N_14  and  C_15
REMARK    7  A    between atoms: C_18  and  O_19
REMARK    8  A    between atoms: O_19  and  C_20
REMARK    9  A    between atoms: N_25  and  C_26
REMARK   10  A    between atoms: C_26  and  C_27
REMARK   11  A    between atoms: C_27  and  C_28
REMARK                            x       y       z     vdW  Elec       q    Type
REMARK                         _______ _______ _______ _____ _____    ______ ____
ROOT
ATOM      1  C   UNL     1      -0.424  10.056  20.155  0.00  0.00    +0.000 C 
ATOM      2  C   UNL     1      -0.512  10.792  21.492  0.00  0.00    +0.000 C 
ATOM      3  O   UNL     1       0.129  10.447  22.478  0.00  0.00    +0.000 OA
ATOM      4  N   UNL     1      -1.380  11.851  21.377  0.00  0.00    +0.000 N 
ATOM      5  C   UNL     1      -1.946  11.859  20.118  0.00  0.00    +0.000 C 
ATOM      6  O   UNL     1      -2.756  12.643  19.652  0.00  0.00    +0.000 OA
ATOM      7  N   UNL     1      -1.391  10.815  19.382  0.00  0.00    +0.000 N 
ENDROOT
BRANCH   4   8
ATOM      8  C   UNL     1      -1.615  12.819  22.392  0.00  0.00    +0.000 A 
ATOM      9  C   UNL     1      -2.749  12.750  23.218  0.00  0.00    +0.000 A 
ATOM     10  C   UNL     1      -2.952  13.673  24.250  0.00  0.00    +0.000 A 
ATOM     11  C   UNL     1      -2.034  14.693  24.478  0.00  0.00    +0.000 A 
ATOM     12  C   UNL     1      -0.922  14.800  23.649  0.00  0.00    +0.000 A 
ATOM     13  C   UNL     1      -0.714  13.868  22.622  0.00  0.00    +0.000 A 
BRANCH  11  14
ATOM     14  O   UNL     1      -2.343  15.543  25.502  0.00  0.00    +0.000 OA
ATOM     15  C   UNL     1      -2.971  16.762  25.121  0.00  0.00    +0.000 C 
ENDBRANCH  11  14
ENDBRANCH   4   8
BRANCH   1  16
ATOM     16  C   UNL     1       1.003  10.146  19.624  0.00  0.00    +0.000 C 
BRANCH  16  18
ATOM     17  N   UNL     1       2.152   8.442  18.314  0.00  0.00    +0.000 N 
ATOM     18  C   UNL     1       1.590   8.751  19.541  0.00  0.00    +0.000 C 
ATOM     19  O   UNL     1       1.552   8.035  20.537  0.00  0.00    +0.000 OA
ATOM     20  H   UNL     1       2.265   9.189  17.639  0.00  0.00    +0.000 HD
BRANCH  17  24
ATOM     21  C   UNL     1       4.003   4.769  17.310  0.00  0.00    +0.000 A 
ATOM     22  C   UNL     1       4.676   5.968  17.097  0.00  0.00    +0.000 A 
ATOM     23  C   UNL     1       4.088   7.186  17.447  0.00  0.00    +0.000 A 
ATOM     24  C   UNL     1       2.808   7.226  17.994  0.00  0.00    +0.000 A 
ATOM     25  C   UNL     1       2.137   6.019  18.226  0.00  0.00    +0.000 A 
ATOM     26  C   UNL     1       2.729   4.796  17.876  0.00  0.00    +0.000 A 
BRANCH  21  28
ATOM     27  C   UNL     1       5.666   3.863  15.897  0.00  0.00    +0.000 C 
ATOM     28  O   UNL     1       4.671   3.653  16.888  0.00  0.00    +0.000 OA
ENDBRANCH  21  28
ENDBRANCH  17  24
ENDBRANCH  16  18
ENDBRANCH   1  16
BRANCH   7  29
ATOM     29  C   UNL     1      -1.712  10.546  17.979  0.00  0.00    +0.000 C 
BRANCH  29  30
ATOM     30  C   UNL     1      -3.001   9.739  17.800  0.00  0.00    +0.000 C 
BRANCH  30  31
ATOM     31  C   UNL     1      -4.210  10.617  17.630  0.00  0.00    +0.000 A 
ATOM     32  C   UNL     1      -4.404  11.635  16.716  0.00  0.00    +0.000 A 
ATOM     33  C   UNL     1      -5.657  12.292  16.893  0.00  0.00    +0.000 A 
ATOM     34  C   UNL     1      -6.381  11.749  17.930  0.00  0.00    +0.000 A 
ATOM     35  S   UNL     1      -5.559  10.447  18.675  0.00  0.00    +0.000 S 
ENDBRANCH  30  31
ENDBRANCH  29  30
ENDBRANCH   7  29
TORSDOF 9
ENDMDL
MODEL 9
REMARK VINA RESULT:      -7.2      2.878      9.733
REMARK  Name = 
REMARK  11 active torsions:
REMARK  status: ('A' for Active; 'I' for Inactive)
REMARK    1  A    between atoms: C_1  and  O_2
REMARK    2  A    between atoms: O_2  and  C_3
REMARK    3  A    between atoms: C_6  and  N_7
REMARK    4  A    between atoms: C_8  and  C_10
REMARK    5  A    between atoms: C_10  and  C_11
REMARK    6  A    between atoms: N_14  and  C_15
REMARK    7  A    between atoms: C_18  and  O_19
REMARK    8  A    between atoms: O_19  and  C_20
REMARK    9  A    between atoms: N_25  and  C_26
REMARK   10  A    between atoms: C_26  and  C_27
REMARK   11  A    between atoms: C_27  and  C_28
REMARK                            x       y       z     vdW  Elec       q    Type
REMARK                         _______ _______ _______ _____ _____    ______ ____
ROOT
ATOM      1  C   UNL     1       1.064   9.689  20.730  0.00  0.00    +0.000 C 
ATOM      2  C   UNL     1       1.756   8.349  20.479  0.00  0.00    +0.000 C 
ATOM      3  O   UNL     1       1.963   7.537  21.374  0.00  0.00    +0.000 OA
ATOM      4  N   UNL     1       2.065   8.234  19.146  0.00  0.00    +0.000 N 
ATOM      5  C   UNL     1       1.722   9.395  18.483  0.00  0.00    +0.000 C 
ATOM      6  O   UNL     1       1.844   9.661  17.298  0.00  0.00    +0.000 OA
ATOM      7  N   UNL     1       1.125  10.261  19.396  0.00  0.00    +0.000 N 
ENDROOT
BRANCH   4   8
ATOM      8  C   UNL     1       2.610   7.069  18.538  0.00  0.00    +0.000 A 
ATOM      9  C   UNL     1       1.913   5.850  18.541  0.00  0.00    +0.000 A 
ATOM     10  C   UNL     1       2.426   4.719  17.897  0.00  0.00    +0.000 A 
ATOM     11  C   UNL     1       3.652   4.773  17.243  0.00  0.00    +0.000 A 
ATOM     12  C   UNL     1       4.375   5.961  17.257  0.00  0.00    +0.000 A 
ATOM     13  C   UNL     1       3.854   7.097  17.892  0.00  0.00    +0.000 A 
BRANCH  11  14
ATOM     14  O   UNL     1       4.060   3.605  16.663  0.00  0.00    +0.000 OA
ATOM     15  C   UNL     1       5.358   3.628  16.081  0.00  0.00    +0.000 C 
ENDBRANCH  11  14
ENDBRANCH   4   8
BRANCH   1  16
ATOM     16  C   UNL     1      -0.353   9.438  21.233  0.00  0.00    +0.000 C 
BRANCH  16  18
ATOM     17  N   UNL     1      -1.488  11.474  21.947  0.00  0.00    +0.000 N 
ATOM     18  C   UNL     1      -0.670  10.428  22.337  0.00  0.00    +0.000 C 
ATOM     19  O   UNL     1      -0.219  10.223  23.460  0.00  0.00    +0.000 OA
ATOM     20  H   UNL     1      -1.924  11.424  21.034  0.00  0.00    +0.000 HD
BRANCH  17  24
ATOM     21  C   UNL     1      -2.983  14.453  24.557  0.00  0.00    +0.000 A 
ATOM     22  C   UNL     1      -1.670  14.522  24.102  0.00  0.00    +0.000 A 
ATOM     23  C   UNL     1      -1.171  13.561  23.220  0.00  0.00    +0.000 A 
ATOM     24  C   UNL     1      -1.970  12.502  22.798  0.00  0.00    +0.000 A 
ATOM     25  C   UNL     1      -3.297  12.441  23.240  0.00  0.00    +0.000 A 
ATOM     26  C   UNL     1      -3.798  13.408  24.125  0.00  0.00    +0.000 A 
BRANCH  21  28
ATOM     27  C   UNL     1      -4.194  16.445  24.944  0.00  0.00    +0.000 C 
ATOM     28  O   UNL     1      -3.335  15.432  25.445  0.00  0.00    +0.000 OA
ENDBRANCH  21  28
ENDBRANCH  17  24
ENDBRANCH  16  18
ENDBRANCH   1  16
BRANCH   7  29
ATOM     29  C   UNL     1       0.582  11.573  19.040  0.00  0.00    +0.000 C 
BRANCH  29  30
ATOM     30  C   UNL     1       0.998  12.681  20.012  0.00  0.00    +0.000 C 
BRANCH  30  31
ATOM     31  C   UNL     1       2.188  13.458  19.521  0.00  0.00    +0.000 A 
ATOM     32  C   UNL     1       2.668  13.562  18.229  0.00  0.00    +0.000 A 
ATOM     33  C   UNL     1       3.860  14.339  18.153  0.00  0.00    +0.000 A 
ATOM     34  C   UNL     1       4.247  14.811  19.387  0.00  0.00    +0.000 A 
ATOM     35  S   UNL     1       3.170  14.328  20.625  0.00  0.00    +0.000 S 
ENDBRANCH  30  31
ENDBRANCH  29  30
ENDBRANCH   7  29
TORSDOF 9
ENDMDL
