MODEL 1
REMARK VINA RESULT:      -6.8      0.000      0.000
REMARK  Name = 
REMARK  3 active torsions:
REMARK  status: ('A' for Active; 'I' for Inactive)
REMARK    1  A    between atoms: C_1  and  C_2
REMARK    2  A    between atoms: C_5  and  C_6
REMARK    3  A    between atoms: C_15  and  C_16
REMARK                            x       y       z     vdW  Elec       q    Type
REMARK                         _______ _______ _______ _____ _____    ______ ____
ROOT
ATOM      1  C   UNL     1      -6.022  12.723  24.046  0.00  0.00    +0.000 C 
ATOM      2  C   UNL     1      -4.710  13.003  23.392  0.00  0.00    +0.000 A 
ATOM      3  N   UNL     1      -4.403  12.589  22.194  0.00  0.00    +0.000 NA
ATOM      4  N   UNL     1      -3.138  13.047  21.972  0.00  0.00    +0.000 N 
ATOM      5  C   UNL     1      -2.300  12.929  20.899  0.00  0.00    +0.000 A 
ATOM      6  C   UNL     1      -1.195  13.707  21.255  0.00  0.00    +0.000 A 
ATOM      7  N   UNL     1      -1.332  14.220  22.547  0.00  0.00    +0.000 NA
ATOM      8  C   UNL     1      -2.504  13.788  22.913  0.00  0.00    +0.000 A 
ATOM      9  S   UNL     1      -3.514  13.969  24.284  0.00  0.00    +0.000 S 
ENDROOT
BRANCH   5  10
ATOM     10  C   UNL     1      -2.611  12.168  19.738  0.00  0.00    +0.000 A 
ATOM     11  N   UNL     1      -1.836  11.234  19.233  0.00  0.00    +0.000 NA
ATOM     12  C   UNL     1      -2.399  10.896  18.032  0.00  0.00    +0.000 A 
ATOM     13  C   UNL     1      -1.932  10.017  17.049  0.00  0.00    +0.000 A 
ATOM     14  C   UNL     1      -2.677   9.874  15.874  0.00  0.00    +0.000 A 
ATOM     15  C   UNL     1      -3.870  10.580  15.695  0.00  0.00    +0.000 A 
ATOM     16  C   UNL     1      -4.357  11.457  16.674  0.00  0.00    +0.000 A 
ATOM     17  C   UNL     1      -3.585  11.591  17.827  0.00  0.00    +0.000 A 
ATOM     18  N   UNL     1      -3.720  12.364  18.954  0.00  0.00    +0.000 N 
ATOM     19  H   UNL     1      -4.458  13.028  19.143  0.00  0.00    +0.000 HD
ENDBRANCH   5  10
BRANCH   6  20
ATOM     20  C   UNL     1      -0.041  14.033  20.419  0.00  0.00    +0.000 A 
ATOM     21  C   UNL     1       1.066  13.177  20.324  0.00  0.00    +0.000 A 
ATOM     22  C   UNL     1       2.170  13.498  19.530  0.00  0.00    +0.000 A 
ATOM     23  C   UNL     1       2.158  14.670  18.784  0.00  0.00    +0.000 A 
ATOM     24 CL   UNL     1       3.503  15.055  17.785  0.00  0.00    +0.000 Cl
ATOM     25  C   UNL     1       1.056  15.521  18.835  0.00  0.00    +0.000 A 
ATOM     26  C   UNL     1      -0.039  15.206  19.653  0.00  0.00    +0.000 A 
ENDBRANCH   6  20
TORSDOF 2
ENDMDL
MODEL 2
REMARK VINA RESULT:      -6.6      3.011      3.886
REMARK  Name = 
REMARK  3 active torsions:
REMARK  status: ('A' for Active; 'I' for Inactive)
REMARK    1  A    between atoms: C_1  and  C_2
REMARK    2  A    between atoms: C_5  and  C_6
REMARK    3  A    between atoms: C_15  and  C_16
REMARK                            x       y       z     vdW  Elec       q    Type
REMARK                         _______ _______ _______ _____ _____    ______ ____
ROOT
ATOM      1  C   UNL     1      -4.974  17.336  24.846  0.00  0.00    +0.000 C 
ATOM      2  C   UNL     1      -4.126  16.173  24.451  0.00  0.00    +0.000 A 
ATOM      3  N   UNL     1      -4.414  15.380  23.456  0.00  0.00    +0.000 NA
ATOM      4  N   UNL     1      -3.406  14.463  23.429  0.00  0.00    +0.000 N 
ATOM      5  C   UNL     1      -3.166  13.394  22.611  0.00  0.00    +0.000 A 
ATOM      6  C   UNL     1      -1.922  12.923  23.037  0.00  0.00    +0.000 A 
ATOM      7  N   UNL     1      -1.458  13.645  24.139  0.00  0.00    +0.000 NA
ATOM      8  C   UNL     1      -2.387  14.539  24.319  0.00  0.00    +0.000 A 
ATOM      9  S   UNL     1      -2.638  15.864  25.373  0.00  0.00    +0.000 S 
ENDROOT
BRANCH   5  10
ATOM     10  C   UNL     1      -4.058  12.974  21.585  0.00  0.00    +0.000 A 
ATOM     11  N   UNL     1      -5.237  12.437  21.801  0.00  0.00    +0.000 NA
ATOM     12  C   UNL     1      -5.676  12.004  20.579  0.00  0.00    +0.000 A 
ATOM     13  C   UNL     1      -6.830  11.283  20.255  0.00  0.00    +0.000 A 
ATOM     14  C   UNL     1      -7.035  10.916  18.920  0.00  0.00    +0.000 A 
ATOM     15  C   UNL     1      -6.114  11.277  17.932  0.00  0.00    +0.000 A 
ATOM     16  C   UNL     1      -4.957  12.007  18.238  0.00  0.00    +0.000 A 
ATOM     17  C   UNL     1      -4.773  12.344  19.578  0.00  0.00    +0.000 A 
ATOM     18  N   UNL     1      -3.769  13.004  20.243  0.00  0.00    +0.000 N 
ATOM     19  H   UNL     1      -2.921  13.374  19.837  0.00  0.00    +0.000 HD
ENDBRANCH   5  10
BRANCH   6  20
ATOM     20  C   UNL     1      -1.124  11.862  22.426  0.00  0.00    +0.000 A 
ATOM     21  C   UNL     1      -0.975  10.607  23.036  0.00  0.00    +0.000 A 
ATOM     22  C   UNL     1      -0.205   9.600  22.450  0.00  0.00    +0.000 A 
ATOM     23  C   UNL     1       0.393   9.825  21.217  0.00  0.00    +0.000 A 
ATOM     24 CL   UNL     1       1.320   8.577  20.481  0.00  0.00    +0.000 Cl
ATOM     25  C   UNL     1       0.233  11.050  20.575  0.00  0.00    +0.000 A 
ATOM     26  C   UNL     1      -0.521  12.067  21.178  0.00  0.00    +0.000 A 
ENDBRANCH   6  20
TORSDOF 2
ENDMDL
MODEL 3
REMARK VINA RESULT:      -6.5      7.773      9.830
REMARK  Name = 
REMARK  3 active torsions:
REMARK  status: ('A' for Active; 'I' for Inactive)
REMARK    1  A    between atoms: C_1  and  C_2
REMARK    2  A    between atoms: C_5  and  C_6
REMARK    3  A    between atoms: C_15  and  C_16
REMARK                            x       y       z     vdW  Elec       q    Type
REMARK                         _______ _______ _______ _____ _____    ______ ____
ROOT
ATOM      1  C   UNL     1       0.746   1.498  18.946  0.00  0.00    +0.000 C 
ATOM      2  C   UNL     1       1.887   2.422  18.678  0.00  0.00    +0.000 A 
ATOM      3  N   UNL     1       1.812   3.716  18.824  0.00  0.00    +0.000 NA
ATOM      4  N   UNL     1       3.045   4.185  18.482  0.00  0.00    +0.000 N 
ATOM      5  C   UNL     1       3.562   5.450  18.444  0.00  0.00    +0.000 A 
ATOM      6  C   UNL     1       4.905   5.249  18.115  0.00  0.00    +0.000 A 
ATOM      7  N   UNL     1       5.173   3.898  17.886  0.00  0.00    +0.000 NA
ATOM      8  C   UNL     1       4.027   3.326  18.118  0.00  0.00    +0.000 A 
ATOM      9  S   UNL     1       3.432   1.720  18.149  0.00  0.00    +0.000 S 
ENDROOT
BRANCH   5  10
ATOM     10  C   UNL     1       2.799   6.620  18.714  0.00  0.00    +0.000 A 
ATOM     11  N   UNL     1       2.585   7.583  17.847  0.00  0.00    +0.000 NA
ATOM     12  C   UNL     1       1.986   8.591  18.554  0.00  0.00    +0.000 A 
ATOM     13  C   UNL     1       1.628   9.877  18.135  0.00  0.00    +0.000 A 
ATOM     14  C   UNL     1       1.062  10.749  19.071  0.00  0.00    +0.000 A 
ATOM     15  C   UNL     1       0.845  10.339  20.390  0.00  0.00    +0.000 A 
ATOM     16  C   UNL     1       1.191   9.051  20.823  0.00  0.00    +0.000 A 
ATOM     17  C   UNL     1       1.767   8.210  19.872  0.00  0.00    +0.000 A 
ATOM     18  N   UNL     1       2.255   6.928  19.936  0.00  0.00    +0.000 N 
ATOM     19  H   UNL     1       2.290   6.339  20.756  0.00  0.00    +0.000 HD
ENDBRANCH   5  10
BRANCH   6  20
ATOM     20  C   UNL     1       5.959   6.260  18.058  0.00  0.00    +0.000 A 
ATOM     21  C   UNL     1       5.812   7.437  17.310  0.00  0.00    +0.000 A 
ATOM     22  C   UNL     1       6.827   8.396  17.253  0.00  0.00    +0.000 A 
ATOM     23  C   UNL     1       7.991   8.204  17.985  0.00  0.00    +0.000 A 
ATOM     24 CL   UNL     1       9.231   9.395  17.938  0.00  0.00    +0.000 Cl
ATOM     25  C   UNL     1       8.148   7.059  18.764  0.00  0.00    +0.000 A 
ATOM     26  C   UNL     1       7.137   6.088  18.798  0.00  0.00    +0.000 A 
ENDBRANCH   6  20
TORSDOF 2
ENDMDL
MODEL 4
REMARK VINA RESULT:      -6.5      3.659      5.253
REMARK  Name = 
REMARK  3 active torsions:
REMARK  status: ('A' for Active; 'I' for Inactive)
REMARK    1  A    between atoms: C_1  and  C_2
REMARK    2  A    between atoms: C_5  and  C_6
REMARK    3  A    between atoms: C_15  and  C_16
REMARK                            x       y       z     vdW  Elec       q    Type
REMARK                         _______ _______ _______ _____ _____    ______ ____
ROOT
ATOM      1  C   UNL     1       0.115  17.643  18.342  0.00  0.00    +0.000 C 
ATOM      2  C   UNL     1       0.491  16.212  18.539  0.00  0.00    +0.000 A 
ATOM      3  N   UNL     1      -0.376  15.237  18.548  0.00  0.00    +0.000 NA
ATOM      4  N   UNL     1       0.361  14.108  18.754  0.00  0.00    +0.000 N 
ATOM      5  C   UNL     1       0.005  12.792  18.854  0.00  0.00    +0.000 A 
ATOM      6  C   UNL     1       1.229  12.125  18.957  0.00  0.00    +0.000 A 
ATOM      7  N   UNL     1       2.294  13.027  18.996  0.00  0.00    +0.000 NA
ATOM      8  C   UNL     1       1.708  14.183  18.873  0.00  0.00    +0.000 A 
ATOM      9  S   UNL     1       2.210  15.815  18.754  0.00  0.00    +0.000 S 
ENDROOT
BRANCH   5  10
ATOM     10  C   UNL     1      -1.343  12.338  18.829  0.00  0.00    +0.000 A 
ATOM     11  N   UNL     1      -1.842  11.548  17.905  0.00  0.00    +0.000 NA
ATOM     12  C   UNL     1      -3.191  11.515  18.136  0.00  0.00    +0.000 A 
ATOM     13  C   UNL     1      -4.204  10.897  17.395  0.00  0.00    +0.000 A 
ATOM     14  C   UNL     1      -5.528  11.049  17.818  0.00  0.00    +0.000 A 
ATOM     15  C   UNL     1      -5.830  11.789  18.966  0.00  0.00    +0.000 A 
ATOM     16  C   UNL     1      -4.827  12.408  19.725  0.00  0.00    +0.000 A 
ATOM     17  C   UNL     1      -3.519  12.251  19.269  0.00  0.00    +0.000 A 
ATOM     18  N   UNL     1      -2.312  12.729  19.718  0.00  0.00    +0.000 N 
ATOM     19  H   UNL     1      -2.164  13.334  20.513  0.00  0.00    +0.000 HD
ENDBRANCH   5  10
BRANCH   6  20
ATOM     20  C   UNL     1       1.447  10.680  18.969  0.00  0.00    +0.000 A 
ATOM     21  C   UNL     1       1.985  10.007  17.862  0.00  0.00    +0.000 A 
ATOM     22  C   UNL     1       2.184   8.624  17.877  0.00  0.00    +0.000 A 
ATOM     23  C   UNL     1       1.883   7.902  19.024  0.00  0.00    +0.000 A 
ATOM     24 CL   UNL     1       2.152   6.203  19.054  0.00  0.00    +0.000 Cl
ATOM     25  C   UNL     1       1.379   8.552  20.148  0.00  0.00    +0.000 A 
ATOM     26  C   UNL     1       1.158   9.936  20.121  0.00  0.00    +0.000 A 
ENDBRANCH   6  20
TORSDOF 2
ENDMDL
MODEL 5
REMARK VINA RESULT:      -6.5      3.758      6.043
REMARK  Name = 
REMARK  3 active torsions:
REMARK  status: ('A' for Active; 'I' for Inactive)
REMARK    1  A    between atoms: C_1  and  C_2
REMARK    2  A    between atoms: C_5  and  C_6
REMARK    3  A    between atoms: C_15  and  C_16
REMARK                            x       y       z     vdW  Elec       q    Type
REMARK                         _______ _______ _______ _____ _____    ______ ____
ROOT
ATOM      1  C   UNL     1      -1.978  14.695  24.078  0.00  0.00    +0.000 C 
ATOM      2  C   UNL     1      -1.464  13.583  23.226  0.00  0.00    +0.000 A 
ATOM      3  N   UNL     1      -0.410  13.690  22.465  0.00  0.00    +0.000 NA
ATOM      4  N   UNL     1      -0.280  12.473  21.864  0.00  0.00    +0.000 N 
ATOM      5  C   UNL     1       0.635  11.991  20.969  0.00  0.00    +0.000 A 
ATOM      6  C   UNL     1       0.280  10.647  20.826  0.00  0.00    +0.000 A 
ATOM      7  N   UNL     1      -0.870  10.346  21.559  0.00  0.00    +0.000 NA
ATOM      8  C   UNL     1      -1.149  11.473  22.147  0.00  0.00    +0.000 A 
ATOM      9  S   UNL     1      -2.321  12.026  23.267  0.00  0.00    +0.000 S 
ENDROOT
BRANCH   5  10
ATOM     10  C   UNL     1       1.672  12.781  20.402  0.00  0.00    +0.000 A 
ATOM     11  N   UNL     1       2.686  13.271  21.079  0.00  0.00    +0.000 NA
ATOM     12  C   UNL     1       3.332  14.118  20.218  0.00  0.00    +0.000 A 
ATOM     13  C   UNL     1       4.421  14.963  20.455  0.00  0.00    +0.000 A 
ATOM     14  C   UNL     1       4.875  15.774  19.409  0.00  0.00    +0.000 A 
ATOM     15  C   UNL     1       4.263  15.728  18.153  0.00  0.00    +0.000 A 
ATOM     16  C   UNL     1       3.177  14.880  17.897  0.00  0.00    +0.000 A 
ATOM     17  C   UNL     1       2.737  14.095  18.962  0.00  0.00    +0.000 A 
ATOM     18  N   UNL     1       1.706  13.198  19.095  0.00  0.00    +0.000 N 
ATOM     19  H   UNL     1       1.032  12.948  18.385  0.00  0.00    +0.000 HD
ENDBRANCH   5  10
BRANCH   6  20
ATOM     20  C   UNL     1       1.000   9.620  20.074  0.00  0.00    +0.000 A 
ATOM     21  C   UNL     1       1.435   8.432  20.681  0.00  0.00    +0.000 A 
ATOM     22  C   UNL     1       2.130   7.458  19.959  0.00  0.00    +0.000 A 
ATOM     23  C   UNL     1       2.360   7.646  18.603  0.00  0.00    +0.000 A 
ATOM     24 CL   UNL     1       3.191   6.437  17.706  0.00  0.00    +0.000 Cl
ATOM     25  C   UNL     1       1.908   8.802  17.970  0.00  0.00    +0.000 A 
ATOM     26  C   UNL     1       1.233   9.788  18.703  0.00  0.00    +0.000 A 
ENDBRANCH   6  20
TORSDOF 2
ENDMDL
MODEL 6
REMARK VINA RESULT:      -6.5      3.876      5.955
REMARK  Name = 
REMARK  3 active torsions:
REMARK  status: ('A' for Active; 'I' for Inactive)
REMARK    1  A    between atoms: C_1  and  C_2
REMARK    2  A    between atoms: C_5  and  C_6
REMARK    3  A    between atoms: C_15  and  C_16
REMARK                            x       y       z     vdW  Elec       q    Type
REMARK                         _______ _______ _______ _____ _____    ______ ____
ROOT
ATOM      1  C   UNL     1       3.974  14.884  21.955  0.00  0.00    +0.000 C 
ATOM      2  C   UNL     1       2.645  14.518  21.382  0.00  0.00    +0.000 A 
ATOM      3  N   UNL     1       2.349  13.319  20.962  0.00  0.00    +0.000 NA
ATOM      4  N   UNL     1       1.062  13.404  20.521  0.00  0.00    +0.000 N 
ATOM      5  C   UNL     1       0.221  12.473  19.978  0.00  0.00    +0.000 A 
ATOM      6  C   UNL     1      -0.988  13.160  19.838  0.00  0.00    +0.000 A 
ATOM      7  N   UNL     1      -0.855  14.498  20.217  0.00  0.00    +0.000 NA
ATOM      8  C   UNL     1       0.384  14.573  20.608  0.00  0.00    +0.000 A 
ATOM      9  S   UNL     1       1.395  15.779  21.284  0.00  0.00    +0.000 S 
ENDROOT
BRANCH   5  10
ATOM     10  C   UNL     1       0.610  11.136  19.687  0.00  0.00    +0.000 A 
ATOM     11  N   UNL     1       0.675  10.171  20.576  0.00  0.00    +0.000 NA
ATOM     12  C   UNL     1       1.270   9.117  19.937  0.00  0.00    +0.000 A 
ATOM     13  C   UNL     1       1.658   7.874  20.447  0.00  0.00    +0.000 A 
ATOM     14  C   UNL     1       2.296   6.971  19.590  0.00  0.00    +0.000 A 
ATOM     15  C   UNL     1       2.525   7.299  18.250  0.00  0.00    +0.000 A 
ATOM     16  C   UNL     1       2.135   8.537  17.721  0.00  0.00    +0.000 A 
ATOM     17  C   UNL     1       1.516   9.421  18.603  0.00  0.00    +0.000 A 
ATOM     18  N   UNL     1       1.043  10.702  18.459  0.00  0.00    +0.000 N 
ATOM     19  H   UNL     1       1.081  11.266  17.621  0.00  0.00    +0.000 HD
ENDBRANCH   5  10
BRANCH   6  20
ATOM     20  C   UNL     1      -2.273  12.607  19.415  0.00  0.00    +0.000 A 
ATOM     21  C   UNL     1      -2.395  11.831  18.253  0.00  0.00    +0.000 A 
ATOM     22  C   UNL     1      -3.628  11.312  17.850  0.00  0.00    +0.000 A 
ATOM     23  C   UNL     1      -4.752  11.531  18.635  0.00  0.00    +0.000 A 
ATOM     24 CL   UNL     1      -6.265  10.870  18.156  0.00  0.00    +0.000 Cl
ATOM     25  C   UNL     1      -4.651  12.270  19.812  0.00  0.00    +0.000 A 
ATOM     26  C   UNL     1      -3.416  12.809  20.200  0.00  0.00    +0.000 A 
ENDBRANCH   6  20
TORSDOF 2
ENDMDL
MODEL 7
REMARK VINA RESULT:      -6.4      7.751      9.745
REMARK  Name = 
REMARK  3 active torsions:
REMARK  status: ('A' for Active; 'I' for Inactive)
REMARK    1  A    between atoms: C_1  and  C_2
REMARK    2  A    between atoms: C_5  and  C_6
REMARK    3  A    between atoms: C_15  and  C_16
REMARK                            x       y       z     vdW  Elec       q    Type
REMARK                         _______ _______ _______ _____ _____    ______ ____
ROOT
ATOM      1  C   UNL     1       0.729   1.673  18.911  0.00  0.00    +0.000 C 
ATOM      2  C   UNL     1       1.887   2.577  18.647  0.00  0.00    +0.000 A 
ATOM      3  N   UNL     1       1.852   3.865  18.853  0.00  0.00    +0.000 NA
ATOM      4  N   UNL     1       3.087   4.316  18.493  0.00  0.00    +0.000 N 
ATOM      5  C   UNL     1       3.638   5.567  18.493  0.00  0.00    +0.000 A 
ATOM      6  C   UNL     1       4.965   5.346  18.114  0.00  0.00    +0.000 A 
ATOM      7  N   UNL     1       5.187   3.999  17.817  0.00  0.00    +0.000 NA
ATOM      8  C   UNL     1       4.034   3.448  18.060  0.00  0.00    +0.000 A 
ATOM      9  S   UNL     1       3.395   1.859  18.040  0.00  0.00    +0.000 S 
ENDROOT
BRANCH   5  10
ATOM     10  C   UNL     1       2.916   6.743  18.839  0.00  0.00    +0.000 A 
ATOM     11  N   UNL     1       2.436   6.994  20.036  0.00  0.00    +0.000 NA
ATOM     12  C   UNL     1       1.656   8.111  19.895  0.00  0.00    +0.000 A 
ATOM     13  C   UNL     1       0.844   8.751  20.837  0.00  0.00    +0.000 A 
ATOM     14  C   UNL     1       0.101   9.864  20.431  0.00  0.00    +0.000 A 
ATOM     15  C   UNL     1       0.183  10.335  19.117  0.00  0.00    +0.000 A 
ATOM     16  C   UNL     1       0.998   9.711  18.163  0.00  0.00    +0.000 A 
ATOM     17  C   UNL     1       1.714   8.595  18.593  0.00  0.00    +0.000 A 
ATOM     18  N   UNL     1       2.562   7.728  17.951  0.00  0.00    +0.000 N 
ATOM     19  H   UNL     1       2.820   7.752  16.974  0.00  0.00    +0.000 HD
ENDBRANCH   5  10
BRANCH   6  20
ATOM     20  C   UNL     1       6.044   6.330  18.068  0.00  0.00    +0.000 A 
ATOM     21  C   UNL     1       5.942   7.501  17.303  0.00  0.00    +0.000 A 
ATOM     22  C   UNL     1       6.981   8.434  17.257  0.00  0.00    +0.000 A 
ATOM     23  C   UNL     1       8.125   8.222  18.015  0.00  0.00    +0.000 A 
ATOM     24 CL   UNL     1       9.394   9.382  17.981  0.00  0.00    +0.000 Cl
ATOM     25  C   UNL     1       8.237   7.083  18.810  0.00  0.00    +0.000 A 
ATOM     26  C   UNL     1       7.201   6.138  18.834  0.00  0.00    +0.000 A 
ENDBRANCH   6  20
TORSDOF 2
ENDMDL
MODEL 8
REMARK VINA RESULT:      -6.4      3.265      4.319
REMARK  Name = 
REMARK  3 active torsions:
REMARK  status: ('A' for Active; 'I' for Inactive)
REMARK    1  A    between atoms: C_1  and  C_2
REMARK    2  A    between atoms: C_5  and  C_6
REMARK    3  A    between atoms: C_15  and  C_16
REMARK                            x       y       z     vdW  Elec       q    Type
REMARK                         _______ _______ _______ _____ _____    ______ ____
ROOT
ATOM      1  C   UNL     1      -3.202  18.079  23.175  0.00  0.00    +0.000 C 
ATOM      2  C   UNL     1      -2.598  16.717  23.078  0.00  0.00    +0.000 A 
ATOM      3  N   UNL     1      -3.140  15.738  22.408  0.00  0.00    +0.000 NA
ATOM      4  N   UNL     1      -2.291  14.684  22.568  0.00  0.00    +0.000 N 
ATOM      5  C   UNL     1      -2.331  13.401  22.099  0.00  0.00    +0.000 A 
ATOM      6  C   UNL     1      -1.119  12.853  22.528  0.00  0.00    +0.000 A 
ATOM      7  N   UNL     1      -0.400  13.764  23.305  0.00  0.00    +0.000 NA
ATOM      8  C   UNL     1      -1.153  14.825  23.289  0.00  0.00    +0.000 A 
ATOM      9  S   UNL     1      -1.052  16.421  23.903  0.00  0.00    +0.000 S 
ENDROOT
BRANCH   5  10
ATOM     10  C   UNL     1      -3.414  12.873  21.343  0.00  0.00    +0.000 A 
ATOM     11  N   UNL     1      -3.377  12.653  20.048  0.00  0.00    +0.000 NA
ATOM     12  C   UNL     1      -4.661  12.339  19.689  0.00  0.00    +0.000 A 
ATOM     13  C   UNL     1      -5.194  12.102  18.418  0.00  0.00    +0.000 A 
ATOM     14  C   UNL     1      -6.564  11.840  18.308  0.00  0.00    +0.000 A 
ATOM     15  C   UNL     1      -7.377  11.800  19.445  0.00  0.00    +0.000 A 
ATOM     16  C   UNL     1      -6.857  12.027  20.727  0.00  0.00    +0.000 A 
ATOM     17  C   UNL     1      -5.492  12.300  20.803  0.00  0.00    +0.000 A 
ATOM     18  N   UNL     1      -4.659  12.601  21.852  0.00  0.00    +0.000 N 
ATOM     19  H   UNL     1      -4.925  12.694  22.823  0.00  0.00    +0.000 HD
ENDBRANCH   5  10
BRANCH   6  20
ATOM     20  C   UNL     1      -0.582  11.534  22.200  0.00  0.00    +0.000 A 
ATOM     21  C   UNL     1       0.215  11.325  21.064  0.00  0.00    +0.000 A 
ATOM     22  C   UNL     1       0.718  10.059  20.751  0.00  0.00    +0.000 A 
ATOM     23  C   UNL     1       0.463   8.992  21.602  0.00  0.00    +0.000 A 
ATOM     24 CL   UNL     1       1.105   7.440  21.233  0.00  0.00    +0.000 Cl
ATOM     25  C   UNL     1      -0.296   9.181  22.754  0.00  0.00    +0.000 A 
ATOM     26  C   UNL     1      -0.820  10.448  23.051  0.00  0.00    +0.000 A 
ENDBRANCH   6  20
TORSDOF 2
ENDMDL
MODEL 9
REMARK VINA RESULT:      -6.4      3.767      5.723
REMARK  Name = 
REMARK  3 active torsions:
REMARK  status: ('A' for Active; 'I' for Inactive)
REMARK    1  A    between atoms: C_1  and  C_2
REMARK    2  A    between atoms: C_5  and  C_6
REMARK    3  A    between atoms: C_15  and  C_16
REMARK                            x       y       z     vdW  Elec       q    Type
REMARK                         _______ _______ _______ _____ _____    ______ ____
ROOT
ATOM      1  C   UNL     1      -0.697  16.303  26.478  0.00  0.00    +0.000 C 
ATOM      2  C   UNL     1      -1.544  15.753  25.379  0.00  0.00    +0.000 A 
ATOM      3  N   UNL     1      -1.232  14.685  24.697  0.00  0.00    +0.000 NA
ATOM      4  N   UNL     1      -2.248  14.524  23.803  0.00  0.00    +0.000 N 
ATOM      5  C   UNL     1      -2.472  13.583  22.837  0.00  0.00    +0.000 A 
ATOM      6  C   UNL     1      -3.736  13.914  22.339  0.00  0.00    +0.000 A 
ATOM      7  N   UNL     1      -4.228  15.074  22.941  0.00  0.00    +0.000 NA
ATOM      8  C   UNL     1      -3.296  15.383  23.795  0.00  0.00    +0.000 A 
ATOM      9  S   UNL     1      -3.066  16.587  24.991  0.00  0.00    +0.000 S 
ENDROOT
BRANCH   5  10
ATOM     10  C   UNL     1      -1.551  12.546  22.521  0.00  0.00    +0.000 A 
ATOM     11  N   UNL     1      -0.854  12.487  21.409  0.00  0.00    +0.000 NA
ATOM     12  C   UNL     1      -0.254  11.256  21.413  0.00  0.00    +0.000 A 
ATOM     13  C   UNL     1       0.527  10.646  20.426  0.00  0.00    +0.000 A 
ATOM     14  C   UNL     1       0.994   9.347  20.654  0.00  0.00    +0.000 A 
ATOM     15  C   UNL     1       0.700   8.682  21.848  0.00  0.00    +0.000 A 
ATOM     16  C   UNL     1      -0.073   9.282  22.851  0.00  0.00    +0.000 A 
ATOM     17  C   UNL     1      -0.537  10.571  22.589  0.00  0.00    +0.000 A 
ATOM     18  N   UNL     1      -1.332  11.437  23.298  0.00  0.00    +0.000 N 
ATOM     19  H   UNL     1      -1.756  11.263  24.199  0.00  0.00    +0.000 HD
ENDBRANCH   5  10
BRANCH   6  20
ATOM     20  C   UNL     1      -4.524  13.162  21.365  0.00  0.00    +0.000 A 
ATOM     21  C   UNL     1      -4.031  12.875  20.083  0.00  0.00    +0.000 A 
ATOM     22  C   UNL     1      -4.793  12.163  19.153  0.00  0.00    +0.000 A 
ATOM     23  C   UNL     1      -6.047  11.690  19.514  0.00  0.00    +0.000 A 
ATOM     24 CL   UNL     1      -6.976  10.790  18.380  0.00  0.00    +0.000 Cl
ATOM     25  C   UNL     1      -6.545  11.933  20.793  0.00  0.00    +0.000 A 
ATOM     26  C   UNL     1      -5.787  12.669  21.715  0.00  0.00    +0.000 A 
ENDBRANCH   6  20
TORSDOF 2
ENDMDL
