MODEL 1
REMARK VINA RESULT:      -7.8      0.000      0.000
REMARK  Name = 
REMARK  7 active torsions:
REMARK  status: ('A' for Active; 'I' for Inactive)
REMARK    1  A    between atoms: C_1  and  C_2
REMARK    2  A    between atoms: C_4  and  C_5
REMARK    3  A    between atoms: C_5  and  N_6
REMARK    4  A    between atoms: C_9  and  C_10
REMARK    5  A    between atoms: C_10  and  N_11
REMARK    6  A    between atoms: C_12  and  C_14
REMARK    7  A    between atoms: C_14  and  N_15
REMARK                            x       y       z     vdW  Elec       q    Type
REMARK                         _______ _______ _______ _____ _____    ______ ____
ROOT
ATOM      1  N   UNL     1       4.523   4.587  17.193  0.00  0.00    +0.000 NA
ATOM      2  C   UNL     1       4.210   6.023  17.265  0.00  0.00    +0.000 C 
ATOM      3  C   UNL     1       4.988   6.703  16.152  0.00  0.00    +0.000 C 
ATOM      4  C   UNL     1       6.218   5.820  15.978  0.00  0.00    +0.000 C 
ATOM      5  C   UNL     1       5.656   4.424  16.264  0.00  0.00    +0.000 C 
ENDROOT
BRANCH   1   6
ATOM      6  C   UNL     1       3.383   3.725  16.841  0.00  0.00    +0.000 C 
BRANCH   6  10
ATOM      7  C   UNL     1       1.404   2.875  21.476  0.00  0.00    +0.000 C 
ATOM      8  C   UNL     1       1.803   2.796  20.048  0.00  0.00    +0.000 A 
ATOM      9  C   UNL     1       2.197   3.849  19.188  0.00  0.00    +0.000 A 
ATOM     10  C   UNL     1       2.664   3.224  18.049  0.00  0.00    +0.000 A 
ATOM     11  N   UNL     1       2.356   1.903  18.217  0.00  0.00    +0.000 N 
ATOM     12  N   UNL     1       1.870   1.609  19.435  0.00  0.00    +0.000 NA
ATOM     13  H   UNL     1       2.537   1.151  17.560  0.00  0.00    +0.000 HD
ENDBRANCH   6  10
ENDBRANCH   1   6
BRANCH   4  14
ATOM     14  C   UNL     1       7.340   6.230  16.941  0.00  0.00    +0.000 C 
BRANCH  14  15
ATOM     15  N   UNL     1       7.497   7.666  17.027  0.00  0.00    +0.000 N 
ATOM     16  C   UNL     1       8.126   8.273  18.081  0.00  0.00    +0.000 C 
ATOM     17  O   UNL     1       8.675   7.652  18.982  0.00  0.00    +0.000 OA
ATOM     18  H   UNL     1       6.965   8.281  16.409  0.00  0.00    +0.000 HD
BRANCH  16  19
ATOM     19  C   UNL     1       8.150   9.807  18.025  0.00  0.00    +0.000 C 
BRANCH  19  20
ATOM     20  N   UNL     1       9.432  10.406  18.503  0.00  0.00    +0.000 NA
ATOM     21  C   UNL     1       9.817  11.572  17.696  0.00  0.00    +0.000 C 
ATOM     22  C   UNL     1      11.333  11.798  17.711  0.00  0.00    +0.000 C 
ATOM     23  C   UNL     1      11.878  12.490  18.953  0.00  0.00    +0.000 C 
ATOM     24  C   UNL     1      11.591  11.753  20.253  0.00  0.00    +0.000 C 
ATOM     25  C   UNL     1      10.112  11.787  20.605  0.00  0.00    +0.000 C 
ATOM     26  C   UNL     1       9.272  10.689  19.944  0.00  0.00    +0.000 C 
ENDBRANCH  19  20
ENDBRANCH  16  19
ENDBRANCH  14  15
ENDBRANCH   4  14
TORSDOF 6
ENDMDL
MODEL 2
REMARK VINA RESULT:      -7.6      3.976      7.679
REMARK  Name = 
REMARK  7 active torsions:
REMARK  status: ('A' for Active; 'I' for Inactive)
REMARK    1  A    between atoms: C_1  and  C_2
REMARK    2  A    between atoms: C_4  and  C_5
REMARK    3  A    between atoms: C_5  and  N_6
REMARK    4  A    between atoms: C_9  and  C_10
REMARK    5  A    between atoms: C_10  and  N_11
REMARK    6  A    between atoms: C_12  and  C_14
REMARK    7  A    between atoms: C_14  and  N_15
REMARK                            x       y       z     vdW  Elec       q    Type
REMARK                         _______ _______ _______ _____ _____    ______ ____
ROOT
ATOM      1  N   UNL     1       3.952   3.665  17.831  0.00  0.00    +0.000 NA
ATOM      2  C   UNL     1       4.039   2.815  19.029  0.00  0.00    +0.000 C 
ATOM      3  C   UNL     1       2.825   1.902  19.013  0.00  0.00    +0.000 C 
ATOM      4  C   UNL     1       1.768   2.717  18.277  0.00  0.00    +0.000 C 
ATOM      5  C   UNL     1       2.608   3.484  17.252  0.00  0.00    +0.000 C 
ENDROOT
BRANCH   1   6
ATOM      6  C   UNL     1       5.021   3.446  16.842  0.00  0.00    +0.000 C 
BRANCH   6  10
ATOM      7  C   UNL     1       7.753   7.702  17.579  0.00  0.00    +0.000 C 
ATOM      8  C   UNL     1       7.216   6.407  17.091  0.00  0.00    +0.000 A 
ATOM      9  C   UNL     1       6.405   5.477  17.785  0.00  0.00    +0.000 A 
ATOM     10  C   UNL     1       6.011   4.563  16.829  0.00  0.00    +0.000 A 
ATOM     11  N   UNL     1       6.734   4.882  15.714  0.00  0.00    +0.000 N 
ATOM     12  N   UNL     1       7.441   6.017  15.831  0.00  0.00    +0.000 NA
ATOM     13  H   UNL     1       6.712   4.402  14.820  0.00  0.00    +0.000 HD
ENDBRANCH   6  10
ENDBRANCH   1   6
BRANCH   4  14
ATOM     14  C   UNL     1       1.000   3.633  19.239  0.00  0.00    +0.000 C 
BRANCH  14  15
ATOM     15  N   UNL     1       1.439   5.010  19.159  0.00  0.00    +0.000 N 
ATOM     16  C   UNL     1       1.996   5.665  20.225  0.00  0.00    +0.000 C 
ATOM     17  O   UNL     1       2.241   5.119  21.293  0.00  0.00    +0.000 OA
ATOM     18  H   UNL     1       1.161   5.595  18.370  0.00  0.00    +0.000 HD
BRANCH  16  19
ATOM     19  C   UNL     1       2.353   7.136  19.968  0.00  0.00    +0.000 C 
BRANCH  19  20
ATOM     20  N   UNL     1       1.252   8.089  20.303  0.00  0.00    +0.000 NA
ATOM     21  C   UNL     1       1.340   8.543  21.698  0.00  0.00    +0.000 C 
ATOM     22  C   UNL     1      -0.031   8.957  22.248  0.00  0.00    +0.000 C 
ATOM     23  C   UNL     1      -0.507  10.343  21.836  0.00  0.00    +0.000 C 
ATOM     24  C   UNL     1      -0.627  10.539  20.331  0.00  0.00    +0.000 C 
ATOM     25  C   UNL     1       0.736  10.559  19.656  0.00  0.00    +0.000 C 
ATOM     26  C   UNL     1       1.296   9.176  19.305  0.00  0.00    +0.000 C 
ENDBRANCH  19  20
ENDBRANCH  16  19
ENDBRANCH  14  15
ENDBRANCH   4  14
TORSDOF 6
ENDMDL
MODEL 3
REMARK VINA RESULT:      -7.5      5.254      7.677
REMARK  Name = 
REMARK  7 active torsions:
REMARK  status: ('A' for Active; 'I' for Inactive)
REMARK    1  A    between atoms: C_1  and  C_2
REMARK    2  A    between atoms: C_4  and  C_5
REMARK    3  A    between atoms: C_5  and  N_6
REMARK    4  A    between atoms: C_9  and  C_10
REMARK    5  A    between atoms: C_10  and  N_11
REMARK    6  A    between atoms: C_12  and  C_14
REMARK    7  A    between atoms: C_14  and  N_15
REMARK                            x       y       z     vdW  Elec       q    Type
REMARK                         _______ _______ _______ _____ _____    ______ ____
ROOT
ATOM      1  N   UNL     1       4.993   4.550  18.077  0.00  0.00    +0.000 NA
ATOM      2  C   UNL     1       4.603   3.492  19.022  0.00  0.00    +0.000 C 
ATOM      3  C   UNL     1       3.582   2.619  18.313  0.00  0.00    +0.000 C 
ATOM      4  C   UNL     1       2.903   3.574  17.339  0.00  0.00    +0.000 C 
ATOM      5  C   UNL     1       4.054   4.503  16.942  0.00  0.00    +0.000 C 
ENDROOT
BRANCH   1   6
ATOM      6  C   UNL     1       6.399   4.499  17.642  0.00  0.00    +0.000 C 
BRANCH   6  10
ATOM      7  C   UNL     1       6.659   3.764  12.591  0.00  0.00    +0.000 C 
ATOM      8  C   UNL     1       6.683   4.331  13.963  0.00  0.00    +0.000 A 
ATOM      9  C   UNL     1       6.012   3.861  15.118  0.00  0.00    +0.000 A 
ATOM     10  C   UNL     1       6.531   4.603  16.159  0.00  0.00    +0.000 A 
ATOM     11  N   UNL     1       7.306   5.559  15.563  0.00  0.00    +0.000 N 
ATOM     12  N   UNL     1       7.448   5.394  14.237  0.00  0.00    +0.000 NA
ATOM     13  H   UNL     1       7.827   6.294  16.030  0.00  0.00    +0.000 HD
ENDBRANCH   6  10
ENDBRANCH   1   6
BRANCH   4  14
ATOM     14  C   UNL     1       1.732   4.310  18.004  0.00  0.00    +0.000 C 
BRANCH  14  15
ATOM     15  N   UNL     1       2.003   5.719  18.196  0.00  0.00    +0.000 N 
ATOM     16  C   UNL     1       2.109   6.282  19.440  0.00  0.00    +0.000 C 
ATOM     17  O   UNL     1       2.068   5.630  20.476  0.00  0.00    +0.000 OA
ATOM     18  H   UNL     1       1.921   6.372  17.415  0.00  0.00    +0.000 HD
BRANCH  16  19
ATOM     19  C   UNL     1       2.348   7.798  19.447  0.00  0.00    +0.000 C 
BRANCH  19  20
ATOM     20  N   UNL     1       1.222   8.581  20.039  0.00  0.00    +0.000 NA
ATOM     21  C   UNL     1       1.366   8.716  21.495  0.00  0.00    +0.000 C 
ATOM     22  C   UNL     1       0.010   8.910  22.185  0.00  0.00    +0.000 C 
ATOM     23  C   UNL     1      -0.559  10.320  22.120  0.00  0.00    +0.000 C 
ATOM     24  C   UNL     1      -0.775  10.840  20.706  0.00  0.00    +0.000 C 
ATOM     25  C   UNL     1       0.544  11.096  19.993  0.00  0.00    +0.000 C 
ATOM     26  C   UNL     1       1.152   9.865  19.313  0.00  0.00    +0.000 C 
ENDBRANCH  19  20
ENDBRANCH  16  19
ENDBRANCH  14  15
ENDBRANCH   4  14
TORSDOF 6
ENDMDL
MODEL 4
REMARK VINA RESULT:      -7.5      5.404      8.038
REMARK  Name = 
REMARK  7 active torsions:
REMARK  status: ('A' for Active; 'I' for Inactive)
REMARK    1  A    between atoms: C_1  and  C_2
REMARK    2  A    between atoms: C_4  and  C_5
REMARK    3  A    between atoms: C_5  and  N_6
REMARK    4  A    between atoms: C_9  and  C_10
REMARK    5  A    between atoms: C_10  and  N_11
REMARK    6  A    between atoms: C_12  and  C_14
REMARK    7  A    between atoms: C_14  and  N_15
REMARK                            x       y       z     vdW  Elec       q    Type
REMARK                         _______ _______ _______ _____ _____    ______ ____
ROOT
ATOM      1  N   UNL     1       5.286   5.769  17.981  0.00  0.00    +0.000 NA
ATOM      2  C   UNL     1       4.545   5.566  19.236  0.00  0.00    +0.000 C 
ATOM      3  C   UNL     1       3.068   5.667  18.901  0.00  0.00    +0.000 C 
ATOM      4  C   UNL     1       3.032   6.610  17.704  0.00  0.00    +0.000 C 
ATOM      5  C   UNL     1       4.327   6.250  16.970  0.00  0.00    +0.000 C 
ENDROOT
BRANCH   1   6
ATOM      6  C   UNL     1       6.043   4.594  17.517  0.00  0.00    +0.000 C 
BRANCH   6  10
ATOM      7  C   UNL     1       6.713   3.785  12.515  0.00  0.00    +0.000 C 
ATOM      8  C   UNL     1       6.683   4.352  13.887  0.00  0.00    +0.000 A 
ATOM      9  C   UNL     1       5.827   4.007  14.960  0.00  0.00    +0.000 A 
ATOM     10  C   UNL     1       6.347   4.663  16.057  0.00  0.00    +0.000 A 
ATOM     11  N   UNL     1       7.324   5.476  15.555  0.00  0.00    +0.000 N 
ATOM     12  N   UNL     1       7.577   5.279  14.250  0.00  0.00    +0.000 NA
ATOM     13  H   UNL     1       7.906   6.121  16.080  0.00  0.00    +0.000 HD
ENDBRANCH   6  10
ENDBRANCH   1   6
BRANCH   4  14
ATOM     14  C   UNL     1       2.975   8.077  18.150  0.00  0.00    +0.000 C 
BRANCH  14  15
ATOM     15  N   UNL     1       1.617   8.548  18.326  0.00  0.00    +0.000 N 
ATOM     16  C   UNL     1       1.296   9.880  18.316  0.00  0.00    +0.000 C 
ATOM     17  O   UNL     1       2.110  10.763  18.077  0.00  0.00    +0.000 OA
ATOM     18  H   UNL     1       0.891   7.916  18.665  0.00  0.00    +0.000 HD
BRANCH  16  19
ATOM     19  C   UNL     1      -0.185  10.191  18.570  0.00  0.00    +0.000 C 
BRANCH  19  20
ATOM     20  N   UNL     1      -0.559  10.199  20.016  0.00  0.00    +0.000 NA
ATOM     21  C   UNL     1       0.371   9.390  20.817  0.00  0.00    +0.000 C 
ATOM     22  C   UNL     1      -0.293   8.855  22.091  0.00  0.00    +0.000 C 
ATOM     23  C   UNL     1      -0.402   9.850  23.238  0.00  0.00    +0.000 C 
ATOM     24  C   UNL     1      -1.189  11.108  22.899  0.00  0.00    +0.000 C 
ATOM     25  C   UNL     1      -0.445  11.987  21.907  0.00  0.00    +0.000 C 
ATOM     26  C   UNL     1      -0.655  11.611  20.436  0.00  0.00    +0.000 C 
ENDBRANCH  19  20
ENDBRANCH  16  19
ENDBRANCH  14  15
ENDBRANCH   4  14
TORSDOF 6
ENDMDL
MODEL 5
REMARK VINA RESULT:      -7.4      5.452      8.510
REMARK  Name = 
REMARK  7 active torsions:
REMARK  status: ('A' for Active; 'I' for Inactive)
REMARK    1  A    between atoms: C_1  and  C_2
REMARK    2  A    between atoms: C_4  and  C_5
REMARK    3  A    between atoms: C_5  and  N_6
REMARK    4  A    between atoms: C_9  and  C_10
REMARK    5  A    between atoms: C_10  and  N_11
REMARK    6  A    between atoms: C_12  and  C_14
REMARK    7  A    between atoms: C_14  and  N_15
REMARK                            x       y       z     vdW  Elec       q    Type
REMARK                         _______ _______ _______ _____ _____    ______ ____
ROOT
ATOM      1  N   UNL     1       5.304   5.137  18.573  0.00  0.00    +0.000 NA
ATOM      2  C   UNL     1       4.197   4.182  18.738  0.00  0.00    +0.000 C 
ATOM      3  C   UNL     1       3.099   4.604  17.777  0.00  0.00    +0.000 C 
ATOM      4  C   UNL     1       3.285   6.112  17.656  0.00  0.00    +0.000 C 
ATOM      5  C   UNL     1       4.806   6.259  17.756  0.00  0.00    +0.000 C 
ENDROOT
BRANCH   1   6
ATOM      6  C   UNL     1       6.542   4.556  18.027  0.00  0.00    +0.000 C 
BRANCH   6  10
ATOM      7  C   UNL     1       6.323   3.742  12.986  0.00  0.00    +0.000 C 
ATOM      8  C   UNL     1       6.535   4.310  14.341  0.00  0.00    +0.000 A 
ATOM      9  C   UNL     1       5.880   3.967  15.549  0.00  0.00    +0.000 A 
ATOM     10  C   UNL     1       6.584   4.623  16.537  0.00  0.00    +0.000 A 
ATOM     11  N   UNL     1       7.460   5.434  15.870  0.00  0.00    +0.000 N 
ATOM     12  N   UNL     1       7.480   5.236  14.541  0.00  0.00    +0.000 NA
ATOM     13  H   UNL     1       8.126   6.078  16.285  0.00  0.00    +0.000 HD
ENDBRANCH   6  10
ENDBRANCH   1   6
BRANCH   4  14
ATOM     14  C   UNL     1       2.529   6.859  18.763  0.00  0.00    +0.000 C 
BRANCH  14  15
ATOM     15  N   UNL     1       2.055   8.156  18.330  0.00  0.00    +0.000 N 
ATOM     16  C   UNL     1       1.300   8.967  19.134  0.00  0.00    +0.000 C 
ATOM     17  O   UNL     1       1.040   8.699  20.301  0.00  0.00    +0.000 OA
ATOM     18  H   UNL     1       2.096   8.417  17.344  0.00  0.00    +0.000 HD
BRANCH  16  19
ATOM     19  C   UNL     1       0.844  10.282  18.486  0.00  0.00    +0.000 C 
BRANCH  19  20
ATOM     20  N   UNL     1      -0.583  10.624  18.759  0.00  0.00    +0.000 NA
ATOM     21  C   UNL     1      -0.715  11.979  19.314  0.00  0.00    +0.000 C 
ATOM     22  C   UNL     1      -1.979  12.121  20.172  0.00  0.00    +0.000 C 
ATOM     23  C   UNL     1      -3.274  12.321  19.398  0.00  0.00    +0.000 C 
ATOM     24  C   UNL     1      -3.600  11.195  18.427  0.00  0.00    +0.000 C 
ATOM     25  C   UNL     1      -2.635  11.171  17.251  0.00  0.00    +0.000 C 
ATOM     26  C   UNL     1      -1.334  10.404  17.507  0.00  0.00    +0.000 C 
ENDBRANCH  19  20
ENDBRANCH  16  19
ENDBRANCH  14  15
ENDBRANCH   4  14
TORSDOF 6
ENDMDL
MODEL 6
REMARK VINA RESULT:      -7.1      5.051      7.326
REMARK  Name = 
REMARK  7 active torsions:
REMARK  status: ('A' for Active; 'I' for Inactive)
REMARK    1  A    between atoms: C_1  and  C_2
REMARK    2  A    between atoms: C_4  and  C_5
REMARK    3  A    between atoms: C_5  and  N_6
REMARK    4  A    between atoms: C_9  and  C_10
REMARK    5  A    between atoms: C_10  and  N_11
REMARK    6  A    between atoms: C_12  and  C_14
REMARK    7  A    between atoms: C_14  and  N_15
REMARK                            x       y       z     vdW  Elec       q    Type
REMARK                         _______ _______ _______ _____ _____    ______ ____
ROOT
ATOM      1  N   UNL     1       5.743   5.244  17.936  0.00  0.00    +0.000 NA
ATOM      2  C   UNL     1       5.520   4.437  19.146  0.00  0.00    +0.000 C 
ATOM      3  C   UNL     1       4.324   3.543  18.868  0.00  0.00    +0.000 C 
ATOM      4  C   UNL     1       3.495   4.346  17.873  0.00  0.00    +0.000 C 
ATOM      5  C   UNL     1       4.574   5.061  17.056  0.00  0.00    +0.000 C 
ENDROOT
BRANCH   1   6
ATOM      6  C   UNL     1       7.013   4.972  17.241  0.00  0.00    +0.000 C 
BRANCH   6  10
ATOM      7  C   UNL     1       6.144   3.342  12.475  0.00  0.00    +0.000 C 
ATOM      8  C   UNL     1       6.484   4.139  13.681  0.00  0.00    +0.000 A 
ATOM      9  C   UNL     1       6.066   3.929  15.018  0.00  0.00    +0.000 A 
ATOM     10  C   UNL     1       6.823   4.803  15.770  0.00  0.00    +0.000 A 
ATOM     11  N   UNL     1       7.480   5.581  14.858  0.00  0.00    +0.000 N 
ATOM     12  N   UNL     1       7.325   5.175  13.587  0.00  0.00    +0.000 NA
ATOM     13  H   UNL     1       8.114   6.347  15.060  0.00  0.00    +0.000 HD
ENDBRANCH   6  10
ENDBRANCH   1   6
BRANCH   4  14
ATOM     14  C   UNL     1       2.540   5.309  18.591  0.00  0.00    +0.000 C 
BRANCH  14  15
ATOM     15  N   UNL     1       2.522   6.623  17.985  0.00  0.00    +0.000 N 
ATOM     16  C   UNL     1       2.268   7.760  18.705  0.00  0.00    +0.000 C 
ATOM     17  O   UNL     1       2.122   7.763  19.921  0.00  0.00    +0.000 OA
ATOM     18  H   UNL     1       2.496   6.722  16.969  0.00  0.00    +0.000 HD
BRANCH  16  19
ATOM     19  C   UNL     1       2.239   9.056  17.883  0.00  0.00    +0.000 C 
BRANCH  19  20
ATOM     20  N   UNL     1       1.540  10.185  18.565  0.00  0.00    +0.000 NA
ATOM     21  C   UNL     1       2.052  11.487  18.116  0.00  0.00    +0.000 C 
ATOM     22  C   UNL     1       1.862  12.572  19.182  0.00  0.00    +0.000 C 
ATOM     23  C   UNL     1       0.462  13.163  19.269  0.00  0.00    +0.000 C 
ATOM     24  C   UNL     1      -0.628  12.143  19.566  0.00  0.00    +0.000 C 
ATOM     25  C   UNL     1      -0.853  11.201  18.393  0.00  0.00    +0.000 C 
ATOM     26  C   UNL     1       0.091   9.995  18.353  0.00  0.00    +0.000 C 
ENDBRANCH  19  20
ENDBRANCH  16  19
ENDBRANCH  14  15
ENDBRANCH   4  14
TORSDOF 6
ENDMDL
MODEL 7
REMARK VINA RESULT:      -7.1      3.601      7.466
REMARK  Name = 
REMARK  7 active torsions:
REMARK  status: ('A' for Active; 'I' for Inactive)
REMARK    1  A    between atoms: C_1  and  C_2
REMARK    2  A    between atoms: C_4  and  C_5
REMARK    3  A    between atoms: C_5  and  N_6
REMARK    4  A    between atoms: C_9  and  C_10
REMARK    5  A    between atoms: C_10  and  N_11
REMARK    6  A    between atoms: C_12  and  C_14
REMARK    7  A    between atoms: C_14  and  N_15
REMARK                            x       y       z     vdW  Elec       q    Type
REMARK                         _______ _______ _______ _____ _____    ______ ____
ROOT
ATOM      1  N   UNL     1       3.857   3.856  17.955  0.00  0.00    +0.000 NA
ATOM      2  C   UNL     1       4.787   3.329  18.966  0.00  0.00    +0.000 C 
ATOM      3  C   UNL     1       4.375   1.894  19.243  0.00  0.00    +0.000 C 
ATOM      4  C   UNL     1       2.876   1.889  18.972  0.00  0.00    +0.000 C 
ATOM      5  C   UNL     1       2.753   2.889  17.819  0.00  0.00    +0.000 C 
ENDROOT
BRANCH   1   6
ATOM      6  C   UNL     1       4.477   4.181  16.659  0.00  0.00    +0.000 C 
BRANCH   6  10
ATOM      7  C   UNL     1       7.687   8.057  17.557  0.00  0.00    +0.000 C 
ATOM      8  C   UNL     1       7.067   6.769  17.155  0.00  0.00    +0.000 A 
ATOM      9  C   UNL     1       5.886   6.170  17.655  0.00  0.00    +0.000 A 
ATOM     10  C   UNL     1       5.638   5.107  16.810  0.00  0.00    +0.000 A 
ATOM     11  N   UNL     1       6.742   5.027  16.008  0.00  0.00    +0.000 N 
ATOM     12  N   UNL     1       7.605   6.044  16.167  0.00  0.00    +0.000 NA
ATOM     13  H   UNL     1       6.911   4.343  15.277  0.00  0.00    +0.000 HD
ENDBRANCH   6  10
ENDBRANCH   1   6
BRANCH   4  14
ATOM     14  C   UNL     1       2.081   2.301  20.219  0.00  0.00    +0.000 C 
BRANCH  14  15
ATOM     15  N   UNL     1       2.378   3.654  20.640  0.00  0.00    +0.000 N 
ATOM     16  C   UNL     1       1.451   4.660  20.582  0.00  0.00    +0.000 C 
ATOM     17  O   UNL     1       0.285   4.479  20.252  0.00  0.00    +0.000 OA
ATOM     18  H   UNL     1       3.343   3.944  20.801  0.00  0.00    +0.000 HD
BRANCH  16  19
ATOM     19  C   UNL     1       1.962   6.039  21.023  0.00  0.00    +0.000 C 
BRANCH  19  20
ATOM     20  N   UNL     1       1.560   7.149  20.108  0.00  0.00    +0.000 NA
ATOM     21  C   UNL     1       1.587   8.448  20.794  0.00  0.00    +0.000 C 
ATOM     22  C   UNL     1       0.618   9.449  20.154  0.00  0.00    +0.000 C 
ATOM     23  C   UNL     1       1.118  10.120  18.882  0.00  0.00    +0.000 C 
ATOM     24  C   UNL     1       1.459   9.151  17.759  0.00  0.00    +0.000 C 
ATOM     25  C   UNL     1       2.696   8.328  18.083  0.00  0.00    +0.000 C 
ATOM     26  C   UNL     1       2.428   7.071  18.917  0.00  0.00    +0.000 C 
ENDBRANCH  19  20
ENDBRANCH  16  19
ENDBRANCH  14  15
ENDBRANCH   4  14
TORSDOF 6
ENDMDL
MODEL 8
REMARK VINA RESULT:      -7.1      3.973      6.588
REMARK  Name = 
REMARK  7 active torsions:
REMARK  status: ('A' for Active; 'I' for Inactive)
REMARK    1  A    between atoms: C_1  and  C_2
REMARK    2  A    between atoms: C_4  and  C_5
REMARK    3  A    between atoms: C_5  and  N_6
REMARK    4  A    between atoms: C_9  and  C_10
REMARK    5  A    between atoms: C_10  and  N_11
REMARK    6  A    between atoms: C_12  and  C_14
REMARK    7  A    between atoms: C_14  and  N_15
REMARK                            x       y       z     vdW  Elec       q    Type
REMARK                         _______ _______ _______ _____ _____    ______ ____
ROOT
ATOM      1  N   UNL     1       2.226   4.897  20.051  0.00  0.00    +0.000 NA
ATOM      2  C   UNL     1       0.958   4.150  20.068  0.00  0.00    +0.000 C 
ATOM      3  C   UNL     1       1.208   2.871  20.847  0.00  0.00    +0.000 C 
ATOM      4  C   UNL     1       2.686   2.586  20.613  0.00  0.00    +0.000 C 
ATOM      5  C   UNL     1       3.281   3.996  20.552  0.00  0.00    +0.000 C 
ENDROOT
BRANCH   1   6
ATOM      6  C   UNL     1       2.196   6.178  20.777  0.00  0.00    +0.000 C 
BRANCH   6  10
ATOM      7  C   UNL     1       0.862  10.354  18.149  0.00  0.00    +0.000 C 
ATOM      8  C   UNL     1       1.535   9.135  18.663  0.00  0.00    +0.000 A 
ATOM      9  C   UNL     1       1.452   8.567  19.957  0.00  0.00    +0.000 A 
ATOM     10  C   UNL     1       2.084   7.344  19.852  0.00  0.00    +0.000 A 
ATOM     11  N   UNL     1       2.647   7.341  18.606  0.00  0.00    +0.000 N 
ATOM     12  N   UNL     1       2.298   8.395  17.850  0.00  0.00    +0.000 NA
ATOM     13  H   UNL     1       3.208   6.601  18.197  0.00  0.00    +0.000 HD
ENDBRANCH   6  10
ENDBRANCH   1   6
BRANCH   4  14
ATOM     14  C   UNL     1       2.903   1.781  19.325  0.00  0.00    +0.000 C 
BRANCH  14  15
ATOM     15  N   UNL     1       3.903   2.375  18.463  0.00  0.00    +0.000 N 
ATOM     16  C   UNL     1       3.582   2.990  17.283  0.00  0.00    +0.000 C 
ATOM     17  O   UNL     1       2.428   3.159  16.908  0.00  0.00    +0.000 OA
ATOM     18  H   UNL     1       4.894   2.175  18.608  0.00  0.00    +0.000 HD
BRANCH  16  19
ATOM     19  C   UNL     1       4.779   3.515  16.478  0.00  0.00    +0.000 C 
BRANCH  19  20
ATOM     20  N   UNL     1       5.469   4.677  17.116  0.00  0.00    +0.000 NA
ATOM     21  C   UNL     1       6.927   4.497  17.127  0.00  0.00    +0.000 C 
ATOM     22  C   UNL     1       7.586   5.273  18.274  0.00  0.00    +0.000 C 
ATOM     23  C   UNL     1       7.781   6.763  18.027  0.00  0.00    +0.000 C 
ATOM     24  C   UNL     1       6.491   7.521  17.747  0.00  0.00    +0.000 C 
ATOM     25  C   UNL     1       5.898   7.144  16.398  0.00  0.00    +0.000 C 
ATOM     26  C   UNL     1       5.011   5.894  16.417  0.00  0.00    +0.000 C 
ENDBRANCH  19  20
ENDBRANCH  16  19
ENDBRANCH  14  15
ENDBRANCH   4  14
TORSDOF 6
ENDMDL
MODEL 9
REMARK VINA RESULT:      -7.0      5.168      8.002
REMARK  Name = 
REMARK  7 active torsions:
REMARK  status: ('A' for Active; 'I' for Inactive)
REMARK    1  A    between atoms: C_1  and  C_2
REMARK    2  A    between atoms: C_4  and  C_5
REMARK    3  A    between atoms: C_5  and  N_6
REMARK    4  A    between atoms: C_9  and  C_10
REMARK    5  A    between atoms: C_10  and  N_11
REMARK    6  A    between atoms: C_12  and  C_14
REMARK    7  A    between atoms: C_14  and  N_15
REMARK                            x       y       z     vdW  Elec       q    Type
REMARK                         _______ _______ _______ _____ _____    ______ ____
ROOT
ATOM      1  N   UNL     1       5.958   5.865  17.704  0.00  0.00    +0.000 NA
ATOM      2  C   UNL     1       4.954   5.430  18.689  0.00  0.00    +0.000 C 
ATOM      3  C   UNL     1       3.590   5.658  18.062  0.00  0.00    +0.000 C 
ATOM      4  C   UNL     1       3.816   6.834  17.120  0.00  0.00    +0.000 C 
ATOM      5  C   UNL     1       5.247   6.588  16.634  0.00  0.00    +0.000 C 
ENDROOT
BRANCH   1   6
ATOM      6  C   UNL     1       6.812   4.787  17.178  0.00  0.00    +0.000 C 
BRANCH   6  10
ATOM      7  C   UNL     1       6.300   3.382  12.291  0.00  0.00    +0.000 C 
ATOM      8  C   UNL     1       6.555   4.119  13.554  0.00  0.00    +0.000 A 
ATOM      9  C   UNL     1       6.029   3.859  14.843  0.00  0.00    +0.000 A 
ATOM     10  C   UNL     1       6.736   4.686  15.691  0.00  0.00    +0.000 A 
ATOM     11  N   UNL     1       7.474   5.491  14.869  0.00  0.00    +0.000 N 
ATOM     12  N   UNL     1       7.414   5.145  13.572  0.00  0.00    +0.000 NA
ATOM     13  H   UNL     1       8.100   6.238  15.154  0.00  0.00    +0.000 HD
ENDBRANCH   6  10
ENDBRANCH   1   6
BRANCH   4  14
ATOM     14  C   UNL     1       3.645   8.174  17.849  0.00  0.00    +0.000 C 
BRANCH  14  15
ATOM     15  N   UNL     1       2.270   8.428  18.222  0.00  0.00    +0.000 N 
ATOM     16  C   UNL     1       1.723   9.683  18.195  0.00  0.00    +0.000 C 
ATOM     17  O   UNL     1       2.323  10.666  17.778  0.00  0.00    +0.000 OA
ATOM     18  H   UNL     1       1.727   7.714  18.709  0.00  0.00    +0.000 HD
BRANCH  16  19
ATOM     19  C   UNL     1       0.267   9.767  18.674  0.00  0.00    +0.000 C 
BRANCH  19  20
ATOM     20  N   UNL     1       0.130  10.081  20.128  0.00  0.00    +0.000 NA
ATOM     21  C   UNL     1      -1.057  10.907  20.390  0.00  0.00    +0.000 C 
ATOM     22  C   UNL     1      -0.891  11.753  21.659  0.00  0.00    +0.000 C 
ATOM     23  C   UNL     1      -1.126  11.016  22.970  0.00  0.00    +0.000 C 
ATOM     24  C   UNL     1      -0.206   9.822  23.186  0.00  0.00    +0.000 C 
ATOM     25  C   UNL     1      -0.524   8.685  22.228  0.00  0.00    +0.000 C 
ATOM     26  C   UNL     1       0.151   8.797  20.857  0.00  0.00    +0.000 C 
ENDBRANCH  19  20
ENDBRANCH  16  19
ENDBRANCH  14  15
ENDBRANCH   4  14
TORSDOF 6
ENDMDL
