MODEL 1
REMARK VINA RESULT:      -8.8      0.000      0.000
REMARK  Name = 
REMARK  9 active torsions:
REMARK  status: ('A' for Active; 'I' for Inactive)
REMARK    1  A    between atoms: C_1  and  C_2
REMARK    2  A    between atoms: C_2  and  S_3
REMARK    3  A    between atoms: C_2  and  C_20
REMARK    4  A    between atoms: S_3  and  C_4
REMARK    5  A    between atoms: C_9  and  N_10
REMARK    6  A    between atoms: N_11  and  C_12
REMARK    7  A    between atoms: C_12  and  C_13
REMARK    8  A    between atoms: C_13  and  C_14
REMARK    9  A    between atoms: N_22  and  C_23
REMARK                            x       y       z     vdW  Elec       q    Type
REMARK                         _______ _______ _______ _____ _____    ______ ____
ROOT
ATOM      1  C   UNL     1       5.737   4.554  18.619  0.00  0.00    +0.000 A 
ATOM      2  N   UNL     1       6.431   4.542  19.710  0.00  0.00    +0.000 NA
ATOM      3  C   UNL     1       7.515   5.368  19.821  0.00  0.00    +0.000 A 
ATOM      4  O   UNL     1       8.293   5.334  20.770  0.00  0.00    +0.000 OA
ATOM      5  C   UNL     1       7.729   6.376  18.769  0.00  0.00    +0.000 A 
ATOM      6  C   UNL     1       6.966   6.383  17.665  0.00  0.00    +0.000 A 
ATOM      7  N   UNL     1       5.971   5.402  17.523  0.00  0.00    +0.000 N 
ENDROOT
BRANCH   6   8
ATOM      8  N   UNL     1       7.201   7.361  16.714  0.00  0.00    +0.000 N 
ATOM      9  H   UNL     1       6.411   7.560  16.103  0.00  0.00    +0.000 HD
ATOM     10  H   UNL     1       8.053   7.222  16.182  0.00  0.00    +0.000 HD
ENDBRANCH   6   8
BRANCH   1  11
ATOM     11  S   UNL     1       4.352   3.432  18.607  0.00  0.00    +0.000 S 
BRANCH  11  13
ATOM     12  C   UNL     1       2.392   2.909  20.512  0.00  0.00    +0.000 C 
ATOM     13  C   UNL     1       3.296   4.031  19.991  0.00  0.00    +0.000 C 
BRANCH  13  14
ATOM     14  C   UNL     1       2.393   5.183  19.491  0.00  0.00    +0.000 C 
ATOM     15  O   UNL     1       1.384   4.947  18.826  0.00  0.00    +0.000 OA
ATOM     16  N   UNL     1       2.794   6.463  19.864  0.00  0.00    +0.000 N 
ATOM     17  H   UNL     1       3.738   6.552  20.222  0.00  0.00    +0.000 HD
BRANCH  16  18
ATOM     18  C   UNL     1       2.102   7.662  19.553  0.00  0.00    +0.000 A 
ATOM     19  C   UNL     1       2.123   8.255  18.285  0.00  0.00    +0.000 A 
ATOM     20  C   UNL     1       1.487   9.479  18.045  0.00  0.00    +0.000 A 
ATOM     21  C   UNL     1       0.807  10.115  19.077  0.00  0.00    +0.000 A 
ATOM     22 CL   UNL     1       0.067  11.643  18.798  0.00  0.00    +0.000 Cl
ATOM     23  C   UNL     1       0.733   9.520  20.334  0.00  0.00    +0.000 A 
ATOM     24  C   UNL     1       1.369   8.291  20.567  0.00  0.00    +0.000 A 
ENDBRANCH  16  18
ENDBRANCH  13  14
ENDBRANCH  11  13
ENDBRANCH   1  11
BRANCH   7  25
ATOM     25  C   UNL     1       5.152   5.361  16.284  0.00  0.00    +0.000 C 
BRANCH  25  26
ATOM     26  C   UNL     1       5.257   4.022  15.526  0.00  0.00    +0.000 C 
BRANCH  26  27
ATOM     27  C   UNL     1       5.998   4.159  14.210  0.00  0.00    +0.000 A 
ATOM     28  C   UNL     1       7.128   4.982  14.098  0.00  0.00    +0.000 A 
ATOM     29  C   UNL     1       7.814   5.088  12.884  0.00  0.00    +0.000 A 
ATOM     30  C   UNL     1       7.376   4.376  11.769  0.00  0.00    +0.000 A 
ATOM     31  C   UNL     1       6.255   3.554  11.869  0.00  0.00    +0.000 A 
ATOM     32  C   UNL     1       5.573   3.443  13.082  0.00  0.00    +0.000 A 
ENDBRANCH  26  27
ENDBRANCH  25  26
ENDBRANCH   7  25
TORSDOF 8
ENDMDL
MODEL 2
REMARK VINA RESULT:      -8.5      0.878      1.320
REMARK  Name = 
REMARK  9 active torsions:
REMARK  status: ('A' for Active; 'I' for Inactive)
REMARK    1  A    between atoms: C_1  and  C_2
REMARK    2  A    between atoms: C_2  and  S_3
REMARK    3  A    between atoms: C_2  and  C_20
REMARK    4  A    between atoms: S_3  and  C_4
REMARK    5  A    between atoms: C_9  and  N_10
REMARK    6  A    between atoms: N_11  and  C_12
REMARK    7  A    between atoms: C_12  and  C_13
REMARK    8  A    between atoms: C_13  and  C_14
REMARK    9  A    between atoms: N_22  and  C_23
REMARK                            x       y       z     vdW  Elec       q    Type
REMARK                         _______ _______ _______ _____ _____    ______ ____
ROOT
ATOM      1  C   UNL     1       5.969   4.571  17.967  0.00  0.00    +0.000 A 
ATOM      2  N   UNL     1       6.337   4.494  19.205  0.00  0.00    +0.000 NA
ATOM      3  C   UNL     1       7.328   5.320  19.660  0.00  0.00    +0.000 A 
ATOM      4  O   UNL     1       7.815   5.231  20.783  0.00  0.00    +0.000 OA
ATOM      5  C   UNL     1       7.797   6.395  18.770  0.00  0.00    +0.000 A 
ATOM      6  C   UNL     1       7.367   6.467  17.501  0.00  0.00    +0.000 A 
ATOM      7  N   UNL     1       6.474   5.489  17.031  0.00  0.00    +0.000 N 
ENDROOT
BRANCH   6   8
ATOM      8  N   UNL     1       7.829   7.506  16.712  0.00  0.00    +0.000 N 
ATOM      9  H   UNL     1       7.533   8.433  17.011  0.00  0.00    +0.000 HD
ATOM     10  H   UNL     1       7.672   7.370  15.719  0.00  0.00    +0.000 HD
ENDBRANCH   6   8
BRANCH   1  11
ATOM     11  S   UNL     1       4.669   3.442  17.508  0.00  0.00    +0.000 S 
BRANCH  11  13
ATOM     12  C   UNL     1       2.513   2.404  18.928  0.00  0.00    +0.000 C 
ATOM     13  C   UNL     1       3.435   3.626  18.861  0.00  0.00    +0.000 C 
BRANCH  13  14
ATOM     14  C   UNL     1       2.560   4.874  18.596  0.00  0.00    +0.000 C 
ATOM     15  O   UNL     1       1.557   4.799  17.886  0.00  0.00    +0.000 OA
ATOM     16  N   UNL     1       2.978   6.043  19.226  0.00  0.00    +0.000 N 
ATOM     17  H   UNL     1       3.918   6.038  19.605  0.00  0.00    +0.000 HD
BRANCH  16  18
ATOM     18  C   UNL     1       2.312   7.294  19.158  0.00  0.00    +0.000 A 
ATOM     19  C   UNL     1       2.267   8.079  18.000  0.00  0.00    +0.000 A 
ATOM     20  C   UNL     1       1.663   9.341  18.002  0.00  0.00    +0.000 A 
ATOM     21  C   UNL     1       1.082   9.825  19.168  0.00  0.00    +0.000 A 
ATOM     22 CL   UNL     1       0.382  11.397  19.186  0.00  0.00    +0.000 Cl
ATOM     23  C   UNL     1       1.073   9.041  20.319  0.00  0.00    +0.000 A 
ATOM     24  C   UNL     1       1.677   7.774  20.310  0.00  0.00    +0.000 A 
ENDBRANCH  16  18
ENDBRANCH  13  14
ENDBRANCH  11  13
ENDBRANCH   1  11
BRANCH   7  25
ATOM     25  C   UNL     1       6.028   5.522  15.615  0.00  0.00    +0.000 C 
BRANCH  25  26
ATOM     26  C   UNL     1       7.079   4.969  14.631  0.00  0.00    +0.000 C 
BRANCH  26  27
ATOM     27  C   UNL     1       6.455   4.162  13.509  0.00  0.00    +0.000 A 
ATOM     28  C   UNL     1       5.065   3.980  13.436  0.00  0.00    +0.000 A 
ATOM     29  C   UNL     1       4.498   3.247  12.388  0.00  0.00    +0.000 A 
ATOM     30  C   UNL     1       5.313   2.687  11.407  0.00  0.00    +0.000 A 
ATOM     31  C   UNL     1       6.693   2.862  11.469  0.00  0.00    +0.000 A 
ATOM     32  C   UNL     1       7.261   3.598  12.511  0.00  0.00    +0.000 A 
ENDBRANCH  26  27
ENDBRANCH  25  26
ENDBRANCH   7  25
TORSDOF 8
ENDMDL
MODEL 3
REMARK VINA RESULT:      -8.4      0.992      1.439
REMARK  Name = 
REMARK  9 active torsions:
REMARK  status: ('A' for Active; 'I' for Inactive)
REMARK    1  A    between atoms: C_1  and  C_2
REMARK    2  A    between atoms: C_2  and  S_3
REMARK    3  A    between atoms: C_2  and  C_20
REMARK    4  A    between atoms: S_3  and  C_4
REMARK    5  A    between atoms: C_9  and  N_10
REMARK    6  A    between atoms: N_11  and  C_12
REMARK    7  A    between atoms: C_12  and  C_13
REMARK    8  A    between atoms: C_13  and  C_14
REMARK    9  A    between atoms: N_22  and  C_23
REMARK                            x       y       z     vdW  Elec       q    Type
REMARK                         _______ _______ _______ _____ _____    ______ ____
ROOT
ATOM      1  C   UNL     1       5.521   5.000  18.638  0.00  0.00    +0.000 A 
ATOM      2  N   UNL     1       6.163   4.893  19.756  0.00  0.00    +0.000 NA
ATOM      3  C   UNL     1       7.419   5.423  19.858  0.00  0.00    +0.000 A 
ATOM      4  O   UNL     1       8.139   5.265  20.839  0.00  0.00    +0.000 OA
ATOM      5  C   UNL     1       7.909   6.264  18.752  0.00  0.00    +0.000 A 
ATOM      6  C   UNL     1       7.200   6.381  17.618  0.00  0.00    +0.000 A 
ATOM      7  N   UNL     1       5.991   5.676  17.499  0.00  0.00    +0.000 N 
ENDROOT
BRANCH   6   8
ATOM      8  N   UNL     1       7.700   7.194  16.616  0.00  0.00    +0.000 N 
ATOM      9  H   UNL     1       7.103   7.274  15.795  0.00  0.00    +0.000 HD
ATOM     10  H   UNL     1       8.658   6.987  16.357  0.00  0.00    +0.000 HD
ENDBRANCH   6   8
BRANCH   1  11
ATOM     11  S   UNL     1       3.896   4.268  18.642  0.00  0.00    +0.000 S 
BRANCH  11  13
ATOM     12  C   UNL     1       1.868   4.190  20.546  0.00  0.00    +0.000 C 
ATOM     13  C   UNL     1       3.088   5.013  20.119  0.00  0.00    +0.000 C 
BRANCH  13  14
ATOM     14  C   UNL     1       2.607   6.443  19.778  0.00  0.00    +0.000 C 
ATOM     15  O   UNL     1       2.857   6.947  18.683  0.00  0.00    +0.000 OA
ATOM     16  N   UNL     1       1.874   7.081  20.775  0.00  0.00    +0.000 N 
ATOM     17  H   UNL     1       1.911   6.663  21.697  0.00  0.00    +0.000 HD
BRANCH  16  18
ATOM     18  C   UNL     1       1.301   8.375  20.671  0.00  0.00    +0.000 A 
ATOM     19  C   UNL     1       1.194   9.073  19.462  0.00  0.00    +0.000 A 
ATOM     20  C   UNL     1       0.690  10.379  19.420  0.00  0.00    +0.000 A 
ATOM     21  C   UNL     1       0.273  10.994  20.594  0.00  0.00    +0.000 A 
ATOM     22 CL   UNL     1      -0.300  12.615  20.553  0.00  0.00    +0.000 Cl
ATOM     23  C   UNL     1       0.325  10.300  21.801  0.00  0.00    +0.000 A 
ATOM     24  C   UNL     1       0.827   8.990  21.836  0.00  0.00    +0.000 A 
ENDBRANCH  16  18
ENDBRANCH  13  14
ENDBRANCH  11  13
ENDBRANCH   1  11
BRANCH   7  25
ATOM     25  C   UNL     1       5.218   5.752  16.233  0.00  0.00    +0.000 C 
BRANCH  25  26
ATOM     26  C   UNL     1       5.050   4.386  15.537  0.00  0.00    +0.000 C 
BRANCH  26  27
ATOM     27  C   UNL     1       5.840   4.293  14.245  0.00  0.00    +0.000 A 
ATOM     28  C   UNL     1       5.406   3.476  13.190  0.00  0.00    +0.000 A 
ATOM     29  C   UNL     1       6.133   3.409  11.997  0.00  0.00    +0.000 A 
ATOM     30  C   UNL     1       7.300   4.155  11.848  0.00  0.00    +0.000 A 
ATOM     31  C   UNL     1       7.739   4.971  12.888  0.00  0.00    +0.000 A 
ATOM     32  C   UNL     1       7.012   5.043  14.078  0.00  0.00    +0.000 A 
ENDBRANCH  26  27
ENDBRANCH  25  26
ENDBRANCH   7  25
TORSDOF 8
ENDMDL
MODEL 4
REMARK VINA RESULT:      -8.2      2.696      5.137
REMARK  Name = 
REMARK  9 active torsions:
REMARK  status: ('A' for Active; 'I' for Inactive)
REMARK    1  A    between atoms: C_1  and  C_2
REMARK    2  A    between atoms: C_2  and  S_3
REMARK    3  A    between atoms: C_2  and  C_20
REMARK    4  A    between atoms: S_3  and  C_4
REMARK    5  A    between atoms: C_9  and  N_10
REMARK    6  A    between atoms: N_11  and  C_12
REMARK    7  A    between atoms: C_12  and  C_13
REMARK    8  A    between atoms: C_13  and  C_14
REMARK    9  A    between atoms: N_22  and  C_23
REMARK                            x       y       z     vdW  Elec       q    Type
REMARK                         _______ _______ _______ _____ _____    ______ ____
ROOT
ATOM      1  C   UNL     1       4.088   5.783  17.325  0.00  0.00    +0.000 A 
ATOM      2  N   UNL     1       4.842   6.833  17.384  0.00  0.00    +0.000 NA
ATOM      3  C   UNL     1       6.148   6.740  16.990  0.00  0.00    +0.000 A 
ATOM      4  O   UNL     1       6.958   7.653  17.123  0.00  0.00    +0.000 OA
ATOM      5  C   UNL     1       6.587   5.498  16.333  0.00  0.00    +0.000 A 
ATOM      6  C   UNL     1       5.767   4.438  16.258  0.00  0.00    +0.000 A 
ATOM      7  N   UNL     1       4.488   4.530  16.831  0.00  0.00    +0.000 N 
ENDROOT
BRANCH   6   8
ATOM      8  N   UNL     1       6.226   3.300  15.617  0.00  0.00    +0.000 N 
ATOM      9  H   UNL     1       5.533   2.827  15.041  0.00  0.00    +0.000 HD
ATOM     10  H   UNL     1       6.704   2.648  16.229  0.00  0.00    +0.000 HD
ENDBRANCH   6   8
BRANCH   1  11
ATOM     11  S   UNL     1       2.410   6.043  17.866  0.00  0.00    +0.000 S 
BRANCH  11  13
ATOM     12  C   UNL     1       1.867   6.407  20.571  0.00  0.00    +0.000 C 
ATOM     13  C   UNL     1       2.597   7.057  19.390  0.00  0.00    +0.000 C 
BRANCH  13  14
ATOM     14  C   UNL     1       1.982   8.458  19.159  0.00  0.00    +0.000 C 
ATOM     15  O   UNL     1       2.180   9.065  18.106  0.00  0.00    +0.000 OA
ATOM     16  N   UNL     1       1.197   8.946  20.199  0.00  0.00    +0.000 N 
ATOM     17  H   UNL     1       1.277   8.464  21.087  0.00  0.00    +0.000 HD
BRANCH  16  18
ATOM     18  C   UNL     1       0.505  10.185  20.193  0.00  0.00    +0.000 A 
ATOM     19  C   UNL     1       1.003  11.346  20.796  0.00  0.00    +0.000 A 
ATOM     20  C   UNL     1       0.251  12.526  20.830  0.00  0.00    +0.000 A 
ATOM     21  C   UNL     1      -1.008  12.557  20.242  0.00  0.00    +0.000 A 
ATOM     22 CL   UNL     1      -1.955  13.991  20.325  0.00  0.00    +0.000 Cl
ATOM     23  C   UNL     1      -1.503  11.428  19.594  0.00  0.00    +0.000 A 
ATOM     24  C   UNL     1      -0.742  10.249  19.560  0.00  0.00    +0.000 A 
ENDBRANCH  16  18
ENDBRANCH  13  14
ENDBRANCH  11  13
ENDBRANCH   1  11
BRANCH   7  25
ATOM     25  C   UNL     1       3.585   3.350  16.804  0.00  0.00    +0.000 C 
BRANCH  25  26
ATOM     26  C   UNL     1       3.851   2.351  17.949  0.00  0.00    +0.000 C 
BRANCH  26  27
ATOM     27  C   UNL     1       2.914   2.554  19.124  0.00  0.00    +0.000 A 
ATOM     28  C   UNL     1       1.529   2.670  18.932  0.00  0.00    +0.000 A 
ATOM     29  C   UNL     1       0.671   2.840  20.024  0.00  0.00    +0.000 A 
ATOM     30  C   UNL     1       1.189   2.898  21.316  0.00  0.00    +0.000 A 
ATOM     31  C   UNL     1       2.562   2.783  21.518  0.00  0.00    +0.000 A 
ATOM     32  C   UNL     1       3.419   2.608  20.430  0.00  0.00    +0.000 A 
ENDBRANCH  26  27
ENDBRANCH  25  26
ENDBRANCH   7  25
TORSDOF 8
ENDMDL
MODEL 5
REMARK VINA RESULT:      -8.2      2.800      5.234
REMARK  Name = 
REMARK  9 active torsions:
REMARK  status: ('A' for Active; 'I' for Inactive)
REMARK    1  A    between atoms: C_1  and  C_2
REMARK    2  A    between atoms: C_2  and  S_3
REMARK    3  A    between atoms: C_2  and  C_20
REMARK    4  A    between atoms: S_3  and  C_4
REMARK    5  A    between atoms: C_9  and  N_10
REMARK    6  A    between atoms: N_11  and  C_12
REMARK    7  A    between atoms: C_12  and  C_13
REMARK    8  A    between atoms: C_13  and  C_14
REMARK    9  A    between atoms: N_22  and  C_23
REMARK                            x       y       z     vdW  Elec       q    Type
REMARK                         _______ _______ _______ _____ _____    ______ ____
ROOT
ATOM      1  C   UNL     1       4.175   6.038  17.390  0.00  0.00    +0.000 A 
ATOM      2  N   UNL     1       4.989   7.043  17.429  0.00  0.00    +0.000 NA
ATOM      3  C   UNL     1       6.286   6.868  17.033  0.00  0.00    +0.000 A 
ATOM      4  O   UNL     1       7.148   7.734  17.150  0.00  0.00    +0.000 OA
ATOM      5  C   UNL     1       6.649   5.592  16.394  0.00  0.00    +0.000 A 
ATOM      6  C   UNL     1       5.768   4.581  16.338  0.00  0.00    +0.000 A 
ATOM      7  N   UNL     1       4.498   4.757  16.913  0.00  0.00    +0.000 N 
ENDROOT
BRANCH   6   8
ATOM      8  N   UNL     1       6.156   3.409  15.713  0.00  0.00    +0.000 N 
ATOM      9  H   UNL     1       5.853   2.557  16.181  0.00  0.00    +0.000 HD
ATOM     10  H   UNL     1       7.143   3.373  15.483  0.00  0.00    +0.000 HD
ENDBRANCH   6   8
BRANCH   1  11
ATOM     11  S   UNL     1       2.517   6.405  17.931  0.00  0.00    +0.000 S 
BRANCH  11  13
ATOM     12  C   UNL     1       2.341   5.878  20.658  0.00  0.00    +0.000 C 
ATOM     13  C   UNL     1       2.743   6.975  19.666  0.00  0.00    +0.000 C 
BRANCH  13  14
ATOM     14  C   UNL     1       1.846   8.209  19.927  0.00  0.00    +0.000 C 
ATOM     15  O   UNL     1       1.412   8.880  18.990  0.00  0.00    +0.000 OA
ATOM     16  N   UNL     1       1.565   8.473  21.264  0.00  0.00    +0.000 N 
ATOM     17  H   UNL     1       2.139   7.992  21.947  0.00  0.00    +0.000 HD
BRANCH  16  18
ATOM     18  C   UNL     1       0.737   9.524  21.736  0.00  0.00    +0.000 A 
ATOM     19  C   UNL     1      -0.164   9.374  22.797  0.00  0.00    +0.000 A 
ATOM     20  C   UNL     1      -1.015  10.418  23.178  0.00  0.00    +0.000 A 
ATOM     21  C   UNL     1      -0.958  11.634  22.507  0.00  0.00    +0.000 A 
ATOM     22 CL   UNL     1      -2.037  12.902  22.941  0.00  0.00    +0.000 Cl
ATOM     23  C   UNL     1      -0.035  11.820  21.481  0.00  0.00    +0.000 A 
ATOM     24  C   UNL     1       0.818  10.771  21.105  0.00  0.00    +0.000 A 
ENDBRANCH  16  18
ENDBRANCH  13  14
ENDBRANCH  11  13
ENDBRANCH   1  11
BRANCH   7  25
ATOM     25  C   UNL     1       3.528   3.632  16.907  0.00  0.00    +0.000 C 
BRANCH  25  26
ATOM     26  C   UNL     1       3.866   2.528  17.930  0.00  0.00    +0.000 C 
BRANCH  26  27
ATOM     27  C   UNL     1       2.962   2.569  19.147  0.00  0.00    +0.000 A 
ATOM     28  C   UNL     1       1.573   2.713  19.011  0.00  0.00    +0.000 A 
ATOM     29  C   UNL     1       0.746   2.732  20.138  0.00  0.00    +0.000 A 
ATOM     30  C   UNL     1       1.298   2.611  21.412  0.00  0.00    +0.000 A 
ATOM     31  C   UNL     1       2.676   2.466  21.558  0.00  0.00    +0.000 A 
ATOM     32  C   UNL     1       3.502   2.441  20.434  0.00  0.00    +0.000 A 
ENDBRANCH  26  27
ENDBRANCH  25  26
ENDBRANCH   7  25
TORSDOF 8
ENDMDL
MODEL 6
REMARK VINA RESULT:      -8.0      2.575      4.958
REMARK  Name = 
REMARK  9 active torsions:
REMARK  status: ('A' for Active; 'I' for Inactive)
REMARK    1  A    between atoms: C_1  and  C_2
REMARK    2  A    between atoms: C_2  and  S_3
REMARK    3  A    between atoms: C_2  and  C_20
REMARK    4  A    between atoms: S_3  and  C_4
REMARK    5  A    between atoms: C_9  and  N_10
REMARK    6  A    between atoms: N_11  and  C_12
REMARK    7  A    between atoms: C_12  and  C_13
REMARK    8  A    between atoms: C_13  and  C_14
REMARK    9  A    between atoms: N_22  and  C_23
REMARK                            x       y       z     vdW  Elec       q    Type
REMARK                         _______ _______ _______ _____ _____    ______ ____
ROOT
ATOM      1  C   UNL     1       4.939   5.278  18.617  0.00  0.00    +0.000 A 
ATOM      2  N   UNL     1       6.008   5.827  19.097  0.00  0.00    +0.000 NA
ATOM      3  C   UNL     1       7.226   5.472  18.587  0.00  0.00    +0.000 A 
ATOM      4  O   UNL     1       8.292   5.854  19.062  0.00  0.00    +0.000 OA
ATOM      5  C   UNL     1       7.254   4.628  17.381  0.00  0.00    +0.000 A 
ATOM      6  C   UNL     1       6.121   4.103  16.888  0.00  0.00    +0.000 A 
ATOM      7  N   UNL     1       4.910   4.362  17.552  0.00  0.00    +0.000 N 
ENDROOT
BRANCH   6   8
ATOM      8  N   UNL     1       6.202   3.328  15.744  0.00  0.00    +0.000 N 
ATOM      9  H   UNL     1       5.400   2.723  15.582  0.00  0.00    +0.000 HD
ATOM     10  H   UNL     1       7.074   2.818  15.654  0.00  0.00    +0.000 HD
ENDBRANCH   6   8
BRANCH   1  11
ATOM     11  S   UNL     1       3.420   5.830  19.369  0.00  0.00    +0.000 S 
BRANCH  11  13
ATOM     12  C   UNL     1       3.826   7.625  17.282  0.00  0.00    +0.000 C 
ATOM     13  C   UNL     1       2.715   6.989  18.125  0.00  0.00    +0.000 C 
BRANCH  13  14
ATOM     14  C   UNL     1       1.951   8.123  18.848  0.00  0.00    +0.000 C 
ATOM     15  O   UNL     1       1.832   8.119  20.073  0.00  0.00    +0.000 OA
ATOM     16  N   UNL     1       1.447   9.125  18.024  0.00  0.00    +0.000 N 
ATOM     17  H   UNL     1       1.420   8.920  17.032  0.00  0.00    +0.000 HD
BRANCH  16  18
ATOM     18  C   UNL     1       0.749  10.278  18.468  0.00  0.00    +0.000 A 
ATOM     19  C   UNL     1       1.386  11.396  19.019  0.00  0.00    +0.000 A 
ATOM     20  C   UNL     1       0.649  12.480  19.512  0.00  0.00    +0.000 A 
ATOM     21  C   UNL     1      -0.738  12.459  19.443  0.00  0.00    +0.000 A 
ATOM     22 CL   UNL     1      -1.647  13.767  20.094  0.00  0.00    +0.000 Cl
ATOM     23  C   UNL     1      -1.390  11.378  18.855  0.00  0.00    +0.000 A 
ATOM     24  C   UNL     1      -0.647  10.296  18.358  0.00  0.00    +0.000 A 
ENDBRANCH  16  18
ENDBRANCH  13  14
ENDBRANCH  11  13
ENDBRANCH   1  11
BRANCH   7  25
ATOM     25  C   UNL     1       3.654   3.748  17.052  0.00  0.00    +0.000 C 
BRANCH  25  26
ATOM     26  C   UNL     1       3.336   2.388  17.706  0.00  0.00    +0.000 C 
BRANCH  26  27
ATOM     27  C   UNL     1       2.642   2.537  19.046  0.00  0.00    +0.000 A 
ATOM     28  C   UNL     1       3.345   2.362  20.248  0.00  0.00    +0.000 A 
ATOM     29  C   UNL     1       2.700   2.518  21.478  0.00  0.00    +0.000 A 
ATOM     30  C   UNL     1       1.347   2.846  21.521  0.00  0.00    +0.000 A 
ATOM     31  C   UNL     1       0.640   3.024  20.335  0.00  0.00    +0.000 A 
ATOM     32  C   UNL     1       1.283   2.874  19.105  0.00  0.00    +0.000 A 
ENDBRANCH  26  27
ENDBRANCH  25  26
ENDBRANCH   7  25
TORSDOF 8
ENDMDL
MODEL 7
REMARK VINA RESULT:      -8.0      2.646      5.077
REMARK  Name = 
REMARK  9 active torsions:
REMARK  status: ('A' for Active; 'I' for Inactive)
REMARK    1  A    between atoms: C_1  and  C_2
REMARK    2  A    between atoms: C_2  and  S_3
REMARK    3  A    between atoms: C_2  and  C_20
REMARK    4  A    between atoms: S_3  and  C_4
REMARK    5  A    between atoms: C_9  and  N_10
REMARK    6  A    between atoms: N_11  and  C_12
REMARK    7  A    between atoms: C_12  and  C_13
REMARK    8  A    between atoms: C_13  and  C_14
REMARK    9  A    between atoms: N_22  and  C_23
REMARK                            x       y       z     vdW  Elec       q    Type
REMARK                         _______ _______ _______ _____ _____    ______ ____
ROOT
ATOM      1  C   UNL     1       4.887   5.387  18.575  0.00  0.00    +0.000 A 
ATOM      2  N   UNL     1       5.956   5.926  19.065  0.00  0.00    +0.000 NA
ATOM      3  C   UNL     1       7.178   5.531  18.597  0.00  0.00    +0.000 A 
ATOM      4  O   UNL     1       8.240   5.905  19.088  0.00  0.00    +0.000 OA
ATOM      5  C   UNL     1       7.218   4.651  17.417  0.00  0.00    +0.000 A 
ATOM      6  C   UNL     1       6.086   4.137  16.911  0.00  0.00    +0.000 A 
ATOM      7  N   UNL     1       4.865   4.440  17.537  0.00  0.00    +0.000 N 
ENDROOT
BRANCH   6   8
ATOM      8  N   UNL     1       6.179   3.326  15.793  0.00  0.00    +0.000 N 
ATOM      9  H   UNL     1       7.069   3.376  15.303  0.00  0.00    +0.000 HD
ATOM     10  H   UNL     1       5.398   3.419  15.152  0.00  0.00    +0.000 HD
ENDBRANCH   6   8
BRANCH   1  11
ATOM     11  S   UNL     1       3.362   5.993  19.272  0.00  0.00    +0.000 S 
BRANCH  11  13
ATOM     12  C   UNL     1       3.868   7.849  17.262  0.00  0.00    +0.000 C 
ATOM     13  C   UNL     1       2.718   7.135  17.980  0.00  0.00    +0.000 C 
BRANCH  13  14
ATOM     14  C   UNL     1       1.823   8.211  18.640  0.00  0.00    +0.000 C 
ATOM     15  O   UNL     1       1.174   8.998  17.951  0.00  0.00    +0.000 OA
ATOM     16  N   UNL     1       1.800   8.198  20.032  0.00  0.00    +0.000 N 
ATOM     17  H   UNL     1       2.525   7.656  20.489  0.00  0.00    +0.000 HD
BRANCH  16  18
ATOM     18  C   UNL     1       1.025   9.062  20.847  0.00  0.00    +0.000 A 
ATOM     19  C   UNL     1       0.253   8.614  21.926  0.00  0.00    +0.000 A 
ATOM     20  C   UNL     1      -0.555   9.494  22.655  0.00  0.00    +0.000 A 
ATOM     21  C   UNL     1      -0.586  10.841  22.317  0.00  0.00    +0.000 A 
ATOM     22 CL   UNL     1      -1.616  11.916  23.180  0.00  0.00    +0.000 Cl
ATOM     23  C   UNL     1       0.211  11.317  21.279  0.00  0.00    +0.000 A 
ATOM     24  C   UNL     1       1.022  10.431  20.554  0.00  0.00    +0.000 A 
ENDBRANCH  16  18
ENDBRANCH  13  14
ENDBRANCH  11  13
ENDBRANCH   1  11
BRANCH   7  25
ATOM     25  C   UNL     1       3.608   3.839  17.023  0.00  0.00    +0.000 C 
BRANCH  25  26
ATOM     26  C   UNL     1       3.274   2.478  17.667  0.00  0.00    +0.000 C 
BRANCH  26  27
ATOM     27  C   UNL     1       2.591   2.626  19.013  0.00  0.00    +0.000 A 
ATOM     28  C   UNL     1       1.225   2.934  19.101  0.00  0.00    +0.000 A 
ATOM     29  C   UNL     1       0.601   3.052  20.346  0.00  0.00    +0.000 A 
ATOM     30  C   UNL     1       1.335   2.866  21.516  0.00  0.00    +0.000 A 
ATOM     31  C   UNL     1       2.691   2.559  21.441  0.00  0.00    +0.000 A 
ATOM     32  C   UNL     1       3.315   2.435  20.198  0.00  0.00    +0.000 A 
ENDBRANCH  26  27
ENDBRANCH  25  26
ENDBRANCH   7  25
TORSDOF 8
ENDMDL
MODEL 8
REMARK VINA RESULT:      -8.0      2.850      5.164
REMARK  Name = 
REMARK  9 active torsions:
REMARK  status: ('A' for Active; 'I' for Inactive)
REMARK    1  A    between atoms: C_1  and  C_2
REMARK    2  A    between atoms: C_2  and  S_3
REMARK    3  A    between atoms: C_2  and  C_20
REMARK    4  A    between atoms: S_3  and  C_4
REMARK    5  A    between atoms: C_9  and  N_10
REMARK    6  A    between atoms: N_11  and  C_12
REMARK    7  A    between atoms: C_12  and  C_13
REMARK    8  A    between atoms: C_13  and  C_14
REMARK    9  A    between atoms: N_22  and  C_23
REMARK                            x       y       z     vdW  Elec       q    Type
REMARK                         _______ _______ _______ _____ _____    ______ ____
ROOT
ATOM      1  C   UNL     1       4.127   6.202  17.318  0.00  0.00    +0.000 A 
ATOM      2  N   UNL     1       4.966   7.187  17.355  0.00  0.00    +0.000 NA
ATOM      3  C   UNL     1       6.277   6.959  17.039  0.00  0.00    +0.000 A 
ATOM      4  O   UNL     1       7.155   7.807  17.161  0.00  0.00    +0.000 OA
ATOM      5  C   UNL     1       6.637   5.644  16.482  0.00  0.00    +0.000 A 
ATOM      6  C   UNL     1       5.732   4.655  16.426  0.00  0.00    +0.000 A 
ATOM      7  N   UNL     1       4.439   4.891  16.922  0.00  0.00    +0.000 N 
ENDROOT
BRANCH   6   8
ATOM      8  N   UNL     1       6.120   3.443  15.881  0.00  0.00    +0.000 N 
ATOM      9  H   UNL     1       6.004   3.373  14.872  0.00  0.00    +0.000 HD
ATOM     10  H   UNL     1       5.730   2.635  16.354  0.00  0.00    +0.000 HD
ENDBRANCH   6   8
BRANCH   1  11
ATOM     11  S   UNL     1       2.453   6.637  17.750  0.00  0.00    +0.000 S 
BRANCH  11  13
ATOM     12  C   UNL     1       2.100   6.111  20.460  0.00  0.00    +0.000 C 
ATOM     13  C   UNL     1       2.588   7.200  19.497  0.00  0.00    +0.000 C 
BRANCH  13  14
ATOM     14  C   UNL     1       1.707   8.455  19.706  0.00  0.00    +0.000 C 
ATOM     15  O   UNL     1       1.601   9.303  18.820  0.00  0.00    +0.000 OA
ATOM     16  N   UNL     1       1.052   8.529  20.932  0.00  0.00    +0.000 N 
ATOM     17  H   UNL     1       1.375   7.895  21.653  0.00  0.00    +0.000 HD
BRANCH  16  18
ATOM     18  C   UNL     1       0.166   9.564  21.327  0.00  0.00    +0.000 A 
ATOM     19  C   UNL     1      -0.323  10.535  20.445  0.00  0.00    +0.000 A 
ATOM     20  C   UNL     1      -1.135  11.583  20.896  0.00  0.00    +0.000 A 
ATOM     21  C   UNL     1      -1.479  11.657  22.240  0.00  0.00    +0.000 A 
ATOM     22 CL   UNL     1      -2.436  12.970  22.806  0.00  0.00    +0.000 Cl
ATOM     23  C   UNL     1      -1.044  10.674  23.126  0.00  0.00    +0.000 A 
ATOM     24  C   UNL     1      -0.233   9.624  22.668  0.00  0.00    +0.000 A 
ENDBRANCH  16  18
ENDBRANCH  13  14
ENDBRANCH  11  13
ENDBRANCH   1  11
BRANCH   7  25
ATOM     25  C   UNL     1       3.439   3.792  16.917  0.00  0.00    +0.000 C 
BRANCH  25  26
ATOM     26  C   UNL     1       3.786   2.646  17.888  0.00  0.00    +0.000 C 
BRANCH  26  27
ATOM     27  C   UNL     1       2.916   2.654  19.130  0.00  0.00    +0.000 A 
ATOM     28  C   UNL     1       3.482   2.568  20.411  0.00  0.00    +0.000 A 
ATOM     29  C   UNL     1       2.672   2.594  21.550  0.00  0.00    +0.000 A 
ATOM     30  C   UNL     1       1.289   2.703  21.421  0.00  0.00    +0.000 A 
ATOM     31  C   UNL     1       0.716   2.790  20.155  0.00  0.00    +0.000 A 
ATOM     32  C   UNL     1       1.524   2.770  19.016  0.00  0.00    +0.000 A 
ENDBRANCH  26  27
ENDBRANCH  25  26
ENDBRANCH   7  25
TORSDOF 8
ENDMDL
MODEL 9
REMARK VINA RESULT:      -8.0      2.730      5.092
REMARK  Name = 
REMARK  9 active torsions:
REMARK  status: ('A' for Active; 'I' for Inactive)
REMARK    1  A    between atoms: C_1  and  C_2
REMARK    2  A    between atoms: C_2  and  S_3
REMARK    3  A    between atoms: C_2  and  C_20
REMARK    4  A    between atoms: S_3  and  C_4
REMARK    5  A    between atoms: C_9  and  N_10
REMARK    6  A    between atoms: N_11  and  C_12
REMARK    7  A    between atoms: C_12  and  C_13
REMARK    8  A    between atoms: C_13  and  C_14
REMARK    9  A    between atoms: N_22  and  C_23
REMARK                            x       y       z     vdW  Elec       q    Type
REMARK                         _______ _______ _______ _____ _____    ______ ____
ROOT
ATOM      1  C   UNL     1       4.039   6.050  17.376  0.00  0.00    +0.000 A 
ATOM      2  N   UNL     1       4.838   7.066  17.439  0.00  0.00    +0.000 NA
ATOM      3  C   UNL     1       6.148   6.908  17.079  0.00  0.00    +0.000 A 
ATOM      4  O   UNL     1       6.995   7.785  17.220  0.00  0.00    +0.000 OA
ATOM      5  C   UNL     1       6.545   5.638  16.449  0.00  0.00    +0.000 A 
ATOM      6  C   UNL     1       5.680   4.616  16.368  0.00  0.00    +0.000 A 
ATOM      7  N   UNL     1       4.392   4.773  16.908  0.00  0.00    +0.000 N 
ENDROOT
BRANCH   6   8
ATOM      8  N   UNL     1       6.101   3.449  15.753  0.00  0.00    +0.000 N 
ATOM      9  H   UNL     1       5.528   3.151  14.967  0.00  0.00    +0.000 HD
ATOM     10  H   UNL     1       6.272   2.684  16.397  0.00  0.00    +0.000 HD
ENDBRANCH   6   8
BRANCH   1  11
ATOM     11  S   UNL     1       2.361   6.394  17.872  0.00  0.00    +0.000 S 
BRANCH  11  13
ATOM     12  C   UNL     1       1.790   5.962  20.560  0.00  0.00    +0.000 C 
ATOM     13  C   UNL     1       2.528   6.926  19.626  0.00  0.00    +0.000 C 
BRANCH  13  14
ATOM     14  C   UNL     1       1.907   8.333  19.800  0.00  0.00    +0.000 C 
ATOM     15  O   UNL     1       1.571   8.738  20.913  0.00  0.00    +0.000 OA
ATOM     16  N   UNL     1       1.784   9.082  18.633  0.00  0.00    +0.000 N 
ATOM     17  H   UNL     1       1.892   8.576  17.762  0.00  0.00    +0.000 HD
BRANCH  16  18
ATOM     18  C   UNL     1       1.281  10.406  18.558  0.00  0.00    +0.000 A 
ATOM     19  C   UNL     1       2.102  11.535  18.456  0.00  0.00    +0.000 A 
ATOM     20  C   UNL     1       1.563  12.827  18.460  0.00  0.00    +0.000 A 
ATOM     21  C   UNL     1       0.188  12.999  18.553  0.00  0.00    +0.000 A 
ATOM     22 CL   UNL     1      -0.474  14.587  18.608  0.00  0.00    +0.000 Cl
ATOM     23  C   UNL     1      -0.651  11.889  18.607  0.00  0.00    +0.000 A 
ATOM     24  C   UNL     1      -0.106  10.596  18.597  0.00  0.00    +0.000 A 
ENDBRANCH  16  18
ENDBRANCH  13  14
ENDBRANCH  11  13
ENDBRANCH   1  11
BRANCH   7  25
ATOM     25  C   UNL     1       3.438   3.636  16.874  0.00  0.00    +0.000 C 
BRANCH  25  26
ATOM     26  C   UNL     1       3.778   2.523  17.887  0.00  0.00    +0.000 C 
BRANCH  26  27
ATOM     27  C   UNL     1       2.899   2.575  19.121  0.00  0.00    +0.000 A 
ATOM     28  C   UNL     1       1.500   2.609  19.013  0.00  0.00    +0.000 A 
ATOM     29  C   UNL     1       0.698   2.639  20.158  0.00  0.00    +0.000 A 
ATOM     30  C   UNL     1       1.284   2.640  21.421  0.00  0.00    +0.000 A 
ATOM     31  C   UNL     1       2.671   2.605  21.541  0.00  0.00    +0.000 A 
ATOM     32  C   UNL     1       3.474   2.569  20.399  0.00  0.00    +0.000 A 
ENDBRANCH  26  27
ENDBRANCH  25  26
ENDBRANCH   7  25
TORSDOF 8
ENDMDL
