MODEL 1
REMARK VINA RESULT:      -8.5      0.000      0.000
REMARK  Name = 
REMARK  6 active torsions:
REMARK  status: ('A' for Active; 'I' for Inactive)
REMARK    1  A    between atoms: C_2  and  C_11
REMARK    2  A    between atoms: N_3  and  S_4
REMARK    3  A    between atoms: S_4  and  N_7
REMARK    4  A    between atoms: C_13  and  C_14
REMARK    5  A    between atoms: C_17  and  O_18
REMARK    6  A    between atoms: O_18  and  C_19
REMARK                            x       y       z     vdW  Elec       q    Type
REMARK                         _______ _______ _______ _____ _____    ______ ____
ROOT
ATOM      1  C   UNL     1       2.345   7.239  19.118  0.00  0.00    +0.000 A 
ATOM      2  C   UNL     1       1.556   7.515  20.238  0.00  0.00    +0.000 A 
ATOM      3  C   UNL     1       0.876   8.741  20.467  0.00  0.00    +0.000 A 
ATOM      4  C   UNL     1       1.062   9.733  19.461  0.00  0.00    +0.000 A 
ATOM      5  C   UNL     1       1.792   9.425  18.290  0.00  0.00    +0.000 A 
ATOM      6  C   UNL     1       2.421   8.190  18.119  0.00  0.00    +0.000 A 
ATOM      7  F   UNL     1       3.126   7.969  16.999  0.00  0.00    +0.000 F 
ENDROOT
BRANCH   1   9
ATOM      8  O   UNL     1       4.068   5.750  19.633  0.00  0.00    +0.000 OA
ATOM      9  C   UNL     1       3.002   5.910  19.070  0.00  0.00    +0.000 C 
ATOM     10  N   UNL     1       2.309   4.895  18.409  0.00  0.00    +0.000 N 
ATOM     11  H   UNL     1       1.725   5.147  17.612  0.00  0.00    +0.000 HD
BRANCH  10  12
ATOM     12  S   UNL     1       2.934   3.368  18.253  0.00  0.00    +0.000 S 
ATOM     13  O   UNL     1       2.322   2.742  17.114  0.00  0.00    +0.000 OA
ATOM     14  O   UNL     1       4.360   3.367  18.498  0.00  0.00    +0.000 OA
BRANCH  12  15
ATOM     15  N   UNL     1       2.214   2.713  19.631  0.00  0.00    +0.000 NA
ATOM     16  C   UNL     1       2.858   2.733  20.979  0.00  0.00    +0.000 C 
ATOM     17  C   UNL     1       1.465   2.727  21.627  0.00  0.00    +0.000 C 
ATOM     18  C   UNL     1       0.955   3.213  20.260  0.00  0.00    +0.000 C 
ENDBRANCH  12  15
ENDBRANCH  10  12
ENDBRANCH   1   9
BRANCH   3  19
ATOM     19  C   UNL     1       0.028   8.844  21.750  0.00  0.00    +0.000 C 
ATOM     20  C   UNL     1       0.615   9.452  23.057  0.00  0.00    +0.000 C 
ATOM     21  C   UNL     1      -0.499  10.117  22.266  0.00  0.00    +0.000 C 
ENDBRANCH   3  19
BRANCH   4  22
ATOM     22  O   UNL     1       0.615  11.038  19.402  0.00  0.00    +0.000 OA
BRANCH  22  23
ATOM     23  C   UNL     1       1.539  12.124  19.380  0.00  0.00    +0.000 C 
ATOM     24  C   UNL     1       1.198  13.219  18.341  0.00  0.00    +0.000 C 
ATOM     25  C   UNL     1      -0.065  14.006  18.748  0.00  0.00    +0.000 C 
ATOM     26  C   UNL     1       0.151  14.710  20.098  0.00  0.00    +0.000 C 
ATOM     27  C   UNL     1       0.408  13.626  21.155  0.00  0.00    +0.000 C 
ATOM     28  C   UNL     1       1.655  12.802  20.781  0.00  0.00    +0.000 C 
ATOM     29  C   UNL     1       2.863  13.765  20.722  0.00  0.00    +0.000 C 
ATOM     30  C   UNL     1       2.624  14.845  19.643  0.00  0.00    +0.000 C 
ATOM     31 CL   UNL     1       4.041  15.927  19.555  0.00  0.00    +0.000 Cl
ATOM     32  C   UNL     1       1.366  15.652  20.011  0.00  0.00    +0.000 C 
ATOM     33  C   UNL     1       2.393  14.189  18.268  0.00  0.00    +0.000 C 
ENDBRANCH  22  23
ENDBRANCH   4  22
TORSDOF 6
ENDMDL
MODEL 2
REMARK VINA RESULT:      -8.2      1.769      2.587
REMARK  Name = 
REMARK  6 active torsions:
REMARK  status: ('A' for Active; 'I' for Inactive)
REMARK    1  A    between atoms: C_2  and  C_11
REMARK    2  A    between atoms: N_3  and  S_4
REMARK    3  A    between atoms: S_4  and  N_7
REMARK    4  A    between atoms: C_13  and  C_14
REMARK    5  A    between atoms: C_17  and  O_18
REMARK    6  A    between atoms: O_18  and  C_19
REMARK                            x       y       z     vdW  Elec       q    Type
REMARK                         _______ _______ _______ _____ _____    ______ ____
ROOT
ATOM      1  C   UNL     1       2.347   7.281  19.342  0.00  0.00    +0.000 A 
ATOM      2  C   UNL     1       1.529   7.563  20.440  0.00  0.00    +0.000 A 
ATOM      3  C   UNL     1       0.801   8.769  20.618  0.00  0.00    +0.000 A 
ATOM      4  C   UNL     1       0.969   9.735  19.584  0.00  0.00    +0.000 A 
ATOM      5  C   UNL     1       1.730   9.417  18.436  0.00  0.00    +0.000 A 
ATOM      6  C   UNL     1       2.407   8.202  18.315  0.00  0.00    +0.000 A 
ATOM      7  F   UNL     1       3.139   7.972  17.214  0.00  0.00    +0.000 F 
ENDROOT
BRANCH   1   9
ATOM      8  O   UNL     1       2.676   5.095  20.097  0.00  0.00    +0.000 OA
ATOM      9  C   UNL     1       3.053   5.976  19.347  0.00  0.00    +0.000 C 
ATOM     10  N   UNL     1       4.095   5.827  18.432  0.00  0.00    +0.000 N 
ATOM     11  H   UNL     1       4.651   6.648  18.193  0.00  0.00    +0.000 HD
BRANCH  10  12
ATOM     12  S   UNL     1       4.990   4.435  18.344  0.00  0.00    +0.000 S 
ATOM     13  O   UNL     1       5.984   4.469  19.380  0.00  0.00    +0.000 OA
ATOM     14  O   UNL     1       4.141   3.292  18.087  0.00  0.00    +0.000 OA
BRANCH  12  15
ATOM     15  N   UNL     1       5.770   4.785  16.890  0.00  0.00    +0.000 NA
ATOM     16  C   UNL     1       5.911   3.797  15.778  0.00  0.00    +0.000 C 
ATOM     17  C   UNL     1       5.949   4.958  14.772  0.00  0.00    +0.000 C 
ATOM     18  C   UNL     1       5.306   5.795  15.891  0.00  0.00    +0.000 C 
ENDBRANCH  12  15
ENDBRANCH  10  12
ENDBRANCH   1   9
BRANCH   3  19
ATOM     19  C   UNL     1      -0.073   8.880  21.882  0.00  0.00    +0.000 C 
ATOM     20  C   UNL     1       0.491   9.489  23.200  0.00  0.00    +0.000 C 
ATOM     21  C   UNL     1      -0.602  10.158  22.384  0.00  0.00    +0.000 C 
ENDBRANCH   3  19
BRANCH   4  22
ATOM     22  O   UNL     1       0.476  11.020  19.476  0.00  0.00    +0.000 OA
BRANCH  22  23
ATOM     23  C   UNL     1       1.356  12.142  19.500  0.00  0.00    +0.000 C 
ATOM     24  C   UNL     1       1.092  13.174  18.377  0.00  0.00    +0.000 C 
ATOM     25  C   UNL     1      -0.237  13.924  18.605  0.00  0.00    +0.000 C 
ATOM     26  C   UNL     1      -0.198  14.697  19.933  0.00  0.00    +0.000 C 
ATOM     27  C   UNL     1      -0.020  13.674  21.064  0.00  0.00    +0.000 C 
ATOM     28  C   UNL     1       1.290  12.888  20.870  0.00  0.00    +0.000 C 
ATOM     29  C   UNL     1       2.461  13.897  20.896  0.00  0.00    +0.000 C 
ATOM     30  C   UNL     1       2.303  14.916  19.744  0.00  0.00    +0.000 C 
ATOM     31 CL   UNL     1       3.680  16.052  19.758  0.00  0.00    +0.000 Cl
ATOM     32  C   UNL     1       0.983  15.685  19.932  0.00  0.00    +0.000 C 
ATOM     33  C   UNL     1       2.251  14.188  18.387  0.00  0.00    +0.000 C 
ENDBRANCH  22  23
ENDBRANCH   4  22
TORSDOF 6
ENDMDL
MODEL 3
REMARK VINA RESULT:      -8.2      4.519      8.540
REMARK  Name = 
REMARK  6 active torsions:
REMARK  status: ('A' for Active; 'I' for Inactive)
REMARK    1  A    between atoms: C_2  and  C_11
REMARK    2  A    between atoms: N_3  and  S_4
REMARK    3  A    between atoms: S_4  and  N_7
REMARK    4  A    between atoms: C_13  and  C_14
REMARK    5  A    between atoms: C_17  and  O_18
REMARK    6  A    between atoms: O_18  and  C_19
REMARK                            x       y       z     vdW  Elec       q    Type
REMARK                         _______ _______ _______ _____ _____    ______ ____
ROOT
ATOM      1  C   UNL     1       1.107   9.654  19.842  0.00  0.00    +0.000 A 
ATOM      2  C   UNL     1       1.124   8.435  20.525  0.00  0.00    +0.000 A 
ATOM      3  C   UNL     1       1.691   7.233  20.023  0.00  0.00    +0.000 A 
ATOM      4  C   UNL     1       2.250   7.328  18.715  0.00  0.00    +0.000 A 
ATOM      5  C   UNL     1       2.306   8.580  18.060  0.00  0.00    +0.000 A 
ATOM      6  C   UNL     1       1.746   9.730  18.620  0.00  0.00    +0.000 A 
ATOM      7  F   UNL     1       1.803  10.882  17.933  0.00  0.00    +0.000 F 
ENDROOT
BRANCH   1   9
ATOM      8  O   UNL     1       0.938  11.267  21.522  0.00  0.00    +0.000 OA
ATOM      9  C   UNL     1       0.441  10.794  20.517  0.00  0.00    +0.000 C 
ATOM     10  N   UNL     1      -0.712  11.292  19.909  0.00  0.00    +0.000 N 
ATOM     11  H   UNL     1      -1.315  10.641  19.407  0.00  0.00    +0.000 HD
BRANCH  10  12
ATOM     12  S   UNL     1      -1.575  12.545  20.566  0.00  0.00    +0.000 S 
ATOM     13  O   UNL     1      -2.127  12.108  21.818  0.00  0.00    +0.000 OA
ATOM     14  O   UNL     1      -0.876  13.800  20.395  0.00  0.00    +0.000 OA
BRANCH  12  15
ATOM     15  N   UNL     1      -2.829  12.542  19.438  0.00  0.00    +0.000 NA
ATOM     16  C   UNL     1      -2.932  11.543  18.331  0.00  0.00    +0.000 C 
ATOM     17  C   UNL     1      -4.459  11.707  18.345  0.00  0.00    +0.000 C 
ATOM     18  C   UNL     1      -4.267  12.289  19.756  0.00  0.00    +0.000 C 
ENDBRANCH  12  15
ENDBRANCH  10  12
ENDBRANCH   1   9
BRANCH   3  19
ATOM     19  C   UNL     1       1.639   5.996  20.940  0.00  0.00    +0.000 C 
ATOM     20  C   UNL     1       1.113   4.627  20.417  0.00  0.00    +0.000 C 
ATOM     21  C   UNL     1       2.563   4.859  20.810  0.00  0.00    +0.000 C 
ENDBRANCH   3  19
BRANCH   4  22
ATOM     22  O   UNL     1       2.807   6.355  17.910  0.00  0.00    +0.000 OA
BRANCH  22  23
ATOM     23  C   UNL     1       4.148   5.916  18.120  0.00  0.00    +0.000 C 
ATOM     24  C   UNL     1       4.366   4.408  17.854  0.00  0.00    +0.000 C 
ATOM     25  C   UNL     1       4.254   4.081  16.350  0.00  0.00    +0.000 C 
ATOM     26  C   UNL     1       5.324   4.843  15.553  0.00  0.00    +0.000 C 
ATOM     27  C   UNL     1       5.067   6.345  15.742  0.00  0.00    +0.000 C 
ATOM     28  C   UNL     1       5.154   6.717  17.234  0.00  0.00    +0.000 C 
ATOM     29  C   UNL     1       6.575   6.368  17.731  0.00  0.00    +0.000 C 
ATOM     30  C   UNL     1       6.834   4.853  17.567  0.00  0.00    +0.000 C 
ATOM     31 CL   UNL     1       8.462   4.454  18.180  0.00  0.00    +0.000 Cl
ATOM     32  C   UNL     1       6.727   4.483  16.077  0.00  0.00    +0.000 C 
ATOM     33  C   UNL     1       5.779   4.041  18.344  0.00  0.00    +0.000 C 
ENDBRANCH  22  23
ENDBRANCH   4  22
TORSDOF 6
ENDMDL
MODEL 4
REMARK VINA RESULT:      -8.2      4.241      8.496
REMARK  Name = 
REMARK  6 active torsions:
REMARK  status: ('A' for Active; 'I' for Inactive)
REMARK    1  A    between atoms: C_2  and  C_11
REMARK    2  A    between atoms: N_3  and  S_4
REMARK    3  A    between atoms: S_4  and  N_7
REMARK    4  A    between atoms: C_13  and  C_14
REMARK    5  A    between atoms: C_17  and  O_18
REMARK    6  A    between atoms: O_18  and  C_19
REMARK                            x       y       z     vdW  Elec       q    Type
REMARK                         _______ _______ _______ _____ _____    ______ ____
ROOT
ATOM      1  C   UNL     1       1.468   8.402  20.591  0.00  0.00    +0.000 A 
ATOM      2  C   UNL     1       1.564   7.114  21.126  0.00  0.00    +0.000 A 
ATOM      3  C   UNL     1       1.889   5.950  20.380  0.00  0.00    +0.000 A 
ATOM      4  C   UNL     1       2.102   6.164  18.987  0.00  0.00    +0.000 A 
ATOM      5  C   UNL     1       2.085   7.477  18.462  0.00  0.00    +0.000 A 
ATOM      6  C   UNL     1       1.777   8.583  19.257  0.00  0.00    +0.000 A 
ATOM      7  F   UNL     1       1.746   9.800  18.692  0.00  0.00    +0.000 F 
ENDROOT
BRANCH   1   9
ATOM      8  O   UNL     1       1.754   9.684  22.521  0.00  0.00    +0.000 OA
ATOM      9  C   UNL     1       1.086   9.491  21.523  0.00  0.00    +0.000 C 
ATOM     10  N   UNL     1      -0.010  10.272  21.155  0.00  0.00    +0.000 N 
ATOM     11  H   UNL     1      -0.765   9.830  20.632  0.00  0.00    +0.000 HD
BRANCH  10  12
ATOM     12  S   UNL     1      -0.565  11.505  22.112  0.00  0.00    +0.000 S 
ATOM     13  O   UNL     1      -0.973  10.951  23.374  0.00  0.00    +0.000 OA
ATOM     14  O   UNL     1       0.276  12.675  21.986  0.00  0.00    +0.000 OA
BRANCH  12  15
ATOM     15  N   UNL     1      -1.968  11.829  21.232  0.00  0.00    +0.000 NA
ATOM     16  C   UNL     1      -3.124  12.594  21.789  0.00  0.00    +0.000 C 
ATOM     17  C   UNL     1      -3.479  13.060  20.368  0.00  0.00    +0.000 C 
ATOM     18  C   UNL     1      -2.032  12.684  20.008  0.00  0.00    +0.000 C 
ENDBRANCH  12  15
ENDBRANCH  10  12
ENDBRANCH   1   9
BRANCH   3  19
ATOM     19  C   UNL     1       1.977   4.622  21.157  0.00  0.00    +0.000 C 
ATOM     20  C   UNL     1       1.143   3.380  20.725  0.00  0.00    +0.000 C 
ATOM     21  C   UNL     1       2.659   3.428  20.633  0.00  0.00    +0.000 C 
ENDBRANCH   3  19
BRANCH   4  22
ATOM     22  O   UNL     1       2.358   5.260  17.975  0.00  0.00    +0.000 OA
BRANCH  22  23
ATOM     23  C   UNL     1       3.526   5.384  17.166  0.00  0.00    +0.000 C 
ATOM     24  C   UNL     1       4.648   6.235  17.807  0.00  0.00    +0.000 C 
ATOM     25  C   UNL     1       5.283   5.511  19.012  0.00  0.00    +0.000 C 
ATOM     26  C   UNL     1       5.917   4.182  18.568  0.00  0.00    +0.000 C 
ATOM     27  C   UNL     1       4.797   3.295  18.005  0.00  0.00    +0.000 C 
ATOM     28  C   UNL     1       4.121   3.986  16.807  0.00  0.00    +0.000 C 
ATOM     29  C   UNL     1       5.195   4.215  15.720  0.00  0.00    +0.000 C 
ATOM     30  C   UNL     1       6.315   5.128  16.269  0.00  0.00    +0.000 C 
ATOM     31 CL   UNL     1       7.530   5.418  14.994  0.00  0.00    +0.000 Cl
ATOM     32  C   UNL     1       6.974   4.442  17.478  0.00  0.00    +0.000 C 
ATOM     33  C   UNL     1       5.729   6.474  16.736  0.00  0.00    +0.000 C 
ENDBRANCH  22  23
ENDBRANCH   4  22
TORSDOF 6
ENDMDL
MODEL 5
REMARK VINA RESULT:      -8.1      0.771      1.130
REMARK  Name = 
REMARK  6 active torsions:
REMARK  status: ('A' for Active; 'I' for Inactive)
REMARK    1  A    between atoms: C_2  and  C_11
REMARK    2  A    between atoms: N_3  and  S_4
REMARK    3  A    between atoms: S_4  and  N_7
REMARK    4  A    between atoms: C_13  and  C_14
REMARK    5  A    between atoms: C_17  and  O_18
REMARK    6  A    between atoms: O_18  and  C_19
REMARK                            x       y       z     vdW  Elec       q    Type
REMARK                         _______ _______ _______ _____ _____    ______ ____
ROOT
ATOM      1  C   UNL     1       2.175   7.414  19.213  0.00  0.00    +0.000 A 
ATOM      2  C   UNL     1       1.416   7.636  20.365  0.00  0.00    +0.000 A 
ATOM      3  C   UNL     1       0.704   8.832  20.649  0.00  0.00    +0.000 A 
ATOM      4  C   UNL     1       0.825   9.855  19.664  0.00  0.00    +0.000 A 
ATOM      5  C   UNL     1       1.525   9.601  18.462  0.00  0.00    +0.000 A 
ATOM      6  C   UNL     1       2.187   8.392  18.238  0.00  0.00    +0.000 A 
ATOM      7  F   UNL     1       2.861   8.224  17.089  0.00  0.00    +0.000 F 
ENDROOT
BRANCH   1   9
ATOM      8  O   UNL     1       3.929   5.948  19.689  0.00  0.00    +0.000 OA
ATOM      9  C   UNL     1       2.873   6.110  19.108  0.00  0.00    +0.000 C 
ATOM     10  N   UNL     1       2.227   5.114  18.374  0.00  0.00    +0.000 N 
ATOM     11  H   UNL     1       1.655   5.394  17.577  0.00  0.00    +0.000 HD
BRANCH  10  12
ATOM     12  S   UNL     1       2.901   3.617  18.149  0.00  0.00    +0.000 S 
ATOM     13  O   UNL     1       2.307   3.022  16.984  0.00  0.00    +0.000 OA
ATOM     14  O   UNL     1       4.327   3.651  18.391  0.00  0.00    +0.000 OA
BRANCH  12  15
ATOM     15  N   UNL     1       2.207   2.878  19.498  0.00  0.00    +0.000 NA
ATOM     16  C   UNL     1       2.893   2.780  20.821  0.00  0.00    +0.000 C 
ATOM     17  C   UNL     1       1.521   2.761  21.513  0.00  0.00    +0.000 C 
ATOM     18  C   UNL     1       0.982   3.360  20.204  0.00  0.00    +0.000 C 
ENDBRANCH  12  15
ENDBRANCH  10  12
ENDBRANCH   1   9
BRANCH   3  19
ATOM     19  C   UNL     1      -0.103   8.873  21.961  0.00  0.00    +0.000 C 
ATOM     20  C   UNL     1       0.511   9.460  23.266  0.00  0.00    +0.000 C 
ATOM     21  C   UNL     1      -0.647  10.116  22.532  0.00  0.00    +0.000 C 
ENDBRANCH   3  19
BRANCH   4  22
ATOM     22  O   UNL     1       0.334  11.145  19.654  0.00  0.00    +0.000 OA
BRANCH  22  23
ATOM     23  C   UNL     1       0.987  12.179  20.389  0.00  0.00    +0.000 C 
ATOM     24  C   UNL     1       2.159  12.846  19.631  0.00  0.00    +0.000 C 
ATOM     25  C   UNL     1       1.652  13.697  18.449  0.00  0.00    +0.000 C 
ATOM     26  C   UNL     1       0.735  14.823  18.952  0.00  0.00    +0.000 C 
ATOM     27  C   UNL     1      -0.477  14.171  19.634  0.00  0.00    +0.000 C 
ATOM     28  C   UNL     1      -0.016  13.296  20.815  0.00  0.00    +0.000 C 
ATOM     29  C   UNL     1       0.719  14.207  21.825  0.00  0.00    +0.000 C 
ATOM     30  C   UNL     1       1.955  14.849  21.154  0.00  0.00    +0.000 C 
ATOM     31 CL   UNL     1       2.819  15.866  22.339  0.00  0.00    +0.000 Cl
ATOM     32  C   UNL     1       1.491  15.706  19.963  0.00  0.00    +0.000 C 
ATOM     33  C   UNL     1       2.905  13.757  20.624  0.00  0.00    +0.000 C 
ENDBRANCH  22  23
ENDBRANCH   4  22
TORSDOF 6
ENDMDL
MODEL 6
REMARK VINA RESULT:      -8.0      1.912      2.839
REMARK  Name = 
REMARK  6 active torsions:
REMARK  status: ('A' for Active; 'I' for Inactive)
REMARK    1  A    between atoms: C_2  and  C_11
REMARK    2  A    between atoms: N_3  and  S_4
REMARK    3  A    between atoms: S_4  and  N_7
REMARK    4  A    between atoms: C_13  and  C_14
REMARK    5  A    between atoms: C_17  and  O_18
REMARK    6  A    between atoms: O_18  and  C_19
REMARK                            x       y       z     vdW  Elec       q    Type
REMARK                         _______ _______ _______ _____ _____    ______ ____
ROOT
ATOM      1  C   UNL     1       2.314   7.285  19.478  0.00  0.00    +0.000 A 
ATOM      2  C   UNL     1       1.509   7.538  20.593  0.00  0.00    +0.000 A 
ATOM      3  C   UNL     1       0.738   8.715  20.784  0.00  0.00    +0.000 A 
ATOM      4  C   UNL     1       0.845   9.684  19.744  0.00  0.00    +0.000 A 
ATOM      5  C   UNL     1       1.593   9.392  18.580  0.00  0.00    +0.000 A 
ATOM      6  C   UNL     1       2.314   8.204  18.447  0.00  0.00    +0.000 A 
ATOM      7  F   UNL     1       3.031   8.000  17.331  0.00  0.00    +0.000 F 
ENDROOT
BRANCH   1   9
ATOM      8  O   UNL     1       2.779   5.137  20.267  0.00  0.00    +0.000 OA
ATOM      9  C   UNL     1       3.071   6.009  19.471  0.00  0.00    +0.000 C 
ATOM     10  N   UNL     1       4.056   5.874  18.492  0.00  0.00    +0.000 N 
ATOM     11  H   UNL     1       4.561   6.709  18.196  0.00  0.00    +0.000 HD
BRANCH  10  12
ATOM     12  S   UNL     1       4.998   4.515  18.383  0.00  0.00    +0.000 S 
ATOM     13  O   UNL     1       5.994   4.569  19.417  0.00  0.00    +0.000 OA
ATOM     14  O   UNL     1       4.190   3.347  18.110  0.00  0.00    +0.000 OA
BRANCH  12  15
ATOM     15  N   UNL     1       5.762   4.914  16.932  0.00  0.00    +0.000 NA
ATOM     16  C   UNL     1       5.993   3.931  15.831  0.00  0.00    +0.000 C 
ATOM     17  C   UNL     1       5.948   5.083  14.815  0.00  0.00    +0.000 C 
ATOM     18  C   UNL     1       5.230   5.876  15.920  0.00  0.00    +0.000 C 
ENDBRANCH  12  15
ENDBRANCH  10  12
ENDBRANCH   1   9
BRANCH   3  19
ATOM     19  C   UNL     1      -0.112   8.796  22.067  0.00  0.00    +0.000 C 
ATOM     20  C   UNL     1       0.443   9.465  23.359  0.00  0.00    +0.000 C 
ATOM     21  C   UNL     1      -0.709  10.048  22.558  0.00  0.00    +0.000 C 
ENDBRANCH   3  19
BRANCH   4  22
ATOM     22  O   UNL     1       0.299  10.948  19.643  0.00  0.00    +0.000 OA
BRANCH  22  23
ATOM     23  C   UNL     1       0.846  12.038  20.382  0.00  0.00    +0.000 C 
ATOM     24  C   UNL     1       1.987  12.784  19.650  0.00  0.00    +0.000 C 
ATOM     25  C   UNL     1       1.454  13.577  18.439  0.00  0.00    +0.000 C 
ATOM     26  C   UNL     1       0.437  14.636  18.895  0.00  0.00    +0.000 C 
ATOM     27  C   UNL     1      -0.742  13.901  19.550  0.00  0.00    +0.000 C 
ATOM     28  C   UNL     1      -0.254  13.080  20.758  0.00  0.00    +0.000 C 
ATOM     29  C   UNL     1       0.376  14.059  21.776  0.00  0.00    +0.000 C 
ATOM     30  C   UNL     1       1.579  14.786  21.133  0.00  0.00    +0.000 C 
ATOM     31 CL   UNL     1       2.323  15.883  22.328  0.00  0.00    +0.000 Cl
ATOM     32  C   UNL     1       1.089  15.588  19.915  0.00  0.00    +0.000 C 
ATOM     33  C   UNL     1       2.628  13.764  20.651  0.00  0.00    +0.000 C 
ENDBRANCH  22  23
ENDBRANCH   4  22
TORSDOF 6
ENDMDL
MODEL 7
REMARK VINA RESULT:      -8.0      1.810      2.662
REMARK  Name = 
REMARK  6 active torsions:
REMARK  status: ('A' for Active; 'I' for Inactive)
REMARK    1  A    between atoms: C_2  and  C_11
REMARK    2  A    between atoms: N_3  and  S_4
REMARK    3  A    between atoms: S_4  and  N_7
REMARK    4  A    between atoms: C_13  and  C_14
REMARK    5  A    between atoms: C_17  and  O_18
REMARK    6  A    between atoms: O_18  and  C_19
REMARK                            x       y       z     vdW  Elec       q    Type
REMARK                         _______ _______ _______ _____ _____    ______ ____
ROOT
ATOM      1  C   UNL     1       2.280   7.292  19.120  0.00  0.00    +0.000 A 
ATOM      2  C   UNL     1       1.516   7.544  20.263  0.00  0.00    +0.000 A 
ATOM      3  C   UNL     1       0.826   8.758  20.524  0.00  0.00    +0.000 A 
ATOM      4  C   UNL     1       0.975   9.765  19.526  0.00  0.00    +0.000 A 
ATOM      5  C   UNL     1       1.679   9.479  18.333  0.00  0.00    +0.000 A 
ATOM      6  C   UNL     1       2.319   8.255  18.131  0.00  0.00    +0.000 A 
ATOM      7  F   UNL     1       2.998   8.057  16.991  0.00  0.00    +0.000 F 
ENDROOT
BRANCH   1   9
ATOM      8  O   UNL     1       2.338   4.968  19.347  0.00  0.00    +0.000 OA
ATOM      9  C   UNL     1       2.952   5.972  19.039  0.00  0.00    +0.000 C 
ATOM     10  N   UNL     1       4.260   5.968  18.552  0.00  0.00    +0.000 N 
ATOM     11  H   UNL     1       4.853   6.773  18.750  0.00  0.00    +0.000 HD
BRANCH  10  12
ATOM     12  S   UNL     1       5.143   4.570  18.433  0.00  0.00    +0.000 S 
ATOM     13  O   UNL     1       5.158   3.932  19.719  0.00  0.00    +0.000 OA
ATOM     14  O   UNL     1       4.846   3.876  17.198  0.00  0.00    +0.000 OA
BRANCH  12  15
ATOM     15  N   UNL     1       6.649   5.300  18.218  0.00  0.00    +0.000 NA
ATOM     16  C   UNL     1       6.824   6.655  17.614  0.00  0.00    +0.000 C 
ATOM     17  C   UNL     1       8.113   6.835  18.429  0.00  0.00    +0.000 C 
ATOM     18  C   UNL     1       7.568   5.709  19.324  0.00  0.00    +0.000 C 
ENDBRANCH  12  15
ENDBRANCH  10  12
ENDBRANCH   1   9
BRANCH   3  19
ATOM     19  C   UNL     1       0.010   8.835  21.828  0.00  0.00    +0.000 C 
ATOM     20  C   UNL     1       0.619   9.443  23.126  0.00  0.00    +0.000 C 
ATOM     21  C   UNL     1      -0.527  10.093  22.369  0.00  0.00    +0.000 C 
ENDBRANCH   3  19
BRANCH   4  22
ATOM     22  O   UNL     1       0.510  11.064  19.494  0.00  0.00    +0.000 OA
BRANCH  22  23
ATOM     23  C   UNL     1       1.419  12.163  19.464  0.00  0.00    +0.000 C 
ATOM     24  C   UNL     1       1.091  13.222  18.386  0.00  0.00    +0.000 C 
ATOM     25  C   UNL     1      -0.193  14.002  18.736  0.00  0.00    +0.000 C 
ATOM     26  C   UNL     1      -0.023  14.747  20.070  0.00  0.00    +0.000 C 
ATOM     27  C   UNL     1       0.221  13.698  21.165  0.00  0.00    +0.000 C 
ATOM     28  C   UNL     1       1.488  12.882  20.848  0.00  0.00    +0.000 C 
ATOM     29  C   UNL     1       2.684  13.860  20.793  0.00  0.00    +0.000 C 
ATOM     30  C   UNL     1       2.459  14.905  19.677  0.00  0.00    +0.000 C 
ATOM     31 CL   UNL     1       3.863  16.005  19.595  0.00  0.00    +0.000 Cl
ATOM     32  C   UNL     1       1.181  15.705  19.987  0.00  0.00    +0.000 C 
ATOM     33  C   UNL     1       2.274  14.206  18.316  0.00  0.00    +0.000 C 
ENDBRANCH  22  23
ENDBRANCH   4  22
TORSDOF 6
ENDMDL
MODEL 8
REMARK VINA RESULT:      -7.9      5.187      9.251
REMARK  Name = 
REMARK  6 active torsions:
REMARK  status: ('A' for Active; 'I' for Inactive)
REMARK    1  A    between atoms: C_2  and  C_11
REMARK    2  A    between atoms: N_3  and  S_4
REMARK    3  A    between atoms: S_4  and  N_7
REMARK    4  A    between atoms: C_13  and  C_14
REMARK    5  A    between atoms: C_17  and  O_18
REMARK    6  A    between atoms: O_18  and  C_19
REMARK                            x       y       z     vdW  Elec       q    Type
REMARK                         _______ _______ _______ _____ _____    ______ ____
ROOT
ATOM      1  C   UNL     1      -0.181  10.518  21.902  0.00  0.00    +0.000 A 
ATOM      2  C   UNL     1       0.102  10.551  20.533  0.00  0.00    +0.000 A 
ATOM      3  C   UNL     1       0.864   9.573  19.840  0.00  0.00    +0.000 A 
ATOM      4  C   UNL     1       1.369   8.514  20.651  0.00  0.00    +0.000 A 
ATOM      5  C   UNL     1       1.014   8.438  22.017  0.00  0.00    +0.000 A 
ATOM      6  C   UNL     1       0.243   9.426  22.633  0.00  0.00    +0.000 A 
ATOM      7  F   UNL     1      -0.034   9.313  23.942  0.00  0.00    +0.000 F 
ENDROOT
BRANCH   1   9
ATOM      8  O   UNL     1      -0.403  12.516  23.090  0.00  0.00    +0.000 OA
ATOM      9  C   UNL     1      -0.969  11.648  22.452  0.00  0.00    +0.000 C 
ATOM     10  N   UNL     1      -2.330  11.666  22.149  0.00  0.00    +0.000 N 
ATOM     11  H   UNL     1      -2.816  10.774  22.049  0.00  0.00    +0.000 HD
BRANCH  10  12
ATOM     12  S   UNL     1      -3.338  12.852  22.719  0.00  0.00    +0.000 S 
ATOM     13  O   UNL     1      -3.583  12.607  24.114  0.00  0.00    +0.000 OA
ATOM     14  O   UNL     1      -2.965  14.145  22.188  0.00  0.00    +0.000 OA
BRANCH  12  15
ATOM     15  N   UNL     1      -4.717  12.370  21.876  0.00  0.00    +0.000 NA
ATOM     16  C   UNL     1      -6.089  12.865  22.200  0.00  0.00    +0.000 C 
ATOM     17  C   UNL     1      -6.495  12.652  20.734  0.00  0.00    +0.000 C 
ATOM     18  C   UNL     1      -4.986  12.662  20.436  0.00  0.00    +0.000 C 
ENDBRANCH  12  15
ENDBRANCH  10  12
ENDBRANCH   1   9
BRANCH   3  19
ATOM     19  C   UNL     1       1.041   9.768  18.322  0.00  0.00    +0.000 C 
ATOM     20  C   UNL     1       2.167  10.681  17.754  0.00  0.00    +0.000 C 
ATOM     21  C   UNL     1       2.151   9.174  17.559  0.00  0.00    +0.000 C 
ENDBRANCH   3  19
BRANCH   4  22
ATOM     22  O   UNL     1       2.193   7.456  20.323  0.00  0.00    +0.000 OA
BRANCH  22  23
ATOM     23  C   UNL     1       1.648   6.237  19.821  0.00  0.00    +0.000 C 
ATOM     24  C   UNL     1       2.273   5.772  18.484  0.00  0.00    +0.000 C 
ATOM     25  C   UNL     1       3.730   5.305  18.677  0.00  0.00    +0.000 C 
ATOM     26  C   UNL     1       3.788   4.113  19.646  0.00  0.00    +0.000 C 
ATOM     27  C   UNL     1       3.248   4.586  21.003  0.00  0.00    +0.000 C 
ATOM     28  C   UNL     1       1.796   5.078  20.856  0.00  0.00    +0.000 C 
ATOM     29  C   UNL     1       0.942   3.897  20.341  0.00  0.00    +0.000 C 
ATOM     30  C   UNL     1       1.463   3.430  18.963  0.00  0.00    +0.000 C 
ATOM     31 CL   UNL     1       0.446   2.093  18.360  0.00  0.00    +0.000 Cl
ATOM     32  C   UNL     1       2.920   2.958  19.112  0.00  0.00    +0.000 C 
ATOM     33  C   UNL     1       1.432   4.595  17.955  0.00  0.00    +0.000 C 
ENDBRANCH  22  23
ENDBRANCH   4  22
TORSDOF 6
ENDMDL
MODEL 9
REMARK VINA RESULT:      -7.9      4.338      8.631
REMARK  Name = 
REMARK  6 active torsions:
REMARK  status: ('A' for Active; 'I' for Inactive)
REMARK    1  A    between atoms: C_2  and  C_11
REMARK    2  A    between atoms: N_3  and  S_4
REMARK    3  A    between atoms: S_4  and  N_7
REMARK    4  A    between atoms: C_13  and  C_14
REMARK    5  A    between atoms: C_17  and  O_18
REMARK    6  A    between atoms: O_18  and  C_19
REMARK                            x       y       z     vdW  Elec       q    Type
REMARK                         _______ _______ _______ _____ _____    ______ ____
ROOT
ATOM      1  C   UNL     1       1.039   9.550  19.854  0.00  0.00    +0.000 A 
ATOM      2  C   UNL     1       1.124   8.326  20.523  0.00  0.00    +0.000 A 
ATOM      3  C   UNL     1       1.736   7.157  19.997  0.00  0.00    +0.000 A 
ATOM      4  C   UNL     1       2.266   7.292  18.680  0.00  0.00    +0.000 A 
ATOM      5  C   UNL     1       2.252   8.552  18.038  0.00  0.00    +0.000 A 
ATOM      6  C   UNL     1       1.650   9.669  18.622  0.00  0.00    +0.000 A 
ATOM      7  F   UNL     1       1.642  10.829  17.948  0.00  0.00    +0.000 F 
ENDROOT
BRANCH   1   9
ATOM      8  O   UNL     1       0.791  11.088  21.594  0.00  0.00    +0.000 OA
ATOM      9  C   UNL     1       0.333  10.651  20.555  0.00  0.00    +0.000 C 
ATOM     10  N   UNL     1      -0.807  11.158  19.932  0.00  0.00    +0.000 N 
ATOM     11  H   UNL     1      -1.384  10.519  19.384  0.00  0.00    +0.000 HD
BRANCH  10  12
ATOM     12  S   UNL     1      -1.710  12.369  20.613  0.00  0.00    +0.000 S 
ATOM     13  O   UNL     1      -3.051  12.276  20.104  0.00  0.00    +0.000 OA
ATOM     14  O   UNL     1      -1.396  12.520  22.017  0.00  0.00    +0.000 OA
BRANCH  12  15
ATOM     15  N   UNL     1      -0.961  13.654  19.816  0.00  0.00    +0.000 NA
ATOM     16  C   UNL     1       0.247  14.353  20.347  0.00  0.00    +0.000 C 
ATOM     17  C   UNL     1       0.661  14.697  18.908  0.00  0.00    +0.000 C 
ATOM     18  C   UNL     1      -0.284  13.560  18.487  0.00  0.00    +0.000 C 
ENDBRANCH  12  15
ENDBRANCH  10  12
ENDBRANCH   1   9
BRANCH   3  19
ATOM     19  C   UNL     1       1.758   5.909  20.900  0.00  0.00    +0.000 C 
ATOM     20  C   UNL     1       1.064   4.585  20.463  0.00  0.00    +0.000 C 
ATOM     21  C   UNL     1       2.572   4.718  20.608  0.00  0.00    +0.000 C 
ENDBRANCH   3  19
BRANCH   4  22
ATOM     22  O   UNL     1       2.851   6.354  17.854  0.00  0.00    +0.000 OA
BRANCH  22  23
ATOM     23  C   UNL     1       4.191   5.919  18.080  0.00  0.00    +0.000 C 
ATOM     24  C   UNL     1       4.420   4.414  17.805  0.00  0.00    +0.000 C 
ATOM     25  C   UNL     1       4.332   4.100  16.297  0.00  0.00    +0.000 C 
ATOM     26  C   UNL     1       5.411   4.873  15.523  0.00  0.00    +0.000 C 
ATOM     27  C   UNL     1       5.145   6.372  15.721  0.00  0.00    +0.000 C 
ATOM     28  C   UNL     1       5.206   6.731  17.217  0.00  0.00    +0.000 C 
ATOM     29  C   UNL     1       6.622   6.385  17.733  0.00  0.00    +0.000 C 
ATOM     30  C   UNL     1       6.890   4.872  17.560  0.00  0.00    +0.000 C 
ATOM     31 CL   UNL     1       8.510   4.475  18.195  0.00  0.00    +0.000 Cl
ATOM     32  C   UNL     1       6.807   4.515  16.066  0.00  0.00    +0.000 C 
ATOM     33  C   UNL     1       5.827   4.050  18.314  0.00  0.00    +0.000 C 
ENDBRANCH  22  23
ENDBRANCH   4  22
TORSDOF 6
ENDMDL
