MODEL 1
REMARK VINA RESULT:      -8.4      0.000      0.000
REMARK  Name = 
REMARK  12 active torsions:
REMARK  status: ('A' for Active; 'I' for Inactive)
REMARK    1  A    between atoms: C_1  and  C_2
REMARK    2  A    between atoms: C_4  and  O_5
REMARK    3  A    between atoms: O_5  and  C_6
REMARK    4  A    between atoms: C_10  and  C_11
REMARK    5  A    between atoms: C_11  and  N_12
REMARK    6  A    between atoms: C_13  and  C_15
REMARK    7  A    between atoms: C_16  and  C_17
REMARK    8  A    between atoms: N_25  and  C_26
REMARK    9  A    between atoms: C_30  and  C_31
REMARK   10  A    between atoms: C_31  and  C_32
REMARK   11  A    between atoms: C_32  and  C_33
REMARK   12  A    between atoms: C_33  and  O_35
REMARK                            x       y       z     vdW  Elec       q    Type
REMARK                         _______ _______ _______ _____ _____    ______ ____
ROOT
ATOM      1  C   UNL     1       4.588   5.731  17.739  0.00  0.00    +0.000 A 
ATOM      2  C   UNL     1       3.801   4.932  18.569  0.00  0.00    +0.000 A 
ATOM      3  C   UNL     1       2.567   5.398  19.018  0.00  0.00    +0.000 A 
ATOM      4  C   UNL     1       2.150   6.690  18.694  0.00  0.00    +0.000 A 
ATOM      5  C   UNL     1       2.973   7.535  17.936  0.00  0.00    +0.000 A 
ATOM      6  C   UNL     1       4.189   7.037  17.446  0.00  0.00    +0.000 A 
ENDROOT
BRANCH   1   7
ATOM      7  O   UNL     1       5.809   5.344  17.230  0.00  0.00    +0.000 OA
BRANCH   7  11
ATOM      8  C   UNL     1       8.227   5.567  13.050  0.00  0.00    +0.000 C 
ATOM      9  C   UNL     1       7.112   4.934  13.832  0.00  0.00    +0.000 A 
ATOM     10  C   UNL     1       6.937   5.342  15.170  0.00  0.00    +0.000 A 
ATOM     11  C   UNL     1       5.898   4.841  15.949  0.00  0.00    +0.000 A 
ATOM     12  C   UNL     1       4.995   3.953  15.388  0.00  0.00    +0.000 A 
ATOM     13  C   UNL     1       5.175   3.505  14.079  0.00  0.00    +0.000 A 
ATOM     14  C   UNL     1       6.234   3.972  13.284  0.00  0.00    +0.000 A 
BRANCH  14  15
ATOM     15  C   UNL     1       6.300   3.487  11.849  0.00  0.00    +0.000 C 
BRANCH  15  16
ATOM     16  C   UNL     1       5.496   2.222  11.555  0.00  0.00    +0.000 C 
BRANCH  16  17
ATOM     17  C   UNL     1       6.407   1.065  11.220  0.00  0.00    +0.000 C 
ATOM     18  O   UNL     1       6.052  -0.090  11.052  0.00  0.00    +0.000 OA
BRANCH  17  19
ATOM     19  O   UNL     1       7.704   1.445  11.104  0.00  0.00    +0.000 OA
ATOM     20  H   UNL     1       8.157   1.561  11.961  0.00  0.00    +0.000 HD
ENDBRANCH  17  19
ENDBRANCH  16  17
ENDBRANCH  15  16
ENDBRANCH  14  15
ENDBRANCH   7  11
ENDBRANCH   1   7
BRANCH   5  21
ATOM     21  C   UNL     1       2.596   8.976  17.725  0.00  0.00    +0.000 C 
BRANCH  21  22
ATOM     22  N   UNL     1       1.357   9.367  18.363  0.00  0.00    +0.000 N 
ATOM     23  C   UNL     1       1.221  10.702  18.704  0.00  0.00    +0.000 C 
ATOM     24  O   UNL     1       2.071  11.514  18.342  0.00  0.00    +0.000 OA
ATOM     25  H   UNL     1       0.827   8.669  18.859  0.00  0.00    +0.000 HD
BRANCH  23  26
ATOM     26  C   UNL     1       0.088  11.093  19.537  0.00  0.00    +0.000 A 
ATOM     27  C   UNL     1      -0.092  10.721  20.873  0.00  0.00    +0.000 A 
ATOM     28  C   UNL     1       0.658   9.701  21.662  0.00  0.00    +0.000 C 
ATOM     29  C   UNL     1      -1.170  11.482  21.406  0.00  0.00    +0.000 A 
ATOM     30  C   UNL     1      -1.689  11.640  22.707  0.00  0.00    +0.000 A 
ATOM     31  C   UNL     1      -2.890  12.323  22.879  0.00  0.00    +0.000 A 
ATOM     32 CL   UNL     1      -3.530  12.517  24.467  0.00  0.00    +0.000 Cl
ATOM     33  C   UNL     1      -3.583  12.827  21.785  0.00  0.00    +0.000 A 
ATOM     34  C   UNL     1      -3.040  12.750  20.495  0.00  0.00    +0.000 A 
ATOM     35  C   UNL     1      -1.800  12.106  20.334  0.00  0.00    +0.000 A 
ATOM     36  N   UNL     1      -0.949  11.971  19.244  0.00  0.00    +0.000 N 
ATOM     37  C   UNL     1      -1.035  12.802  18.059  0.00  0.00    +0.000 C 
ENDBRANCH  23  26
ENDBRANCH  21  22
ENDBRANCH   5  21
TORSDOF 9
ENDMDL
MODEL 2
REMARK VINA RESULT:      -8.4      4.692     11.447
REMARK  Name = 
REMARK  12 active torsions:
REMARK  status: ('A' for Active; 'I' for Inactive)
REMARK    1  A    between atoms: C_1  and  C_2
REMARK    2  A    between atoms: C_4  and  O_5
REMARK    3  A    between atoms: O_5  and  C_6
REMARK    4  A    between atoms: C_10  and  C_11
REMARK    5  A    between atoms: C_11  and  N_12
REMARK    6  A    between atoms: C_13  and  C_15
REMARK    7  A    between atoms: C_16  and  C_17
REMARK    8  A    between atoms: N_25  and  C_26
REMARK    9  A    between atoms: C_30  and  C_31
REMARK   10  A    between atoms: C_31  and  C_32
REMARK   11  A    between atoms: C_32  and  C_33
REMARK   12  A    between atoms: C_33  and  O_35
REMARK                            x       y       z     vdW  Elec       q    Type
REMARK                         _______ _______ _______ _____ _____    ______ ____
ROOT
ATOM      1  C   UNL     1       0.524  10.055  19.976  0.00  0.00    +0.000 A 
ATOM      2  C   UNL     1       0.241  10.613  21.224  0.00  0.00    +0.000 A 
ATOM      3  C   UNL     1       0.569   9.919  22.387  0.00  0.00    +0.000 A 
ATOM      4  C   UNL     1       1.117   8.638  22.303  0.00  0.00    +0.000 A 
ATOM      5  C   UNL     1       1.321   8.031  21.056  0.00  0.00    +0.000 A 
ATOM      6  C   UNL     1       1.036   8.758  19.892  0.00  0.00    +0.000 A 
ENDROOT
BRANCH   1   7
ATOM      7  O   UNL     1       0.255  10.677  18.776  0.00  0.00    +0.000 OA
BRANCH   7  11
ATOM      8  C   UNL     1      -3.130   9.667  15.476  0.00  0.00    +0.000 C 
ATOM      9  C   UNL     1      -2.775  10.401  16.738  0.00  0.00    +0.000 A 
ATOM     10  C   UNL     1      -1.475  10.224  17.254  0.00  0.00    +0.000 A 
ATOM     11  C   UNL     1      -1.049  10.905  18.391  0.00  0.00    +0.000 A 
ATOM     12  C   UNL     1      -1.907  11.803  19.007  0.00  0.00    +0.000 A 
ATOM     13  C   UNL     1      -3.211  11.960  18.537  0.00  0.00    +0.000 A 
ATOM     14  C   UNL     1      -3.673  11.260  17.410  0.00  0.00    +0.000 A 
BRANCH  14  15
ATOM     15  C   UNL     1      -5.080  11.558  16.928  0.00  0.00    +0.000 C 
BRANCH  15  16
ATOM     16  C   UNL     1      -5.954  12.325  17.918  0.00  0.00    +0.000 C 
BRANCH  16  17
ATOM     17  C   UNL     1      -6.831  11.383  18.709  0.00  0.00    +0.000 C 
ATOM     18  O   UNL     1      -6.900  10.176  18.549  0.00  0.00    +0.000 OA
BRANCH  17  19
ATOM     19  O   UNL     1      -7.553  12.026  19.662  0.00  0.00    +0.000 OA
ATOM     20  H   UNL     1      -7.028  12.649  20.200  0.00  0.00    +0.000 HD
ENDBRANCH  17  19
ENDBRANCH  16  17
ENDBRANCH  15  16
ENDBRANCH  14  15
ENDBRANCH   7  11
ENDBRANCH   1   7
BRANCH   5  21
ATOM     21  C   UNL     1       1.757   6.593  20.972  0.00  0.00    +0.000 C 
BRANCH  21  22
ATOM     22  N   UNL     1       2.467   6.257  19.756  0.00  0.00    +0.000 N 
ATOM     23  C   UNL     1       3.108   5.030  19.723  0.00  0.00    +0.000 C 
ATOM     24  O   UNL     1       2.944   4.231  20.644  0.00  0.00    +0.000 OA
ATOM     25  H   UNL     1       2.789   7.003  19.161  0.00  0.00    +0.000 HD
BRANCH  23  26
ATOM     26  C   UNL     1       4.008   4.747  18.610  0.00  0.00    +0.000 A 
ATOM     27  C   UNL     1       3.626   4.172  17.394  0.00  0.00    +0.000 A 
ATOM     28  C   UNL     1       2.329   3.525  17.040  0.00  0.00    +0.000 C 
ATOM     29  C   UNL     1       4.719   4.277  16.489  0.00  0.00    +0.000 A 
ATOM     30  C   UNL     1       4.858   4.015  15.110  0.00  0.00    +0.000 A 
ATOM     31  C   UNL     1       6.129   4.039  14.541  0.00  0.00    +0.000 A 
ATOM     32 CL   UNL     1       6.305   3.718  12.858  0.00  0.00    +0.000 Cl
ATOM     33  C   UNL     1       7.251   4.297  15.320  0.00  0.00    +0.000 A 
ATOM     34  C   UNL     1       7.120   4.640  16.673  0.00  0.00    +0.000 A 
ATOM     35  C   UNL     1       5.829   4.666  17.230  0.00  0.00    +0.000 A 
ATOM     36  N   UNL     1       5.352   5.076  18.469  0.00  0.00    +0.000 N 
ATOM     37  C   UNL     1       6.111   5.912  19.377  0.00  0.00    +0.000 C 
ENDBRANCH  23  26
ENDBRANCH  21  22
ENDBRANCH   5  21
TORSDOF 9
ENDMDL
MODEL 3
REMARK VINA RESULT:      -8.1      3.760      5.685
REMARK  Name = 
REMARK  12 active torsions:
REMARK  status: ('A' for Active; 'I' for Inactive)
REMARK    1  A    between atoms: C_1  and  C_2
REMARK    2  A    between atoms: C_4  and  O_5
REMARK    3  A    between atoms: O_5  and  C_6
REMARK    4  A    between atoms: C_10  and  C_11
REMARK    5  A    between atoms: C_11  and  N_12
REMARK    6  A    between atoms: C_13  and  C_15
REMARK    7  A    between atoms: C_16  and  C_17
REMARK    8  A    between atoms: N_25  and  C_26
REMARK    9  A    between atoms: C_30  and  C_31
REMARK   10  A    between atoms: C_31  and  C_32
REMARK   11  A    between atoms: C_32  and  C_33
REMARK   12  A    between atoms: C_33  and  O_35
REMARK                            x       y       z     vdW  Elec       q    Type
REMARK                         _______ _______ _______ _____ _____    ______ ____
ROOT
ATOM      1  C   UNL     1       3.196   4.095  17.662  0.00  0.00    +0.000 A 
ATOM      2  C   UNL     1       2.322   3.012  17.552  0.00  0.00    +0.000 A 
ATOM      3  C   UNL     1       1.259   2.882  18.443  0.00  0.00    +0.000 A 
ATOM      4  C   UNL     1       1.107   3.798  19.486  0.00  0.00    +0.000 A 
ATOM      5  C   UNL     1       2.031   4.837  19.661  0.00  0.00    +0.000 A 
ATOM      6  C   UNL     1       3.067   4.988  18.728  0.00  0.00    +0.000 A 
ENDROOT
BRANCH   1   7
ATOM      7  O   UNL     1       4.260   4.315  16.815  0.00  0.00    +0.000 OA
BRANCH   7  11
ATOM      8  C   UNL     1       8.299   5.092  19.355  0.00  0.00    +0.000 C 
ATOM      9  C   UNL     1       7.272   5.651  18.413  0.00  0.00    +0.000 A 
ATOM     10  C   UNL     1       6.245   4.790  17.976  0.00  0.00    +0.000 A 
ATOM     11  C   UNL     1       5.226   5.242  17.142  0.00  0.00    +0.000 A 
ATOM     12  C   UNL     1       5.200   6.575  16.763  0.00  0.00    +0.000 A 
ATOM     13  C   UNL     1       6.229   7.433  17.149  0.00  0.00    +0.000 A 
ATOM     14  C   UNL     1       7.284   6.992  17.965  0.00  0.00    +0.000 A 
BRANCH  14  15
ATOM     15  C   UNL     1       8.313   8.019  18.397  0.00  0.00    +0.000 C 
BRANCH  15  16
ATOM     16  C   UNL     1       8.149   9.402  17.772  0.00  0.00    +0.000 C 
BRANCH  16  17
ATOM     17  C   UNL     1       9.016  10.421  18.473  0.00  0.00    +0.000 C 
ATOM     18  O   UNL     1       9.295  11.529  18.045  0.00  0.00    +0.000 OA
BRANCH  17  19
ATOM     19  O   UNL     1       9.461   9.980  19.677  0.00  0.00    +0.000 OA
ATOM     20  H   UNL     1       9.790  10.692  20.258  0.00  0.00    +0.000 HD
ENDBRANCH  17  19
ENDBRANCH  16  17
ENDBRANCH  15  16
ENDBRANCH  14  15
ENDBRANCH   7  11
ENDBRANCH   1   7
BRANCH   5  21
ATOM     21  C   UNL     1       1.961   5.723  20.875  0.00  0.00    +0.000 C 
BRANCH  21  22
ATOM     22  N   UNL     1       2.067   7.137  20.588  0.00  0.00    +0.000 N 
ATOM     23  C   UNL     1       0.957   7.918  20.862  0.00  0.00    +0.000 C 
ATOM     24  O   UNL     1      -0.005   7.426  21.451  0.00  0.00    +0.000 OA
ATOM     25  H   UNL     1       2.732   7.442  19.895  0.00  0.00    +0.000 HD
BRANCH  23  26
ATOM     26  C   UNL     1       0.945   9.299  20.388  0.00  0.00    +0.000 A 
ATOM     27  C   UNL     1       0.587  10.409  21.159  0.00  0.00    +0.000 A 
ATOM     28  C   UNL     1      -0.062  10.436  22.503  0.00  0.00    +0.000 C 
ATOM     29  C   UNL     1       0.928  11.584  20.433  0.00  0.00    +0.000 A 
ATOM     30  C   UNL     1       0.940  12.954  20.765  0.00  0.00    +0.000 A 
ATOM     31  C   UNL     1       1.149  13.893  19.759  0.00  0.00    +0.000 A 
ATOM     32 CL   UNL     1       1.162  15.569  20.159  0.00  0.00    +0.000 Cl
ATOM     33  C   UNL     1       1.325  13.493  18.439  0.00  0.00    +0.000 A 
ATOM     34  C   UNL     1       1.398  12.134  18.107  0.00  0.00    +0.000 A 
ATOM     35  C   UNL     1       1.239  11.188  19.136  0.00  0.00    +0.000 A 
ATOM     36  N   UNL     1       1.378   9.807  19.169  0.00  0.00    +0.000 N 
ATOM     37  C   UNL     1       2.074   9.052  18.145  0.00  0.00    +0.000 C 
ENDBRANCH  23  26
ENDBRANCH  21  22
ENDBRANCH   5  21
TORSDOF 9
ENDMDL
MODEL 4
REMARK VINA RESULT:      -7.9      2.321      3.892
REMARK  Name = 
REMARK  12 active torsions:
REMARK  status: ('A' for Active; 'I' for Inactive)
REMARK    1  A    between atoms: C_1  and  C_2
REMARK    2  A    between atoms: C_4  and  O_5
REMARK    3  A    between atoms: O_5  and  C_6
REMARK    4  A    between atoms: C_10  and  C_11
REMARK    5  A    between atoms: C_11  and  N_12
REMARK    6  A    between atoms: C_13  and  C_15
REMARK    7  A    between atoms: C_16  and  C_17
REMARK    8  A    between atoms: N_25  and  C_26
REMARK    9  A    between atoms: C_30  and  C_31
REMARK   10  A    between atoms: C_31  and  C_32
REMARK   11  A    between atoms: C_32  and  C_33
REMARK   12  A    between atoms: C_33  and  O_35
REMARK                            x       y       z     vdW  Elec       q    Type
REMARK                         _______ _______ _______ _____ _____    ______ ____
ROOT
ATOM      1  C   UNL     1       2.439   7.289  19.219  0.00  0.00    +0.000 A 
ATOM      2  C   UNL     1       2.303   7.957  18.002  0.00  0.00    +0.000 A 
ATOM      3  C   UNL     1       1.631   9.178  17.949  0.00  0.00    +0.000 A 
ATOM      4  C   UNL     1       1.037   9.697  19.100  0.00  0.00    +0.000 A 
ATOM      5  C   UNL     1       1.089   8.989  20.310  0.00  0.00    +0.000 A 
ATOM      6  C   UNL     1       1.811   7.789  20.363  0.00  0.00    +0.000 A 
ENDROOT
BRANCH   1   7
ATOM      7  O   UNL     1       3.103   6.091  19.369  0.00  0.00    +0.000 OA
BRANCH   7  11
ATOM      8  C   UNL     1       7.417   6.779  17.298  0.00  0.00    +0.000 C 
ATOM      9  C   UNL     1       6.147   5.979  17.335  0.00  0.00    +0.000 A 
ATOM     10  C   UNL     1       5.192   6.311  18.318  0.00  0.00    +0.000 A 
ATOM     11  C   UNL     1       3.968   5.651  18.389  0.00  0.00    +0.000 A 
ATOM     12  C   UNL     1       3.666   4.674  17.453  0.00  0.00    +0.000 A 
ATOM     13  C   UNL     1       4.614   4.302  16.500  0.00  0.00    +0.000 A 
ATOM     14  C   UNL     1       5.868   4.932  16.428  0.00  0.00    +0.000 A 
BRANCH  14  15
ATOM     15  C   UNL     1       6.799   4.512  15.307  0.00  0.00    +0.000 C 
BRANCH  15  16
ATOM     16  C   UNL     1       6.219   3.491  14.331  0.00  0.00    +0.000 C 
BRANCH  16  17
ATOM     17  C   UNL     1       6.489   3.894  12.900  0.00  0.00    +0.000 C 
ATOM     18  O   UNL     1       5.923   3.443  11.918  0.00  0.00    +0.000 OA
BRANCH  17  19
ATOM     19  O   UNL     1       7.447   4.850  12.804  0.00  0.00    +0.000 OA
ATOM     20  H   UNL     1       8.034   4.742  12.032  0.00  0.00    +0.000 HD
ENDBRANCH  17  19
ENDBRANCH  16  17
ENDBRANCH  15  16
ENDBRANCH  14  15
ENDBRANCH   7  11
ENDBRANCH   1   7
BRANCH   5  21
ATOM     21  C   UNL     1       0.313   9.468  21.506  0.00  0.00    +0.000 C 
BRANCH  21  22
ATOM     22  N   UNL     1      -0.910  10.171  21.180  0.00  0.00    +0.000 N 
ATOM     23  C   UNL     1      -0.979  11.508  21.534  0.00  0.00    +0.000 C 
ATOM     24  O   UNL     1       0.020  12.075  21.975  0.00  0.00    +0.000 OA
ATOM     25  H   UNL     1      -1.759   9.640  21.070  0.00  0.00    +0.000 HD
BRANCH  23  26
ATOM     26  C   UNL     1      -2.264  12.190  21.421  0.00  0.00    +0.000 A 
ATOM     27  C   UNL     1      -2.946  12.424  20.223  0.00  0.00    +0.000 A 
ATOM     28  C   UNL     1      -2.452  12.258  18.825  0.00  0.00    +0.000 C 
ATOM     29  C   UNL     1      -4.253  12.891  20.538  0.00  0.00    +0.000 A 
ATOM     30  C   UNL     1      -5.404  13.136  19.761  0.00  0.00    +0.000 A 
ATOM     31  C   UNL     1      -6.491  13.779  20.346  0.00  0.00    +0.000 A 
ATOM     32 CL   UNL     1      -7.899  14.083  19.400  0.00  0.00    +0.000 Cl
ATOM     33  C   UNL     1      -6.443  14.194  21.672  0.00  0.00    +0.000 A 
ATOM     34  C   UNL     1      -5.339  13.885  22.479  0.00  0.00    +0.000 A 
ATOM     35  C   UNL     1      -4.265  13.188  21.897  0.00  0.00    +0.000 A 
ATOM     36  N   UNL     1      -3.110  12.631  22.432  0.00  0.00    +0.000 N 
ATOM     37  C   UNL     1      -2.935  12.368  23.847  0.00  0.00    +0.000 C 
ENDBRANCH  23  26
ENDBRANCH  21  22
ENDBRANCH   5  21
TORSDOF 9
ENDMDL
MODEL 5
REMARK VINA RESULT:      -7.9      4.737     10.989
REMARK  Name = 
REMARK  12 active torsions:
REMARK  status: ('A' for Active; 'I' for Inactive)
REMARK    1  A    between atoms: C_1  and  C_2
REMARK    2  A    between atoms: C_4  and  O_5
REMARK    3  A    between atoms: O_5  and  C_6
REMARK    4  A    between atoms: C_10  and  C_11
REMARK    5  A    between atoms: C_11  and  N_12
REMARK    6  A    between atoms: C_13  and  C_15
REMARK    7  A    between atoms: C_16  and  C_17
REMARK    8  A    between atoms: N_25  and  C_26
REMARK    9  A    between atoms: C_30  and  C_31
REMARK   10  A    between atoms: C_31  and  C_32
REMARK   11  A    between atoms: C_32  and  C_33
REMARK   12  A    between atoms: C_33  and  O_35
REMARK                            x       y       z     vdW  Elec       q    Type
REMARK                         _______ _______ _______ _____ _____    ______ ____
ROOT
ATOM      1  C   UNL     1      -0.115  11.365  20.266  0.00  0.00    +0.000 A 
ATOM      2  C   UNL     1      -0.942  11.794  21.306  0.00  0.00    +0.000 A 
ATOM      3  C   UNL     1      -0.935  11.117  22.524  0.00  0.00    +0.000 A 
ATOM      4  C   UNL     1      -0.153   9.973  22.682  0.00  0.00    +0.000 A 
ATOM      5  C   UNL     1       0.612   9.480  21.615  0.00  0.00    +0.000 A 
ATOM      6  C   UNL     1       0.638  10.198  20.411  0.00  0.00    +0.000 A 
ENDROOT
BRANCH   1   7
ATOM      7  O   UNL     1      -0.040  11.984  19.038  0.00  0.00    +0.000 OA
BRANCH   7  11
ATOM      8  C   UNL     1       0.593  16.775  18.901  0.00  0.00    +0.000 C 
ATOM      9  C   UNL     1       1.213  15.414  18.761  0.00  0.00    +0.000 A 
ATOM     10  C   UNL     1       0.389  14.293  18.984  0.00  0.00    +0.000 A 
ATOM     11  C   UNL     1       0.872  12.997  18.827  0.00  0.00    +0.000 A 
ATOM     12  C   UNL     1       2.179  12.805  18.407  0.00  0.00    +0.000 A 
ATOM     13  C   UNL     1       3.023  13.900  18.221  0.00  0.00    +0.000 A 
ATOM     14  C   UNL     1       2.566  15.216  18.404  0.00  0.00    +0.000 A 
BRANCH  14  15
ATOM     15  C   UNL     1       3.536  16.342  18.101  0.00  0.00    +0.000 C 
BRANCH  15  16
ATOM     16  C   UNL     1       4.422  16.765  19.270  0.00  0.00    +0.000 C 
BRANCH  16  17
ATOM     17  C   UNL     1       5.875  16.463  18.987  0.00  0.00    +0.000 C 
ATOM     18  O   UNL     1       6.392  15.359  19.036  0.00  0.00    +0.000 OA
BRANCH  17  19
ATOM     19  O   UNL     1       6.577  17.573  18.645  0.00  0.00    +0.000 OA
ATOM     20  H   UNL     1       7.504  17.561  18.950  0.00  0.00    +0.000 HD
ENDBRANCH  17  19
ENDBRANCH  16  17
ENDBRANCH  15  16
ENDBRANCH  14  15
ENDBRANCH   7  11
ENDBRANCH   1   7
BRANCH   5  21
ATOM     21  C   UNL     1       1.325   8.161  21.734  0.00  0.00    +0.000 C 
BRANCH  21  22
ATOM     22  N   UNL     1       1.977   7.724  20.518  0.00  0.00    +0.000 N 
ATOM     23  C   UNL     1       1.889   6.378  20.207  0.00  0.00    +0.000 C 
ATOM     24  O   UNL     1       1.165   5.643  20.878  0.00  0.00    +0.000 OA
ATOM     25  H   UNL     1       2.744   8.270  20.157  0.00  0.00    +0.000 HD
BRANCH  23  26
ATOM     26  C   UNL     1       2.709   5.862  19.115  0.00  0.00    +0.000 A 
ATOM     27  C   UNL     1       3.210   6.628  18.057  0.00  0.00    +0.000 A 
ATOM     28  C   UNL     1       2.858   8.026  17.674  0.00  0.00    +0.000 C 
ATOM     29  C   UNL     1       4.147   5.833  17.338  0.00  0.00    +0.000 A 
ATOM     30  C   UNL     1       5.055   6.118  16.298  0.00  0.00    +0.000 A 
ATOM     31  C   UNL     1       5.715   5.066  15.668  0.00  0.00    +0.000 A 
ATOM     32 CL   UNL     1       6.824   5.408  14.395  0.00  0.00    +0.000 Cl
ATOM     33  C   UNL     1       5.470   3.749  16.042  0.00  0.00    +0.000 A 
ATOM     34  C   UNL     1       4.634   3.456  17.127  0.00  0.00    +0.000 A 
ATOM     35  C   UNL     1       4.011   4.526  17.795  0.00  0.00    +0.000 A 
ATOM     36  N   UNL     1       3.246   4.590  18.952  0.00  0.00    +0.000 N 
ATOM     37  C   UNL     1       3.205   3.529  19.939  0.00  0.00    +0.000 C 
ENDBRANCH  23  26
ENDBRANCH  21  22
ENDBRANCH   5  21
TORSDOF 9
ENDMDL
MODEL 6
REMARK VINA RESULT:      -7.9      4.610     11.761
REMARK  Name = 
REMARK  12 active torsions:
REMARK  status: ('A' for Active; 'I' for Inactive)
REMARK    1  A    between atoms: C_1  and  C_2
REMARK    2  A    between atoms: C_4  and  O_5
REMARK    3  A    between atoms: O_5  and  C_6
REMARK    4  A    between atoms: C_10  and  C_11
REMARK    5  A    between atoms: C_11  and  N_12
REMARK    6  A    between atoms: C_13  and  C_15
REMARK    7  A    between atoms: C_16  and  C_17
REMARK    8  A    between atoms: N_25  and  C_26
REMARK    9  A    between atoms: C_30  and  C_31
REMARK   10  A    between atoms: C_31  and  C_32
REMARK   11  A    between atoms: C_32  and  C_33
REMARK   12  A    between atoms: C_33  and  O_35
REMARK                            x       y       z     vdW  Elec       q    Type
REMARK                         _______ _______ _______ _____ _____    ______ ____
ROOT
ATOM      1  C   UNL     1      -0.294  10.541  20.387  0.00  0.00    +0.000 A 
ATOM      2  C   UNL     1      -0.674  11.092  21.612  0.00  0.00    +0.000 A 
ATOM      3  C   UNL     1      -0.233  10.516  22.801  0.00  0.00    +0.000 A 
ATOM      4  C   UNL     1       0.532   9.349  22.769  0.00  0.00    +0.000 A 
ATOM      5  C   UNL     1       0.844   8.736  21.547  0.00  0.00    +0.000 A 
ATOM      6  C   UNL     1       0.439   9.353  20.355  0.00  0.00    +0.000 A 
ENDROOT
BRANCH   1   7
ATOM      7  O   UNL     1      -0.663  11.056  19.164  0.00  0.00    +0.000 OA
BRANCH   7  11
ATOM      8  C   UNL     1      -4.764  13.424  20.142  0.00  0.00    +0.000 C 
ATOM      9  C   UNL     1      -4.077  12.374  19.315  0.00  0.00    +0.000 A 
ATOM     10  C   UNL     1      -2.699  12.170  19.529  0.00  0.00    +0.000 A 
ATOM     11  C   UNL     1      -1.998  11.184  18.841  0.00  0.00    +0.000 A 
ATOM     12  C   UNL     1      -2.676  10.361  17.954  0.00  0.00    +0.000 A 
ATOM     13  C   UNL     1      -4.030  10.575  17.697  0.00  0.00    +0.000 A 
ATOM     14  C   UNL     1      -4.751  11.584  18.357  0.00  0.00    +0.000 A 
BRANCH  14  15
ATOM     15  C   UNL     1      -6.237  11.686  18.069  0.00  0.00    +0.000 C 
BRANCH  15  16
ATOM     16  C   UNL     1      -7.085  10.548  18.634  0.00  0.00    +0.000 C 
BRANCH  16  17
ATOM     17  C   UNL     1      -7.401  10.779  20.092  0.00  0.00    +0.000 C 
ATOM     18  O   UNL     1      -7.343   9.936  20.972  0.00  0.00    +0.000 OA
BRANCH  17  19
ATOM     19  O   UNL     1      -7.755  12.064  20.348  0.00  0.00    +0.000 OA
ATOM     20  H   UNL     1      -7.625  12.666  19.590  0.00  0.00    +0.000 HD
ENDBRANCH  17  19
ENDBRANCH  16  17
ENDBRANCH  15  16
ENDBRANCH  14  15
ENDBRANCH   7  11
ENDBRANCH   1   7
BRANCH   5  21
ATOM     21  C   UNL     1       1.527   7.395  21.521  0.00  0.00    +0.000 C 
BRANCH  21  22
ATOM     22  N   UNL     1       2.234   7.112  20.290  0.00  0.00    +0.000 N 
ATOM     23  C   UNL     1       2.139   5.822  19.795  0.00  0.00    +0.000 C 
ATOM     24  O   UNL     1       1.370   5.020  20.324  0.00  0.00    +0.000 OA
ATOM     25  H   UNL     1       3.027   7.682  20.044  0.00  0.00    +0.000 HD
BRANCH  23  26
ATOM     26  C   UNL     1       3.006   5.439  18.685  0.00  0.00    +0.000 A 
ATOM     27  C   UNL     1       3.548   6.324  17.747  0.00  0.00    +0.000 A 
ATOM     28  C   UNL     1       3.207   7.759  17.520  0.00  0.00    +0.000 C 
ATOM     29  C   UNL     1       4.516   5.620  16.979  0.00  0.00    +0.000 A 
ATOM     30  C   UNL     1       5.466   6.025  16.019  0.00  0.00    +0.000 A 
ATOM     31  C   UNL     1       6.155   5.055  15.296  0.00  0.00    +0.000 A 
ATOM     32 CL   UNL     1       7.315   5.544  14.120  0.00  0.00    +0.000 Cl
ATOM     33  C   UNL     1       5.900   3.703  15.499  0.00  0.00    +0.000 A 
ATOM     34  C   UNL     1       5.020   3.284  16.506  0.00  0.00    +0.000 A 
ATOM     35  C   UNL     1       4.366   4.268  17.270  0.00  0.00    +0.000 A 
ATOM     36  N   UNL     1       3.554   4.195  18.394  0.00  0.00    +0.000 N 
ATOM     37  C   UNL     1       3.475   3.024  19.245  0.00  0.00    +0.000 C 
ENDBRANCH  23  26
ENDBRANCH  21  22
ENDBRANCH   5  21
TORSDOF 9
ENDMDL
MODEL 7
REMARK VINA RESULT:      -7.8      4.788      7.637
REMARK  Name = 
REMARK  12 active torsions:
REMARK  status: ('A' for Active; 'I' for Inactive)
REMARK    1  A    between atoms: C_1  and  C_2
REMARK    2  A    between atoms: C_4  and  O_5
REMARK    3  A    between atoms: O_5  and  C_6
REMARK    4  A    between atoms: C_10  and  C_11
REMARK    5  A    between atoms: C_11  and  N_12
REMARK    6  A    between atoms: C_13  and  C_15
REMARK    7  A    between atoms: C_16  and  C_17
REMARK    8  A    between atoms: N_25  and  C_26
REMARK    9  A    between atoms: C_30  and  C_31
REMARK   10  A    between atoms: C_31  and  C_32
REMARK   11  A    between atoms: C_32  and  C_33
REMARK   12  A    between atoms: C_33  and  O_35
REMARK                            x       y       z     vdW  Elec       q    Type
REMARK                         _______ _______ _______ _____ _____    ______ ____
ROOT
ATOM      1  C   UNL     1      -1.464  10.898  18.142  0.00  0.00    +0.000 A 
ATOM      2  C   UNL     1      -1.800  10.017  17.112  0.00  0.00    +0.000 A 
ATOM      3  C   UNL     1      -3.111   9.961  16.644  0.00  0.00    +0.000 A 
ATOM      4  C   UNL     1      -4.102  10.735  17.251  0.00  0.00    +0.000 A 
ATOM      5  C   UNL     1      -3.794  11.555  18.346  0.00  0.00    +0.000 A 
ATOM      6  C   UNL     1      -2.462  11.643  18.774  0.00  0.00    +0.000 A 
ENDROOT
BRANCH   1   7
ATOM      7  O   UNL     1      -0.192  11.036  18.651  0.00  0.00    +0.000 OA
BRANCH   7  11
ATOM      8  C   UNL     1       3.056   7.612  17.603  0.00  0.00    +0.000 C 
ATOM      9  C   UNL     1       2.129   8.202  18.626  0.00  0.00    +0.000 A 
ATOM     10  C   UNL     1       1.402   9.354  18.263  0.00  0.00    +0.000 A 
ATOM     11  C   UNL     1       0.485   9.935  19.135  0.00  0.00    +0.000 A 
ATOM     12  C   UNL     1       0.254   9.349  20.369  0.00  0.00    +0.000 A 
ATOM     13  C   UNL     1       0.994   8.234  20.764  0.00  0.00    +0.000 A 
ATOM     14  C   UNL     1       1.947   7.649  19.913  0.00  0.00    +0.000 A 
BRANCH  14  15
ATOM     15  C   UNL     1       2.643   6.392  20.401  0.00  0.00    +0.000 C 
BRANCH  15  16
ATOM     16  C   UNL     1       1.754   5.153  20.491  0.00  0.00    +0.000 C 
BRANCH  16  17
ATOM     17  C   UNL     1       1.928   4.272  19.277  0.00  0.00    +0.000 C 
ATOM     18  O   UNL     1       1.041   3.638  18.729  0.00  0.00    +0.000 OA
BRANCH  17  19
ATOM     19  O   UNL     1       3.208   4.260  18.825  0.00  0.00    +0.000 OA
ATOM     20  H   UNL     1       3.299   4.546  17.896  0.00  0.00    +0.000 HD
ENDBRANCH  17  19
ENDBRANCH  16  17
ENDBRANCH  15  16
ENDBRANCH  14  15
ENDBRANCH   7  11
ENDBRANCH   1   7
BRANCH   5  21
ATOM     21  C   UNL     1      -4.887  12.262  19.100  0.00  0.00    +0.000 C 
BRANCH  21  22
ATOM     22  N   UNL     1      -4.415  13.170  20.122  0.00  0.00    +0.000 N 
ATOM     23  C   UNL     1      -4.926  13.000  21.398  0.00  0.00    +0.000 C 
ATOM     24  O   UNL     1      -5.637  12.026  21.645  0.00  0.00    +0.000 OA
ATOM     25  H   UNL     1      -4.061  14.071  19.844  0.00  0.00    +0.000 HD
BRANCH  23  26
ATOM     26  C   UNL     1      -4.645  14.022  22.401  0.00  0.00    +0.000 A 
ATOM     27  C   UNL     1      -3.432  14.165  23.082  0.00  0.00    +0.000 A 
ATOM     28  C   UNL     1      -2.275  13.224  23.127  0.00  0.00    +0.000 C 
ATOM     29  C   UNL     1      -3.462  15.400  23.789  0.00  0.00    +0.000 A 
ATOM     30  C   UNL     1      -2.488  16.126  24.504  0.00  0.00    +0.000 A 
ATOM     31  C   UNL     1      -2.882  17.232  25.254  0.00  0.00    +0.000 A 
ATOM     32 CL   UNL     1      -1.696  18.121  26.132  0.00  0.00    +0.000 Cl
ATOM     33  C   UNL     1      -4.218  17.608  25.316  0.00  0.00    +0.000 A 
ATOM     34  C   UNL     1      -5.185  16.947  24.545  0.00  0.00    +0.000 A 
ATOM     35  C   UNL     1      -4.773  15.864  23.748  0.00  0.00    +0.000 A 
ATOM     36  N   UNL     1      -5.433  15.097  22.797  0.00  0.00    +0.000 N 
ATOM     37  C   UNL     1      -6.676  15.501  22.171  0.00  0.00    +0.000 C 
ENDBRANCH  23  26
ENDBRANCH  21  22
ENDBRANCH   5  21
TORSDOF 9
ENDMDL
MODEL 8
REMARK VINA RESULT:      -7.8      2.866      5.393
REMARK  Name = 
REMARK  12 active torsions:
REMARK  status: ('A' for Active; 'I' for Inactive)
REMARK    1  A    between atoms: C_1  and  C_2
REMARK    2  A    between atoms: C_4  and  O_5
REMARK    3  A    between atoms: O_5  and  C_6
REMARK    4  A    between atoms: C_10  and  C_11
REMARK    5  A    between atoms: C_11  and  N_12
REMARK    6  A    between atoms: C_13  and  C_15
REMARK    7  A    between atoms: C_16  and  C_17
REMARK    8  A    between atoms: N_25  and  C_26
REMARK    9  A    between atoms: C_30  and  C_31
REMARK   10  A    between atoms: C_31  and  C_32
REMARK   11  A    between atoms: C_32  and  C_33
REMARK   12  A    between atoms: C_33  and  O_35
REMARK                            x       y       z     vdW  Elec       q    Type
REMARK                         _______ _______ _______ _____ _____    ______ ____
ROOT
ATOM      1  C   UNL     1       1.427   8.046  20.404  0.00  0.00    +0.000 A 
ATOM      2  C   UNL     1       1.471   8.792  19.225  0.00  0.00    +0.000 A 
ATOM      3  C   UNL     1       1.018  10.110  19.217  0.00  0.00    +0.000 A 
ATOM      4  C   UNL     1       0.457  10.661  20.371  0.00  0.00    +0.000 A 
ATOM      5  C   UNL     1       0.324   9.891  21.535  0.00  0.00    +0.000 A 
ATOM      6  C   UNL     1       0.831   8.584  21.547  0.00  0.00    +0.000 A 
ENDROOT
BRANCH   1   7
ATOM      7  O   UNL     1       1.872   6.747  20.510  0.00  0.00    +0.000 OA
BRANCH   7  11
ATOM      8  C   UNL     1       2.198   2.841  17.679  0.00  0.00    +0.000 C 
ATOM      9  C   UNL     1       2.734   4.202  18.021  0.00  0.00    +0.000 A 
ATOM     10  C   UNL     1       2.095   4.917  19.054  0.00  0.00    +0.000 A 
ATOM     11  C   UNL     1       2.559   6.163  19.466  0.00  0.00    +0.000 A 
ATOM     12  C   UNL     1       3.694   6.695  18.875  0.00  0.00    +0.000 A 
ATOM     13  C   UNL     1       4.317   6.022  17.823  0.00  0.00    +0.000 A 
ATOM     14  C   UNL     1       3.848   4.778  17.370  0.00  0.00    +0.000 A 
BRANCH  14  15
ATOM     15  C   UNL     1       4.638   4.088  16.274  0.00  0.00    +0.000 C 
BRANCH  15  16
ATOM     16  C   UNL     1       6.155   4.227  16.386  0.00  0.00    +0.000 C 
BRANCH  16  17
ATOM     17  C   UNL     1       6.777   4.483  15.034  0.00  0.00    +0.000 C 
ATOM     18  O   UNL     1       7.543   5.395  14.768  0.00  0.00    +0.000 OA
BRANCH  17  19
ATOM     19  O   UNL     1       6.404   3.562  14.109  0.00  0.00    +0.000 OA
ATOM     20  H   UNL     1       6.917   2.733  14.152  0.00  0.00    +0.000 HD
ENDBRANCH  17  19
ENDBRANCH  16  17
ENDBRANCH  15  16
ENDBRANCH  14  15
ENDBRANCH   7  11
ENDBRANCH   1   7
BRANCH   5  21
ATOM     21  C   UNL     1      -0.426  10.431  22.723  0.00  0.00    +0.000 C 
BRANCH  21  22
ATOM     22  N   UNL     1      -1.540  11.291  22.383  0.00  0.00    +0.000 N 
ATOM     23  C   UNL     1      -1.477  12.602  22.823  0.00  0.00    +0.000 C 
ATOM     24  O   UNL     1      -0.448  13.020  23.352  0.00  0.00    +0.000 OA
ATOM     25  H   UNL     1      -2.436  10.871  22.195  0.00  0.00    +0.000 HD
BRANCH  23  26
ATOM     26  C   UNL     1      -2.668  13.436  22.691  0.00  0.00    +0.000 A 
ATOM     27  C   UNL     1      -2.909  14.333  21.645  0.00  0.00    +0.000 A 
ATOM     28  C   UNL     1      -1.963  14.808  20.593  0.00  0.00    +0.000 C 
ATOM     29  C   UNL     1      -4.258  14.773  21.739  0.00  0.00    +0.000 A 
ATOM     30  C   UNL     1      -5.083  15.541  20.891  0.00  0.00    +0.000 A 
ATOM     31  C   UNL     1      -6.324  15.966  21.357  0.00  0.00    +0.000 A 
ATOM     32 CL   UNL     1      -7.335  16.907  20.327  0.00  0.00    +0.000 Cl
ATOM     33  C   UNL     1      -6.742  15.658  22.647  0.00  0.00    +0.000 A 
ATOM     34  C   UNL     1      -5.971  14.827  23.470  0.00  0.00    +0.000 A 
ATOM     35  C   UNL     1      -4.741  14.356  22.975  0.00  0.00    +0.000 A 
ATOM     36  N   UNL     1      -3.821  13.441  23.468  0.00  0.00    +0.000 N 
ATOM     37  C   UNL     1      -4.129  12.489  24.517  0.00  0.00    +0.000 C 
ENDBRANCH  23  26
ENDBRANCH  21  22
ENDBRANCH   5  21
TORSDOF 9
ENDMDL
MODEL 9
REMARK VINA RESULT:      -7.8      2.574      4.067
REMARK  Name = 
REMARK  12 active torsions:
REMARK  status: ('A' for Active; 'I' for Inactive)
REMARK    1  A    between atoms: C_1  and  C_2
REMARK    2  A    between atoms: C_4  and  O_5
REMARK    3  A    between atoms: O_5  and  C_6
REMARK    4  A    between atoms: C_10  and  C_11
REMARK    5  A    between atoms: C_11  and  N_12
REMARK    6  A    between atoms: C_13  and  C_15
REMARK    7  A    between atoms: C_16  and  C_17
REMARK    8  A    between atoms: N_25  and  C_26
REMARK    9  A    between atoms: C_30  and  C_31
REMARK   10  A    between atoms: C_31  and  C_32
REMARK   11  A    between atoms: C_32  and  C_33
REMARK   12  A    between atoms: C_33  and  O_35
REMARK                            x       y       z     vdW  Elec       q    Type
REMARK                         _______ _______ _______ _____ _____    ______ ____
ROOT
ATOM      1  C   UNL     1       2.417   7.160  19.489  0.00  0.00    +0.000 A 
ATOM      2  C   UNL     1       2.332   7.769  18.236  0.00  0.00    +0.000 A 
ATOM      3  C   UNL     1       1.712   9.010  18.106  0.00  0.00    +0.000 A 
ATOM      4  C   UNL     1       1.117   9.612  19.216  0.00  0.00    +0.000 A 
ATOM      5  C   UNL     1       1.117   8.967  20.461  0.00  0.00    +0.000 A 
ATOM      6  C   UNL     1       1.789   7.744  20.592  0.00  0.00    +0.000 A 
ENDROOT
BRANCH   1   7
ATOM      7  O   UNL     1       3.030   5.947  19.715  0.00  0.00    +0.000 OA
BRANCH   7  11
ATOM      8  C   UNL     1       7.385   5.511  17.663  0.00  0.00    +0.000 C 
ATOM      9  C   UNL     1       5.942   5.096  17.663  0.00  0.00    +0.000 A 
ATOM     10  C   UNL     1       5.107   5.630  18.667  0.00  0.00    +0.000 A 
ATOM     11  C   UNL     1       3.748   5.335  18.708  0.00  0.00    +0.000 A 
ATOM     12  C   UNL     1       3.195   4.532  17.724  0.00  0.00    +0.000 A 
ATOM     13  C   UNL     1       4.011   3.960  16.748  0.00  0.00    +0.000 A 
ATOM     14  C   UNL     1       5.391   4.218  16.703  0.00  0.00    +0.000 A 
BRANCH  14  15
ATOM     15  C   UNL     1       6.180   3.614  15.557  0.00  0.00    +0.000 C 
BRANCH  15  16
ATOM     16  C   UNL     1       5.876   4.204  14.181  0.00  0.00    +0.000 C 
BRANCH  16  17
ATOM     17  C   UNL     1       7.116   4.804  13.562  0.00  0.00    +0.000 C 
ATOM     18  O   UNL     1       7.920   5.520  14.137  0.00  0.00    +0.000 OA
BRANCH  17  19
ATOM     19  O   UNL     1       7.270   4.448  12.262  0.00  0.00    +0.000 OA
ATOM     20  H   UNL     1       6.636   3.768  11.963  0.00  0.00    +0.000 HD
ENDBRANCH  17  19
ENDBRANCH  16  17
ENDBRANCH  15  16
ENDBRANCH  14  15
ENDBRANCH   7  11
ENDBRANCH   1   7
BRANCH   5  21
ATOM     21  C   UNL     1       0.337   9.539  21.614  0.00  0.00    +0.000 C 
BRANCH  21  22
ATOM     22  N   UNL     1      -0.109  10.901  21.414  0.00  0.00    +0.000 N 
ATOM     23  C   UNL     1      -0.822  11.485  22.447  0.00  0.00    +0.000 C 
ATOM     24  O   UNL     1      -0.930  10.898  23.523  0.00  0.00    +0.000 OA
ATOM     25  H   UNL     1      -0.231  11.238  20.472  0.00  0.00    +0.000 HD
BRANCH  23  26
ATOM     26  C   UNL     1      -1.472  12.769  22.203  0.00  0.00    +0.000 A 
ATOM     27  C   UNL     1      -2.662  13.193  22.802  0.00  0.00    +0.000 A 
ATOM     28  C   UNL     1      -3.631  12.396  23.611  0.00  0.00    +0.000 C 
ATOM     29  C   UNL     1      -2.846  14.572  22.501  0.00  0.00    +0.000 A 
ATOM     30  C   UNL     1      -3.762  15.544  22.951  0.00  0.00    +0.000 A 
ATOM     31  C   UNL     1      -3.802  16.783  22.316  0.00  0.00    +0.000 A 
ATOM     32 CL   UNL     1      -4.922  17.973  22.860  0.00  0.00    +0.000 Cl
ATOM     33  C   UNL     1      -2.965  17.057  21.240  0.00  0.00    +0.000 A 
ATOM     34  C   UNL     1      -1.993  16.132  20.836  0.00  0.00    +0.000 A 
ATOM     35  C   UNL     1      -1.921  14.902  21.515  0.00  0.00    +0.000 A 
ATOM     36  N   UNL     1      -1.020  13.848  21.451  0.00  0.00    +0.000 N 
ATOM     37  C   UNL     1       0.296  13.961  20.853  0.00  0.00    +0.000 C 
ENDBRANCH  23  26
ENDBRANCH  21  22
ENDBRANCH   5  21
TORSDOF 9
ENDMDL
