MODEL 1
REMARK VINA RESULT:      -9.6      0.000      0.000
REMARK  Name = 
REMARK  7 active torsions:
REMARK  status: ('A' for Active; 'I' for Inactive)
REMARK    1  A    between atoms: C_1  and  O_2
REMARK    2  A    between atoms: O_2  and  C_3
REMARK    3  A    between atoms: C_6  and  C_7
REMARK    4  A    between atoms: C_7  and  N_8
REMARK    5  A    between atoms: C_11  and  C_12
REMARK    6  A    between atoms: N_23  and  C_24
REMARK    7  A    between atoms: C_24  and  C_25
REMARK                            x       y       z     vdW  Elec       q    Type
REMARK                         _______ _______ _______ _____ _____    ______ ____
ROOT
ATOM      1  N   UNL     1       4.066   6.186  18.437  0.00  0.00    +0.000 NA
ATOM      2  C   UNL     1       3.445   5.518  17.284  0.00  0.00    +0.000 C 
ATOM      3  C   UNL     1       4.339   4.458  16.562  0.00  0.00    +0.000 C 
ATOM      4  C   UNL     1       5.470   5.201  15.755  0.00  0.00    +0.000 C 
ATOM      5  C   UNL     1       6.741   5.467  16.577  0.00  0.00    +0.000 C 
ATOM      6  C   UNL     1       6.433   6.177  17.884  0.00  0.00    +0.000 C 
ATOM      7  O   UNL     1       7.017   7.225  18.179  0.00  0.00    +0.000 OA
ATOM      8  C   UNL     1       5.359   5.575  18.810  0.00  0.00    +0.000 C 
ATOM      9  C   UNL     1       5.409   4.031  18.744  0.00  0.00    +0.000 C 
ATOM     10  N   UNL     1       4.924   3.442  17.477  0.00  0.00    +0.000 NA
ENDROOT
BRANCH   4  11
ATOM     11  C   UNL     1       5.829   4.578  14.403  0.00  0.00    +0.000 A 
ATOM     12  C   UNL     1       7.104   4.842  13.864  0.00  0.00    +0.000 A 
ATOM     13  C   UNL     1       7.489   4.311  12.632  0.00  0.00    +0.000 A 
ATOM     14  C   UNL     1       6.609   3.507  11.915  0.00  0.00    +0.000 A 
ATOM     15  C   UNL     1       5.343   3.236  12.430  0.00  0.00    +0.000 A 
ATOM     16  C   UNL     1       4.960   3.761  13.668  0.00  0.00    +0.000 A 
ENDBRANCH   4  11
BRANCH   1  17
ATOM     17  C   UNL     1       3.124   6.359  19.552  0.00  0.00    +0.000 C 
BRANCH  17  21
ATOM     18  C   UNL     1       0.722   9.972  19.127  0.00  0.00    +0.000 A 
ATOM     19  C   UNL     1       0.758   9.276  20.338  0.00  0.00    +0.000 A 
ATOM     20  C   UNL     1       1.537   8.121  20.492  0.00  0.00    +0.000 A 
ATOM     21  C   UNL     1       2.289   7.625  19.419  0.00  0.00    +0.000 A 
ATOM     22  C   UNL     1       2.264   8.340  18.209  0.00  0.00    +0.000 A 
ATOM     23  C   UNL     1       1.492   9.505  18.064  0.00  0.00    +0.000 A 
BRANCH  18  25
ATOM     24  C   UNL     1      -1.440  10.838  18.607  0.00  0.00    +0.000 C 
ATOM     25  O   UNL     1      -0.126  11.043  19.111  0.00  0.00    +0.000 OA
ENDBRANCH  18  25
ENDBRANCH  17  21
ENDBRANCH   1  17
BRANCH  10  26
ATOM     26  C   UNL     1       4.086   2.258  17.710  0.00  0.00    +0.000 C 
BRANCH  26  27
ATOM     27  C   UNL     1       3.065   2.459  18.824  0.00  0.00    +0.000 A 
ATOM     28  C   UNL     1       3.464   2.494  20.169  0.00  0.00    +0.000 A 
ATOM     29  C   UNL     1       2.531   2.730  21.184  0.00  0.00    +0.000 A 
ATOM     30  C   UNL     1       1.188   2.936  20.871  0.00  0.00    +0.000 A 
ATOM     31  C   UNL     1       0.774   2.902  19.542  0.00  0.00    +0.000 A 
ATOM     32  C   UNL     1       1.706   2.663  18.527  0.00  0.00    +0.000 A 
ENDBRANCH  26  27
ENDBRANCH  10  26
TORSDOF 6
ENDMDL
MODEL 2
REMARK VINA RESULT:      -9.5      0.203      1.220
REMARK  Name = 
REMARK  7 active torsions:
REMARK  status: ('A' for Active; 'I' for Inactive)
REMARK    1  A    between atoms: C_1  and  O_2
REMARK    2  A    between atoms: O_2  and  C_3
REMARK    3  A    between atoms: C_6  and  C_7
REMARK    4  A    between atoms: C_7  and  N_8
REMARK    5  A    between atoms: C_11  and  C_12
REMARK    6  A    between atoms: N_23  and  C_24
REMARK    7  A    between atoms: C_24  and  C_25
REMARK                            x       y       z     vdW  Elec       q    Type
REMARK                         _______ _______ _______ _____ _____    ______ ____
ROOT
ATOM      1  N   UNL     1       4.202   6.249  18.394  0.00  0.00    +0.000 NA
ATOM      2  C   UNL     1       3.581   5.628  17.215  0.00  0.00    +0.000 C 
ATOM      3  C   UNL     1       4.447   4.545  16.493  0.00  0.00    +0.000 C 
ATOM      4  C   UNL     1       5.624   5.255  15.724  0.00  0.00    +0.000 C 
ATOM      5  C   UNL     1       6.886   5.455  16.578  0.00  0.00    +0.000 C 
ATOM      6  C   UNL     1       6.578   6.154  17.891  0.00  0.00    +0.000 C 
ATOM      7  O   UNL     1       7.197   7.172  18.217  0.00  0.00    +0.000 OA
ATOM      8  C   UNL     1       5.461   5.579  18.783  0.00  0.00    +0.000 C 
ATOM      9  C   UNL     1       5.450   4.037  18.689  0.00  0.00    +0.000 C 
ATOM     10  N   UNL     1       4.970   3.490  17.401  0.00  0.00    +0.000 NA
ENDROOT
BRANCH   4  11
ATOM     11  C   UNL     1       5.988   4.643  14.369  0.00  0.00    +0.000 A 
ATOM     12  C   UNL     1       7.193   5.043  13.756  0.00  0.00    +0.000 A 
ATOM     13  C   UNL     1       7.576   4.528  12.518  0.00  0.00    +0.000 A 
ATOM     14  C   UNL     1       6.766   3.603  11.867  0.00  0.00    +0.000 A 
ATOM     15  C   UNL     1       5.570   3.196  12.455  0.00  0.00    +0.000 A 
ATOM     16  C   UNL     1       5.190   3.706  13.700  0.00  0.00    +0.000 A 
ENDBRANCH   4  11
BRANCH   1  17
ATOM     17  C   UNL     1       3.243   6.440  19.492  0.00  0.00    +0.000 C 
BRANCH  17  21
ATOM     18  C   UNL     1       0.750   9.977  18.967  0.00  0.00    +0.000 A 
ATOM     19  C   UNL     1       1.533   9.493  17.917  0.00  0.00    +0.000 A 
ATOM     20  C   UNL     1       2.328   8.349  18.068  0.00  0.00    +0.000 A 
ATOM     21  C   UNL     1       2.368   7.671  19.293  0.00  0.00    +0.000 A 
ATOM     22  C   UNL     1       1.563   8.151  20.340  0.00  0.00    +0.000 A 
ATOM     23  C   UNL     1       0.757   9.291  20.179  0.00  0.00    +0.000 A 
BRANCH  18  25
ATOM     24  C   UNL     1      -1.335  11.136  18.877  0.00  0.00    +0.000 C 
ATOM     25  O   UNL     1       0.075  11.133  18.689  0.00  0.00    +0.000 OA
ENDBRANCH  18  25
ENDBRANCH  17  21
ENDBRANCH   1  17
BRANCH  10  26
ATOM     26  C   UNL     1       4.080   2.337  17.594  0.00  0.00    +0.000 C 
BRANCH  26  27
ATOM     27  C   UNL     1       3.037   2.563  18.683  0.00  0.00    +0.000 A 
ATOM     28  C   UNL     1       1.688   2.768  18.356  0.00  0.00    +0.000 A 
ATOM     29  C   UNL     1       0.727   2.925  19.361  0.00  0.00    +0.000 A 
ATOM     30  C   UNL     1       1.099   2.878  20.704  0.00  0.00    +0.000 A 
ATOM     31  C   UNL     1       2.434   2.678  21.046  0.00  0.00    +0.000 A 
ATOM     32  C   UNL     1       3.395   2.525  20.041  0.00  0.00    +0.000 A 
ENDBRANCH  26  27
ENDBRANCH  10  26
TORSDOF 6
ENDMDL
MODEL 3
REMARK VINA RESULT:      -9.4      0.125      1.208
REMARK  Name = 
REMARK  7 active torsions:
REMARK  status: ('A' for Active; 'I' for Inactive)
REMARK    1  A    between atoms: C_1  and  O_2
REMARK    2  A    between atoms: O_2  and  C_3
REMARK    3  A    between atoms: C_6  and  C_7
REMARK    4  A    between atoms: C_7  and  N_8
REMARK    5  A    between atoms: C_11  and  C_12
REMARK    6  A    between atoms: N_23  and  C_24
REMARK    7  A    between atoms: C_24  and  C_25
REMARK                            x       y       z     vdW  Elec       q    Type
REMARK                         _______ _______ _______ _____ _____    ______ ____
ROOT
ATOM      1  N   UNL     1       4.120   6.223  18.407  0.00  0.00    +0.000 NA
ATOM      2  C   UNL     1       3.512   5.584  17.231  0.00  0.00    +0.000 C 
ATOM      3  C   UNL     1       4.401   4.518  16.512  0.00  0.00    +0.000 C 
ATOM      4  C   UNL     1       5.562   5.252  15.740  0.00  0.00    +0.000 C 
ATOM      5  C   UNL     1       6.820   5.483  16.593  0.00  0.00    +0.000 C 
ATOM      6  C   UNL     1       6.498   6.178  17.903  0.00  0.00    +0.000 C 
ATOM      7  O   UNL     1       7.094   7.212  18.226  0.00  0.00    +0.000 OA
ATOM      8  C   UNL     1       5.394   5.583  18.797  0.00  0.00    +0.000 C 
ATOM      9  C   UNL     1       5.417   4.040  18.710  0.00  0.00    +0.000 C 
ATOM     10  N   UNL     1       4.949   3.478  17.423  0.00  0.00    +0.000 NA
ENDROOT
BRANCH   4  11
ATOM     11  C   UNL     1       5.939   4.642  14.387  0.00  0.00    +0.000 A 
ATOM     12  C   UNL     1       5.000   3.810  13.744  0.00  0.00    +0.000 A 
ATOM     13  C   UNL     1       5.287   3.218  12.513  0.00  0.00    +0.000 A 
ATOM     14  C   UNL     1       6.515   3.446  11.901  0.00  0.00    +0.000 A 
ATOM     15  C   UNL     1       7.457   4.264  12.521  0.00  0.00    +0.000 A 
ATOM     16  C   UNL     1       7.167   4.863  13.750  0.00  0.00    +0.000 A 
ENDBRANCH   4  11
BRANCH   1  17
ATOM     17  C   UNL     1       3.157   6.396  19.505  0.00  0.00    +0.000 C 
BRANCH  17  21
ATOM     18  C   UNL     1       0.713   9.978  19.061  0.00  0.00    +0.000 A 
ATOM     19  C   UNL     1       1.425   9.460  17.977  0.00  0.00    +0.000 A 
ATOM     20  C   UNL     1       2.203   8.301  18.102  0.00  0.00    +0.000 A 
ATOM     21  C   UNL     1       2.298   7.642  19.335  0.00  0.00    +0.000 A 
ATOM     22  C   UNL     1       1.565   8.157  20.417  0.00  0.00    +0.000 A 
ATOM     23  C   UNL     1       0.775   9.312  20.282  0.00  0.00    +0.000 A 
BRANCH  18  25
ATOM     24  C   UNL     1      -1.321  11.053  18.425  0.00  0.00    +0.000 C 
ATOM     25  O   UNL     1       0.047  11.144  18.801  0.00  0.00    +0.000 OA
ENDBRANCH  18  25
ENDBRANCH  17  21
ENDBRANCH   1  17
BRANCH  10  26
ATOM     26  C   UNL     1       4.085   2.306  17.621  0.00  0.00    +0.000 C 
BRANCH  26  27
ATOM     27  C   UNL     1       3.070   2.495  18.743  0.00  0.00    +0.000 A 
ATOM     28  C   UNL     1       3.470   2.467  20.088  0.00  0.00    +0.000 A 
ATOM     29  C   UNL     1       2.544   2.691  21.112  0.00  0.00    +0.000 A 
ATOM     30  C   UNL     1       1.208   2.949  20.809  0.00  0.00    +0.000 A 
ATOM     31  C   UNL     1       0.793   2.978  19.480  0.00  0.00    +0.000 A 
ATOM     32  C   UNL     1       1.718   2.750  18.456  0.00  0.00    +0.000 A 
ENDBRANCH  26  27
ENDBRANCH  10  26
TORSDOF 6
ENDMDL
MODEL 4
REMARK VINA RESULT:      -8.9      2.184      7.645
REMARK  Name = 
REMARK  7 active torsions:
REMARK  status: ('A' for Active; 'I' for Inactive)
REMARK    1  A    between atoms: C_1  and  O_2
REMARK    2  A    between atoms: O_2  and  C_3
REMARK    3  A    between atoms: C_6  and  C_7
REMARK    4  A    between atoms: C_7  and  N_8
REMARK    5  A    between atoms: C_11  and  C_12
REMARK    6  A    between atoms: N_23  and  C_24
REMARK    7  A    between atoms: C_24  and  C_25
REMARK                            x       y       z     vdW  Elec       q    Type
REMARK                         _______ _______ _______ _____ _____    ______ ____
ROOT
ATOM      1  N   UNL     1       5.915   5.086  15.946  0.00  0.00    +0.000 NA
ATOM      2  C   UNL     1       4.490   4.742  16.056  0.00  0.00    +0.000 C 
ATOM      3  C   UNL     1       3.819   5.094  17.424  0.00  0.00    +0.000 C 
ATOM      4  C   UNL     1       4.334   4.091  18.523  0.00  0.00    +0.000 C 
ATOM      5  C   UNL     1       5.621   4.552  19.226  0.00  0.00    +0.000 C 
ATOM      6  C   UNL     1       6.717   4.897  18.233  0.00  0.00    +0.000 C 
ATOM      7  O   UNL     1       7.833   4.376  18.328  0.00  0.00    +0.000 OA
ATOM      8  C   UNL     1       6.391   5.884  17.096  0.00  0.00    +0.000 C 
ATOM      9  C   UNL     1       5.414   6.970  17.601  0.00  0.00    +0.000 C 
ATOM     10  N   UNL     1       4.033   6.502  17.853  0.00  0.00    +0.000 NA
ENDROOT
BRANCH   4  11
ATOM     11  C   UNL     1       3.289   3.655  19.555  0.00  0.00    +0.000 A 
ATOM     12  C   UNL     1       1.972   4.137  19.417  0.00  0.00    +0.000 A 
ATOM     13  C   UNL     1       0.976   3.784  20.328  0.00  0.00    +0.000 A 
ATOM     14  C   UNL     1       1.277   2.942  21.395  0.00  0.00    +0.000 A 
ATOM     15  C   UNL     1       2.573   2.456  21.550  0.00  0.00    +0.000 A 
ATOM     16  C   UNL     1       3.569   2.804  20.632  0.00  0.00    +0.000 A 
ENDBRANCH   4  11
BRANCH   1  17
ATOM     17  C   UNL     1       6.252   5.645  14.628  0.00  0.00    +0.000 C 
BRANCH  17  21
ATOM     18  C   UNL     1       6.675   2.567  11.571  0.00  0.00    +0.000 A 
ATOM     19  C   UNL     1       5.528   2.632  12.364  0.00  0.00    +0.000 A 
ATOM     20  C   UNL     1       5.373   3.626  13.341  0.00  0.00    +0.000 A 
ATOM     21  C   UNL     1       6.384   4.571  13.556  0.00  0.00    +0.000 A 
ATOM     22  C   UNL     1       7.528   4.512  12.742  0.00  0.00    +0.000 A 
ATOM     23  C   UNL     1       7.672   3.522  11.755  0.00  0.00    +0.000 A 
BRANCH  18  25
ATOM     24  C   UNL     1       6.091   0.298  11.115  0.00  0.00    +0.000 C 
ATOM     25  O   UNL     1       6.709   1.510  10.704  0.00  0.00    +0.000 OA
ENDBRANCH  18  25
ENDBRANCH  17  21
ENDBRANCH   1  17
BRANCH  10  26
ATOM     26  C   UNL     1       3.033   7.461  17.363  0.00  0.00    +0.000 C 
BRANCH  26  27
ATOM     27  C   UNL     1       2.243   8.124  18.486  0.00  0.00    +0.000 A 
ATOM     28  C   UNL     1       1.499   9.291  18.251  0.00  0.00    +0.000 A 
ATOM     29  C   UNL     1       0.734   9.866  19.272  0.00  0.00    +0.000 A 
ATOM     30  C   UNL     1       0.700   9.285  20.538  0.00  0.00    +0.000 A 
ATOM     31  C   UNL     1       1.434   8.129  20.789  0.00  0.00    +0.000 A 
ATOM     32  C   UNL     1       2.201   7.555  19.770  0.00  0.00    +0.000 A 
ENDBRANCH  26  27
ENDBRANCH  10  26
TORSDOF 6
ENDMDL
MODEL 5
REMARK VINA RESULT:      -8.9      2.184      7.598
REMARK  Name = 
REMARK  7 active torsions:
REMARK  status: ('A' for Active; 'I' for Inactive)
REMARK    1  A    between atoms: C_1  and  O_2
REMARK    2  A    between atoms: O_2  and  C_3
REMARK    3  A    between atoms: C_6  and  C_7
REMARK    4  A    between atoms: C_7  and  N_8
REMARK    5  A    between atoms: C_11  and  C_12
REMARK    6  A    between atoms: N_23  and  C_24
REMARK    7  A    between atoms: C_24  and  C_25
REMARK                            x       y       z     vdW  Elec       q    Type
REMARK                         _______ _______ _______ _____ _____    ______ ____
ROOT
ATOM      1  N   UNL     1       5.916   5.071  15.940  0.00  0.00    +0.000 NA
ATOM      2  C   UNL     1       4.482   4.757  16.034  0.00  0.00    +0.000 C 
ATOM      3  C   UNL     1       3.804   5.121  17.395  0.00  0.00    +0.000 C 
ATOM      4  C   UNL     1       4.285   4.105  18.498  0.00  0.00    +0.000 C 
ATOM      5  C   UNL     1       5.574   4.537  19.215  0.00  0.00    +0.000 C 
ATOM      6  C   UNL     1       6.688   4.862  18.235  0.00  0.00    +0.000 C 
ATOM      7  O   UNL     1       7.792   4.317  18.341  0.00  0.00    +0.000 OA
ATOM      8  C   UNL     1       6.395   5.856  17.096  0.00  0.00    +0.000 C 
ATOM      9  C   UNL     1       5.436   6.962  17.593  0.00  0.00    +0.000 C 
ATOM     10  N   UNL     1       4.043   6.523  17.829  0.00  0.00    +0.000 NA
ENDROOT
BRANCH   4  11
ATOM     11  C   UNL     1       3.220   3.689  19.517  0.00  0.00    +0.000 A 
ATOM     12  C   UNL     1       3.604   2.842  20.576  0.00  0.00    +0.000 A 
ATOM     13  C   UNL     1       2.679   2.420  21.532  0.00  0.00    +0.000 A 
ATOM     14  C   UNL     1       1.354   2.837  21.450  0.00  0.00    +0.000 A 
ATOM     15  C   UNL     1       0.955   3.674  20.410  0.00  0.00    +0.000 A 
ATOM     16  C   UNL     1       1.883   4.102  19.456  0.00  0.00    +0.000 A 
ENDBRANCH   4  11
BRANCH   1  17
ATOM     17  C   UNL     1       6.278   5.625  14.627  0.00  0.00    +0.000 C 
BRANCH  17  21
ATOM     18  C   UNL     1       6.652   2.547  11.563  0.00  0.00    +0.000 A 
ATOM     19  C   UNL     1       5.518   2.612  12.375  0.00  0.00    +0.000 A 
ATOM     20  C   UNL     1       5.378   3.606  13.354  0.00  0.00    +0.000 A 
ATOM     21  C   UNL     1       6.393   4.551  13.553  0.00  0.00    +0.000 A 
ATOM     22  C   UNL     1       7.524   4.492  12.721  0.00  0.00    +0.000 A 
ATOM     23  C   UNL     1       7.652   3.502  11.732  0.00  0.00    +0.000 A 
BRANCH  18  25
ATOM     24  C   UNL     1       6.070   0.275  11.121  0.00  0.00    +0.000 C 
ATOM     25  O   UNL     1       6.672   1.491  10.695  0.00  0.00    +0.000 OA
ENDBRANCH  18  25
ENDBRANCH  17  21
ENDBRANCH   1  17
BRANCH  10  26
ATOM     26  C   UNL     1       3.068   7.504  17.330  0.00  0.00    +0.000 C 
BRANCH  26  27
ATOM     27  C   UNL     1       2.211   8.108  18.436  0.00  0.00    +0.000 A 
ATOM     28  C   UNL     1       2.186   7.541  19.720  0.00  0.00    +0.000 A 
ATOM     29  C   UNL     1       1.437   8.129  20.745  0.00  0.00    +0.000 A 
ATOM     30  C   UNL     1       0.706   9.291  20.505  0.00  0.00    +0.000 A 
ATOM     31  C   UNL     1       0.717   9.866  19.236  0.00  0.00    +0.000 A 
ATOM     32  C   UNL     1       1.462   9.276  18.210  0.00  0.00    +0.000 A 
ENDBRANCH  26  27
ENDBRANCH  10  26
TORSDOF 6
ENDMDL
MODEL 6
REMARK VINA RESULT:      -8.5      2.186      7.647
REMARK  Name = 
REMARK  7 active torsions:
REMARK  status: ('A' for Active; 'I' for Inactive)
REMARK    1  A    between atoms: C_1  and  O_2
REMARK    2  A    between atoms: O_2  and  C_3
REMARK    3  A    between atoms: C_6  and  C_7
REMARK    4  A    between atoms: C_7  and  N_8
REMARK    5  A    between atoms: C_11  and  C_12
REMARK    6  A    between atoms: N_23  and  C_24
REMARK    7  A    between atoms: C_24  and  C_25
REMARK                            x       y       z     vdW  Elec       q    Type
REMARK                         _______ _______ _______ _____ _____    ______ ____
ROOT
ATOM      1  N   UNL     1       5.961   4.994  15.970  0.00  0.00    +0.000 NA
ATOM      2  C   UNL     1       4.537   4.644  16.080  0.00  0.00    +0.000 C 
ATOM      3  C   UNL     1       3.848   5.053  17.422  0.00  0.00    +0.000 C 
ATOM      4  C   UNL     1       4.358   4.106  18.573  0.00  0.00    +0.000 C 
ATOM      5  C   UNL     1       5.633   4.609  19.268  0.00  0.00    +0.000 C 
ATOM      6  C   UNL     1       6.737   4.918  18.273  0.00  0.00    +0.000 C 
ATOM      7  O   UNL     1       7.856   4.411  18.404  0.00  0.00    +0.000 OA
ATOM      8  C   UNL     1       6.417   5.848  17.087  0.00  0.00    +0.000 C 
ATOM      9  C   UNL     1       5.426   6.948  17.530  0.00  0.00    +0.000 C 
ATOM     10  N   UNL     1       4.046   6.481  17.788  0.00  0.00    +0.000 NA
ENDROOT
BRANCH   4  11
ATOM     11  C   UNL     1       3.304   3.709  19.612  0.00  0.00    +0.000 A 
ATOM     12  C   UNL     1       1.993   4.201  19.455  0.00  0.00    +0.000 A 
ATOM     13  C   UNL     1       0.990   3.883  20.372  0.00  0.00    +0.000 A 
ATOM     14  C   UNL     1       1.277   3.067  21.462  0.00  0.00    +0.000 A 
ATOM     15  C   UNL     1       2.568   2.572  21.635  0.00  0.00    +0.000 A 
ATOM     16  C   UNL     1       3.571   2.885  20.712  0.00  0.00    +0.000 A 
ENDBRANCH   4  11
BRANCH   1  17
ATOM     17  C   UNL     1       6.308   5.494  14.632  0.00  0.00    +0.000 C 
BRANCH  17  21
ATOM     18  C   UNL     1       6.199   2.374  11.590  0.00  0.00    +0.000 A 
ATOM     19  C   UNL     1       7.408   2.964  11.965  0.00  0.00    +0.000 A 
ATOM     20  C   UNL     1       7.459   3.958  12.952  0.00  0.00    +0.000 A 
ATOM     21  C   UNL     1       6.284   4.398  13.575  0.00  0.00    +0.000 A 
ATOM     22  C   UNL     1       5.073   3.787  13.207  0.00  0.00    +0.000 A 
ATOM     23  C   UNL     1       5.029   2.782  12.227  0.00  0.00    +0.000 A 
BRANCH  18  25
ATOM     24  C   UNL     1       6.091   0.093  10.895  0.00  0.00    +0.000 C 
ATOM     25  O   UNL     1       6.300   1.463  10.576  0.00  0.00    +0.000 OA
ENDBRANCH  18  25
ENDBRANCH  17  21
ENDBRANCH   1  17
BRANCH  10  26
ATOM     26  C   UNL     1       3.044   7.408  17.244  0.00  0.00    +0.000 C 
BRANCH  26  27
ATOM     27  C   UNL     1       2.205   8.082  18.324  0.00  0.00    +0.000 A 
ATOM     28  C   UNL     1       2.175   7.577  19.632  0.00  0.00    +0.000 A 
ATOM     29  C   UNL     1       1.444   8.228  20.632  0.00  0.00    +0.000 A 
ATOM     30  C   UNL     1       0.736   9.392  20.340  0.00  0.00    +0.000 A 
ATOM     31  C   UNL     1       0.753   9.906  19.046  0.00  0.00    +0.000 A 
ATOM     32  C   UNL     1       1.480   9.253  18.046  0.00  0.00    +0.000 A 
ENDBRANCH  26  27
ENDBRANCH  10  26
TORSDOF 6
ENDMDL
MODEL 7
REMARK VINA RESULT:      -8.3      2.160      7.616
REMARK  Name = 
REMARK  7 active torsions:
REMARK  status: ('A' for Active; 'I' for Inactive)
REMARK    1  A    between atoms: C_1  and  O_2
REMARK    2  A    between atoms: O_2  and  C_3
REMARK    3  A    between atoms: C_6  and  C_7
REMARK    4  A    between atoms: C_7  and  N_8
REMARK    5  A    between atoms: C_11  and  C_12
REMARK    6  A    between atoms: N_23  and  C_24
REMARK    7  A    between atoms: C_24  and  C_25
REMARK                            x       y       z     vdW  Elec       q    Type
REMARK                         _______ _______ _______ _____ _____    ______ ____
ROOT
ATOM      1  N   UNL     1       6.103   5.241  16.211  0.00  0.00    +0.000 NA
ATOM      2  C   UNL     1       4.686   4.849  16.219  0.00  0.00    +0.000 C 
ATOM      3  C   UNL     1       3.896   5.218  17.516  0.00  0.00    +0.000 C 
ATOM      4  C   UNL     1       4.354   4.269  18.687  0.00  0.00    +0.000 C 
ATOM      5  C   UNL     1       5.564   4.798  19.473  0.00  0.00    +0.000 C 
ATOM      6  C   UNL     1       6.724   5.153  18.559  0.00  0.00    +0.000 C 
ATOM      7  O   UNL     1       7.846   4.676  18.760  0.00  0.00    +0.000 OA
ATOM      8  C   UNL     1       6.457   6.091  17.367  0.00  0.00    +0.000 C 
ATOM      9  C   UNL     1       5.406   7.155  17.755  0.00  0.00    +0.000 C 
ATOM     10  N   UNL     1       4.026   6.646  17.913  0.00  0.00    +0.000 NA
ENDROOT
BRANCH   4  11
ATOM     11  C   UNL     1       3.245   3.827  19.646  0.00  0.00    +0.000 A 
ATOM     12  C   UNL     1       3.575   2.926  20.679  0.00  0.00    +0.000 A 
ATOM     13  C   UNL     1       2.608   2.479  21.580  0.00  0.00    +0.000 A 
ATOM     14  C   UNL     1       1.294   2.922  21.468  0.00  0.00    +0.000 A 
ATOM     15  C   UNL     1       0.948   3.812  20.453  0.00  0.00    +0.000 A 
ATOM     16  C   UNL     1       1.918   4.266  19.555  0.00  0.00    +0.000 A 
ENDBRANCH   4  11
BRANCH   1  17
ATOM     17  C   UNL     1       6.525   5.771  14.906  0.00  0.00    +0.000 C 
BRANCH  17  21
ATOM     18  C   UNL     1       6.408   2.751  11.764  0.00  0.00    +0.000 A 
ATOM     19  C   UNL     1       7.534   3.559  11.936  0.00  0.00    +0.000 A 
ATOM     20  C   UNL     1       7.591   4.524  12.952  0.00  0.00    +0.000 A 
ATOM     21  C   UNL     1       6.500   4.712  13.811  0.00  0.00    +0.000 A 
ATOM     22  C   UNL     1       5.378   3.883  13.645  0.00  0.00    +0.000 A 
ATOM     23  C   UNL     1       5.332   2.908  12.634  0.00  0.00    +0.000 A 
BRANCH  18  25
ATOM     24  C   UNL     1       6.052   0.556  10.897  0.00  0.00    +0.000 C 
ATOM     25  O   UNL     1       6.477   1.898  10.698  0.00  0.00    +0.000 OA
ENDBRANCH  18  25
ENDBRANCH  17  21
ENDBRANCH   1  17
BRANCH  10  26
ATOM     26  C   UNL     1       3.037   7.551  17.313  0.00  0.00    +0.000 C 
BRANCH  26  27
ATOM     27  C   UNL     1       2.209   8.302  18.351  0.00  0.00    +0.000 A 
ATOM     28  C   UNL     1       1.558   9.501  18.023  0.00  0.00    +0.000 A 
ATOM     29  C   UNL     1       0.758  10.159  18.963  0.00  0.00    +0.000 A 
ATOM     30  C   UNL     1       0.595   9.629  20.242  0.00  0.00    +0.000 A 
ATOM     31  C   UNL     1       1.236   8.441  20.586  0.00  0.00    +0.000 A 
ATOM     32  C   UNL     1       2.039   7.785  19.647  0.00  0.00    +0.000 A 
ENDBRANCH  26  27
ENDBRANCH  10  26
TORSDOF 6
ENDMDL
MODEL 8
REMARK VINA RESULT:      -8.0      4.219     11.023
REMARK  Name = 
REMARK  7 active torsions:
REMARK  status: ('A' for Active; 'I' for Inactive)
REMARK    1  A    between atoms: C_1  and  O_2
REMARK    2  A    between atoms: O_2  and  C_3
REMARK    3  A    between atoms: C_6  and  C_7
REMARK    4  A    between atoms: C_7  and  N_8
REMARK    5  A    between atoms: C_11  and  C_12
REMARK    6  A    between atoms: N_23  and  C_24
REMARK    7  A    between atoms: C_24  and  C_25
REMARK                            x       y       z     vdW  Elec       q    Type
REMARK                         _______ _______ _______ _____ _____    ______ ____
ROOT
ATOM      1  N   UNL     1       0.746  10.770  19.497  0.00  0.00    +0.000 NA
ATOM      2  C   UNL     1      -0.521  10.410  20.148  0.00  0.00    +0.000 C 
ATOM      3  C   UNL     1      -1.408  11.614  20.603  0.00  0.00    +0.000 C 
ATOM      4  C   UNL     1      -0.745  12.297  21.858  0.00  0.00    +0.000 C 
ATOM      5  C   UNL     1       0.270  13.394  21.501  0.00  0.00    +0.000 C 
ATOM      6  C   UNL     1       1.318  12.900  20.520  0.00  0.00    +0.000 C 
ATOM      7  O   UNL     1       2.520  13.022  20.776  0.00  0.00    +0.000 OA
ATOM      8  C   UNL     1       0.844  12.219  19.222  0.00  0.00    +0.000 C 
ATOM      9  C   UNL     1      -0.454  12.889  18.717  0.00  0.00    +0.000 C 
ATOM     10  N   UNL     1      -1.659  12.614  19.530  0.00  0.00    +0.000 NA
ENDROOT
BRANCH   4  11
ATOM     11  C   UNL     1      -1.723  12.800  22.924  0.00  0.00    +0.000 A 
ATOM     12  C   UNL     1      -2.815  11.979  23.271  0.00  0.00    +0.000 A 
ATOM     13  C   UNL     1      -3.746  12.384  24.228  0.00  0.00    +0.000 A 
ATOM     14  C   UNL     1      -3.603  13.617  24.859  0.00  0.00    +0.000 A 
ATOM     15  C   UNL     1      -2.532  14.443  24.529  0.00  0.00    +0.000 A 
ATOM     16  C   UNL     1      -1.595  14.034  23.575  0.00  0.00    +0.000 A 
ENDBRANCH   4  11
BRANCH   1  17
ATOM     17  C   UNL     1       1.045   9.905  18.346  0.00  0.00    +0.000 C 
BRANCH  17  21
ATOM     18  C   UNL     1       3.027   6.207  19.532  0.00  0.00    +0.000 A 
ATOM     19  C   UNL     1       3.240   6.758  18.266  0.00  0.00    +0.000 A 
ATOM     20  C   UNL     1       2.621   7.954  17.878  0.00  0.00    +0.000 A 
ATOM     21  C   UNL     1       1.751   8.618  18.753  0.00  0.00    +0.000 A 
ATOM     22  C   UNL     1       1.555   8.069  20.032  0.00  0.00    +0.000 A 
ATOM     23  C   UNL     1       2.189   6.877  20.421  0.00  0.00    +0.000 A 
BRANCH  18  25
ATOM     24  C   UNL     1       4.965   4.849  19.224  0.00  0.00    +0.000 C 
ATOM     25  O   UNL     1       3.652   5.010  19.745  0.00  0.00    +0.000 OA
ENDBRANCH  18  25
ENDBRANCH  17  21
ENDBRANCH   1  17
BRANCH  10  26
ATOM     26  C   UNL     1      -2.836  12.346  18.692  0.00  0.00    +0.000 C 
BRANCH  26  27
ATOM     27  C   UNL     1      -4.149  12.439  19.460  0.00  0.00    +0.000 A 
ATOM     28  C   UNL     1      -4.339  13.419  20.446  0.00  0.00    +0.000 A 
ATOM     29  C   UNL     1      -5.564  13.533  21.113  0.00  0.00    +0.000 A 
ATOM     30  C   UNL     1      -6.616  12.672  20.803  0.00  0.00    +0.000 A 
ATOM     31  C   UNL     1      -6.444  11.692  19.829  0.00  0.00    +0.000 A 
ATOM     32  C   UNL     1      -5.218  11.576  19.165  0.00  0.00    +0.000 A 
ENDBRANCH  26  27
ENDBRANCH  10  26
TORSDOF 6
ENDMDL
MODEL 9
REMARK VINA RESULT:      -7.9      4.247     11.019
REMARK  Name = 
REMARK  7 active torsions:
REMARK  status: ('A' for Active; 'I' for Inactive)
REMARK    1  A    between atoms: C_1  and  O_2
REMARK    2  A    between atoms: O_2  and  C_3
REMARK    3  A    between atoms: C_6  and  C_7
REMARK    4  A    between atoms: C_7  and  N_8
REMARK    5  A    between atoms: C_11  and  C_12
REMARK    6  A    between atoms: N_23  and  C_24
REMARK    7  A    between atoms: C_24  and  C_25
REMARK                            x       y       z     vdW  Elec       q    Type
REMARK                         _______ _______ _______ _____ _____    ______ ____
ROOT
ATOM      1  N   UNL     1       0.728  10.799  19.506  0.00  0.00    +0.000 NA
ATOM      2  C   UNL     1      -0.540  10.435  20.156  0.00  0.00    +0.000 C 
ATOM      3  C   UNL     1      -1.426  11.637  20.619  0.00  0.00    +0.000 C 
ATOM      4  C   UNL     1      -0.762  12.310  21.879  0.00  0.00    +0.000 C 
ATOM      5  C   UNL     1       0.253  13.409  21.529  0.00  0.00    +0.000 C 
ATOM      6  C   UNL     1       1.301  12.921  20.543  0.00  0.00    +0.000 C 
ATOM      7  O   UNL     1       2.503  13.041  20.800  0.00  0.00    +0.000 OA
ATOM      8  C   UNL     1       0.826  12.250  19.241  0.00  0.00    +0.000 C 
ATOM      9  C   UNL     1      -0.472  12.924  18.741  0.00  0.00    +0.000 C 
ATOM     10  N   UNL     1      -1.677  12.644  19.554  0.00  0.00    +0.000 NA
ENDROOT
BRANCH   4  11
ATOM     11  C   UNL     1      -1.739  12.807  22.949  0.00  0.00    +0.000 A 
ATOM     12  C   UNL     1      -2.835  11.987  23.285  0.00  0.00    +0.000 A 
ATOM     13  C   UNL     1      -3.765  12.386  24.246  0.00  0.00    +0.000 A 
ATOM     14  C   UNL     1      -3.618  13.611  24.890  0.00  0.00    +0.000 A 
ATOM     15  C   UNL     1      -2.542  14.436  24.571  0.00  0.00    +0.000 A 
ATOM     16  C   UNL     1      -1.606  14.033  23.614  0.00  0.00    +0.000 A 
ENDBRANCH   4  11
BRANCH   1  17
ATOM     17  C   UNL     1       1.025   9.941  18.350  0.00  0.00    +0.000 C 
BRANCH  17  21
ATOM     18  C   UNL     1       3.043   6.243  19.470  0.00  0.00    +0.000 A 
ATOM     19  C   UNL     1       2.190   6.891  20.366  0.00  0.00    +0.000 A 
ATOM     20  C   UNL     1       1.524   8.073  20.013  0.00  0.00    +0.000 A 
ATOM     21  C   UNL     1       1.717   8.644  18.749  0.00  0.00    +0.000 A 
ATOM     22  C   UNL     1       2.561   7.977  17.845  0.00  0.00    +0.000 A 
ATOM     23  C   UNL     1       3.216   6.786  18.199  0.00  0.00    +0.000 A 
BRANCH  18  25
ATOM     24  C   UNL     1       3.658   3.955  19.183  0.00  0.00    +0.000 C 
ATOM     25  O   UNL     1       3.665   5.136  19.975  0.00  0.00    +0.000 OA
ENDBRANCH  18  25
ENDBRANCH  17  21
ENDBRANCH   1  17
BRANCH  10  26
ATOM     26  C   UNL     1      -2.854  12.382  18.715  0.00  0.00    +0.000 C 
BRANCH  26  27
ATOM     27  C   UNL     1      -4.168  12.488  19.480  0.00  0.00    +0.000 A 
ATOM     28  C   UNL     1      -5.206  11.568  19.262  0.00  0.00    +0.000 A 
ATOM     29  C   UNL     1      -6.390  11.639  20.003  0.00  0.00    +0.000 A 
ATOM     30  C   UNL     1      -6.554  12.627  20.973  0.00  0.00    +0.000 A 
ATOM     31  C   UNL     1      -5.536  13.549  21.201  0.00  0.00    +0.000 A 
ATOM     32  C   UNL     1      -4.354  13.480  20.458  0.00  0.00    +0.000 A 
ENDBRANCH  26  27
ENDBRANCH  10  26
TORSDOF 6
ENDMDL
