MODEL 1
REMARK VINA RESULT:      -9.1      0.000      0.000
REMARK  Name = 
REMARK  4 active torsions:
REMARK  status: ('A' for Active; 'I' for Inactive)
REMARK    1  A    between atoms: C_2  and  C_13
REMARK    2  A    between atoms: N_3  and  C_4
REMARK    3  A    between atoms: C_17  and  S_18
REMARK    4  A    between atoms: S_18  and  N_21
REMARK                            x       y       z     vdW  Elec       q    Type
REMARK                         _______ _______ _______ _____ _____    ______ ____
ROOT
ATOM      1  C   UNL     1       6.788   6.051  17.324  0.00  0.00    +0.000 A 
ATOM      2  C   UNL     1       6.810   5.824  15.942  0.00  0.00    +0.000 A 
ATOM      3  C   UNL     1       6.024   4.805  15.400  0.00  0.00    +0.000 A 
ATOM      4  C   UNL     1       5.221   4.014  16.230  0.00  0.00    +0.000 A 
ATOM      5  C   UNL     1       5.203   4.239  17.611  0.00  0.00    +0.000 A 
ATOM      6  C   UNL     1       5.982   5.256  18.159  0.00  0.00    +0.000 A 
ENDROOT
BRANCH   1   8
ATOM      7  O   UNL     1       8.260   6.684  18.984  0.00  0.00    +0.000 OA
ATOM      8  C   UNL     1       7.650   7.064  17.989  0.00  0.00    +0.000 C 
ATOM      9  N   UNL     1       7.625   8.351  17.470  0.00  0.00    +0.000 N 
ATOM     10  H   UNL     1       6.982   8.544  16.714  0.00  0.00    +0.000 HD
BRANCH   9  11
ATOM     11  C   UNL     1       8.290   9.475  18.029  0.00  0.00    +0.000 A 
ATOM     12  C   UNL     1       9.088   9.397  19.187  0.00  0.00    +0.000 A 
ATOM     13  C   UNL     1       9.706  10.525  19.733  0.00  0.00    +0.000 A 
ATOM     14  C   UNL     1       9.531  11.740  19.102  0.00  0.00    +0.000 A 
ATOM     15  C   UNL     1       8.738  11.842  17.956  0.00  0.00    +0.000 A 
ATOM     16  C   UNL     1       8.121  10.722  17.405  0.00  0.00    +0.000 A 
ATOM     17  C   UNL     1       8.634  13.274  17.528  0.00  0.00    +0.000 C 
ATOM     18  C   UNL     1       9.858  13.885  18.231  0.00  0.00    +0.000 C 
ATOM     19  C   UNL     1      10.072  13.073  19.514  0.00  0.00    +0.000 C 
ENDBRANCH   9  11
ENDBRANCH   1   8
BRANCH   5  20
ATOM     20  S   UNL     1       4.110   3.239  18.611  0.00  0.00    +0.000 S 
ATOM     21  O   UNL     1       3.541   2.265  17.693  0.00  0.00    +0.000 OA
ATOM     22  O   UNL     1       4.865   2.823  19.767  0.00  0.00    +0.000 OA
BRANCH  20  23
ATOM     23  N   UNL     1       2.849   4.258  19.129  0.00  0.00    +0.000 NA
ATOM     24  C   UNL     1       2.785   4.588  20.591  0.00  0.00    +0.000 C 
ATOM     25  C   UNL     1       2.109   3.470  21.401  0.00  0.00    +0.000 C 
ATOM     26  O   UNL     1       0.813   3.135  20.883  0.00  0.00    +0.000 OA
ATOM     27  C   UNL     1       0.872   2.764  19.497  0.00  0.00    +0.000 C 
ATOM     28  C   UNL     1       1.474   3.888  18.651  0.00  0.00    +0.000 C 
ENDBRANCH  20  23
ENDBRANCH   5  20
TORSDOF 4
ENDMDL
MODEL 2
REMARK VINA RESULT:      -9.1      1.101      1.415
REMARK  Name = 
REMARK  4 active torsions:
REMARK  status: ('A' for Active; 'I' for Inactive)
REMARK    1  A    between atoms: C_2  and  C_13
REMARK    2  A    between atoms: N_3  and  C_4
REMARK    3  A    between atoms: C_17  and  S_18
REMARK    4  A    between atoms: S_18  and  N_21
REMARK                            x       y       z     vdW  Elec       q    Type
REMARK                         _______ _______ _______ _____ _____    ______ ____
ROOT
ATOM      1  C   UNL     1       6.719   6.173  17.109  0.00  0.00    +0.000 A 
ATOM      2  C   UNL     1       7.108   5.529  15.928  0.00  0.00    +0.000 A 
ATOM      3  C   UNL     1       6.255   4.590  15.342  0.00  0.00    +0.000 A 
ATOM      4  C   UNL     1       5.020   4.293  15.932  0.00  0.00    +0.000 A 
ATOM      5  C   UNL     1       4.635   4.935  17.115  0.00  0.00    +0.000 A 
ATOM      6  C   UNL     1       5.479   5.874  17.702  0.00  0.00    +0.000 A 
ENDROOT
BRANCH   1   8
ATOM      7  O   UNL     1       8.193   6.677  18.811  0.00  0.00    +0.000 OA
ATOM      8  C   UNL     1       7.599   7.127  17.835  0.00  0.00    +0.000 C 
ATOM      9  N   UNL     1       7.608   8.441  17.389  0.00  0.00    +0.000 N 
ATOM     10  H   UNL     1       6.975   8.691  16.641  0.00  0.00    +0.000 HD
BRANCH   9  11
ATOM     11  C   UNL     1       8.294   9.516  18.015  0.00  0.00    +0.000 A 
ATOM     12  C   UNL     1       9.039   9.364  19.200  0.00  0.00    +0.000 A 
ATOM     13  C   UNL     1       9.680  10.446  19.811  0.00  0.00    +0.000 A 
ATOM     14  C   UNL     1       9.581  11.688  19.217  0.00  0.00    +0.000 A 
ATOM     15  C   UNL     1       8.841  11.863  18.045  0.00  0.00    +0.000 A 
ATOM     16  C   UNL     1       8.203  10.790  17.429  0.00  0.00    +0.000 A 
ATOM     17  C   UNL     1       8.815  13.312  17.665  0.00  0.00    +0.000 C 
ATOM     18  C   UNL     1      10.032  13.846  18.437  0.00  0.00    +0.000 C 
ATOM     19  C   UNL     1      10.158  12.982  19.698  0.00  0.00    +0.000 C 
ENDBRANCH   9  11
ENDBRANCH   1   8
BRANCH   5  20
ATOM     20  S   UNL     1       3.020   4.560  17.785  0.00  0.00    +0.000 S 
ATOM     21  O   UNL     1       2.350   5.846  17.900  0.00  0.00    +0.000 OA
ATOM     22  O   UNL     1       2.469   3.500  16.979  0.00  0.00    +0.000 OA
BRANCH  20  23
ATOM     23  N   UNL     1       3.270   3.965  19.361  0.00  0.00    +0.000 NA
ATOM     24  C   UNL     1       3.085   2.493  19.579  0.00  0.00    +0.000 C 
ATOM     25  C   UNL     1       1.603   2.124  19.758  0.00  0.00    +0.000 C 
ATOM     26  O   UNL     1       0.976   2.890  20.797  0.00  0.00    +0.000 OA
ATOM     27  C   UNL     1       1.101   4.302  20.568  0.00  0.00    +0.000 C 
ATOM     28  C   UNL     1       2.570   4.714  20.458  0.00  0.00    +0.000 C 
ENDBRANCH  20  23
ENDBRANCH   5  20
TORSDOF 4
ENDMDL
MODEL 3
REMARK VINA RESULT:      -8.8      6.419      8.840
REMARK  Name = 
REMARK  4 active torsions:
REMARK  status: ('A' for Active; 'I' for Inactive)
REMARK    1  A    between atoms: C_2  and  C_13
REMARK    2  A    between atoms: N_3  and  C_4
REMARK    3  A    between atoms: C_17  and  S_18
REMARK    4  A    between atoms: S_18  and  N_21
REMARK                            x       y       z     vdW  Elec       q    Type
REMARK                         _______ _______ _______ _____ _____    ______ ____
ROOT
ATOM      1  C   UNL     1       1.252   9.014  19.285  0.00  0.00    +0.000 A 
ATOM      2  C   UNL     1       1.410   9.014  20.677  0.00  0.00    +0.000 A 
ATOM      3  C   UNL     1       0.557   9.789  21.467  0.00  0.00    +0.000 A 
ATOM      4  C   UNL     1      -0.448  10.562  20.872  0.00  0.00    +0.000 A 
ATOM      5  C   UNL     1      -0.602  10.563  19.481  0.00  0.00    +0.000 A 
ATOM      6  C   UNL     1       0.243   9.790  18.688  0.00  0.00    +0.000 A 
ENDROOT
BRANCH   1   8
ATOM      7  O   UNL     1       2.394   8.813  17.291  0.00  0.00    +0.000 OA
ATOM      8  C   UNL     1       2.164   8.276  18.371  0.00  0.00    +0.000 C 
ATOM      9  N   UNL     1       2.604   7.029  18.789  0.00  0.00    +0.000 N 
ATOM     10  H   UNL     1       2.235   6.664  19.657  0.00  0.00    +0.000 HD
BRANCH   9  11
ATOM     11  C   UNL     1       3.385   6.130  18.014  0.00  0.00    +0.000 A 
ATOM     12  C   UNL     1       2.956   4.832  17.681  0.00  0.00    +0.000 A 
ATOM     13  C   UNL     1       3.758   3.957  16.943  0.00  0.00    +0.000 A 
ATOM     14  C   UNL     1       4.997   4.398  16.523  0.00  0.00    +0.000 A 
ATOM     15  C   UNL     1       5.446   5.681  16.848  0.00  0.00    +0.000 A 
ATOM     16  C   UNL     1       4.651   6.558  17.581  0.00  0.00    +0.000 A 
ATOM     17  C   UNL     1       6.849   5.873  16.360  0.00  0.00    +0.000 C 
ATOM     18  C   UNL     1       6.946   4.775  15.288  0.00  0.00    +0.000 C 
ATOM     19  C   UNL     1       6.027   3.637  15.749  0.00  0.00    +0.000 C 
ENDBRANCH   9  11
ENDBRANCH   1   8
BRANCH   5  20
ATOM     20  S   UNL     1      -1.943  11.519  18.786  0.00  0.00    +0.000 S 
ATOM     21  O   UNL     1      -2.635  12.091  19.931  0.00  0.00    +0.000 OA
ATOM     22  O   UNL     1      -1.371  12.360  17.764  0.00  0.00    +0.000 OA
BRANCH  20  23
ATOM     23  N   UNL     1      -3.002  10.412  18.043  0.00  0.00    +0.000 NA
ATOM     24  C   UNL     1      -2.606   9.874  16.701  0.00  0.00    +0.000 C 
ATOM     25  C   UNL     1      -2.958  10.851  15.567  0.00  0.00    +0.000 C 
ATOM     26  O   UNL     1      -4.341  11.232  15.591  0.00  0.00    +0.000 OA
ATOM     27  C   UNL     1      -4.716  11.800  16.855  0.00  0.00    +0.000 C 
ATOM     28  C   UNL     1      -4.446  10.821  18.000  0.00  0.00    +0.000 C 
ENDBRANCH  20  23
ENDBRANCH   5  20
TORSDOF 4
ENDMDL
MODEL 4
REMARK VINA RESULT:      -8.7      4.662      6.834
REMARK  Name = 
REMARK  4 active torsions:
REMARK  status: ('A' for Active; 'I' for Inactive)
REMARK    1  A    between atoms: C_2  and  C_13
REMARK    2  A    between atoms: N_3  and  C_4
REMARK    3  A    between atoms: C_17  and  S_18
REMARK    4  A    between atoms: S_18  and  N_21
REMARK                            x       y       z     vdW  Elec       q    Type
REMARK                         _______ _______ _______ _____ _____    ______ ____
ROOT
ATOM      1  C   UNL     1       2.028   6.418  20.160  0.00  0.00    +0.000 A 
ATOM      2  C   UNL     1       1.313   5.383  20.775  0.00  0.00    +0.000 A 
ATOM      3  C   UNL     1       1.677   4.056  20.531  0.00  0.00    +0.000 A 
ATOM      4  C   UNL     1       2.748   3.763  19.678  0.00  0.00    +0.000 A 
ATOM      5  C   UNL     1       3.460   4.799  19.063  0.00  0.00    +0.000 A 
ATOM      6  C   UNL     1       3.104   6.123  19.303  0.00  0.00    +0.000 A 
ENDROOT
BRANCH   1   8
ATOM      7  O   UNL     1       1.505   8.253  21.458  0.00  0.00    +0.000 OA
ATOM      8  C   UNL     1       1.658   7.851  20.308  0.00  0.00    +0.000 C 
ATOM      9  N   UNL     1       1.449   8.572  19.141  0.00  0.00    +0.000 N 
ATOM     10  H   UNL     1       1.498   8.074  18.262  0.00  0.00    +0.000 HD
BRANCH   9  11
ATOM     11  C   UNL     1       0.985   9.913  19.075  0.00  0.00    +0.000 A 
ATOM     12  C   UNL     1      -0.351  10.276  19.333  0.00  0.00    +0.000 A 
ATOM     13  C   UNL     1      -0.787  11.600  19.232  0.00  0.00    +0.000 A 
ATOM     14  C   UNL     1       0.131  12.569  18.881  0.00  0.00    +0.000 A 
ATOM     15  C   UNL     1       1.460  12.230  18.613  0.00  0.00    +0.000 A 
ATOM     16  C   UNL     1       1.902  10.914  18.714  0.00  0.00    +0.000 A 
ATOM     17  C   UNL     1       2.219  13.442  18.165  0.00  0.00    +0.000 C 
ATOM     18  C   UNL     1       1.326  14.570  18.706  0.00  0.00    +0.000 C 
ATOM     19  C   UNL     1      -0.110  14.033  18.690  0.00  0.00    +0.000 C 
ENDBRANCH   9  11
ENDBRANCH   1   8
BRANCH   5  20
ATOM     20  S   UNL     1       4.856   4.363  18.035  0.00  0.00    +0.000 S 
ATOM     21  O   UNL     1       6.012   4.436  18.914  0.00  0.00    +0.000 OA
ATOM     22  O   UNL     1       4.510   3.139  17.356  0.00  0.00    +0.000 OA
BRANCH  20  23
ATOM     23  N   UNL     1       5.013   5.597  16.873  0.00  0.00    +0.000 NA
ATOM     24  C   UNL     1       5.366   5.187  15.474  0.00  0.00    +0.000 C 
ATOM     25  C   UNL     1       6.877   4.949  15.312  0.00  0.00    +0.000 C 
ATOM     26  O   UNL     1       7.651   6.081  15.737  0.00  0.00    +0.000 OA
ATOM     27  C   UNL     1       7.359   6.447  17.094  0.00  0.00    +0.000 C 
ATOM     28  C   UNL     1       5.872   6.762  17.272  0.00  0.00    +0.000 C 
ENDBRANCH  20  23
ENDBRANCH   5  20
TORSDOF 4
ENDMDL
MODEL 5
REMARK VINA RESULT:      -8.7      6.840      8.396
REMARK  Name = 
REMARK  4 active torsions:
REMARK  status: ('A' for Active; 'I' for Inactive)
REMARK    1  A    between atoms: C_2  and  C_13
REMARK    2  A    between atoms: N_3  and  C_4
REMARK    3  A    between atoms: C_17  and  S_18
REMARK    4  A    between atoms: S_18  and  N_21
REMARK                            x       y       z     vdW  Elec       q    Type
REMARK                         _______ _______ _______ _____ _____    ______ ____
ROOT
ATOM      1  C   UNL     1       1.281   9.328  20.027  0.00  0.00    +0.000 A 
ATOM      2  C   UNL     1       1.400   9.770  18.704  0.00  0.00    +0.000 A 
ATOM      3  C   UNL     1       1.928   8.911  17.736  0.00  0.00    +0.000 A 
ATOM      4  C   UNL     1       2.339   7.619  18.087  0.00  0.00    +0.000 A 
ATOM      5  C   UNL     1       2.223   7.181  19.411  0.00  0.00    +0.000 A 
ATOM      6  C   UNL     1       1.694   8.030  20.379  0.00  0.00    +0.000 A 
ENDROOT
BRANCH   1   8
ATOM      7  O   UNL     1       1.077   9.838  22.268  0.00  0.00    +0.000 OA
ATOM      8  C   UNL     1       0.800  10.203  21.129  0.00  0.00    +0.000 C 
ATOM      9  N   UNL     1       0.026  11.298  20.773  0.00  0.00    +0.000 N 
ATOM     10  H   UNL     1      -0.219  11.406  19.798  0.00  0.00    +0.000 HD
BRANCH   9  11
ATOM     11  C   UNL     1      -0.615  12.183  21.681  0.00  0.00    +0.000 A 
ATOM     12  C   UNL     1      -0.083  13.439  22.031  0.00  0.00    +0.000 A 
ATOM     13  C   UNL     1      -0.719  14.277  22.952  0.00  0.00    +0.000 A 
ATOM     14  C   UNL     1      -1.906  13.854  23.513  0.00  0.00    +0.000 A 
ATOM     15  C   UNL     1      -2.448  12.608  23.186  0.00  0.00    +0.000 A 
ATOM     16  C   UNL     1      -1.822  11.769  22.269  0.00  0.00    +0.000 A 
ATOM     17  C   UNL     1      -3.679  12.353  24.001  0.00  0.00    +0.000 C 
ATOM     18  C   UNL     1      -4.057  13.781  24.427  0.00  0.00    +0.000 C 
ATOM     19  C   UNL     1      -2.744  14.566  24.529  0.00  0.00    +0.000 C 
ENDBRANCH   9  11
ENDBRANCH   1   8
BRANCH   5  20
ATOM     20  S   UNL     1       2.705   5.500  19.783  0.00  0.00    +0.000 S 
ATOM     21  O   UNL     1       4.154   5.486  19.664  0.00  0.00    +0.000 OA
ATOM     22  O   UNL     1       2.054   5.143  21.020  0.00  0.00    +0.000 OA
BRANCH  20  23
ATOM     23  N   UNL     1       2.074   4.522  18.541  0.00  0.00    +0.000 NA
ATOM     24  C   UNL     1       1.212   3.364  18.945  0.00  0.00    +0.000 C 
ATOM     25  C   UNL     1       2.051   2.148  19.369  0.00  0.00    +0.000 C 
ATOM     26  O   UNL     1       3.000   1.767  18.363  0.00  0.00    +0.000 OA
ATOM     27  C   UNL     1       3.867   2.855  18.009  0.00  0.00    +0.000 C 
ATOM     28  C   UNL     1       3.064   4.059  17.511  0.00  0.00    +0.000 C 
ENDBRANCH  20  23
ENDBRANCH   5  20
TORSDOF 4
ENDMDL
MODEL 6
REMARK VINA RESULT:      -8.7      4.901      7.690
REMARK  Name = 
REMARK  4 active torsions:
REMARK  status: ('A' for Active; 'I' for Inactive)
REMARK    1  A    between atoms: C_2  and  C_13
REMARK    2  A    between atoms: N_3  and  C_4
REMARK    3  A    between atoms: C_17  and  S_18
REMARK    4  A    between atoms: S_18  and  N_21
REMARK                            x       y       z     vdW  Elec       q    Type
REMARK                         _______ _______ _______ _____ _____    ______ ____
ROOT
ATOM      1  C   UNL     1       2.023   6.058  20.172  0.00  0.00    +0.000 A 
ATOM      2  C   UNL     1       1.442   4.993  20.871  0.00  0.00    +0.000 A 
ATOM      3  C   UNL     1       1.919   3.695  20.667  0.00  0.00    +0.000 A 
ATOM      4  C   UNL     1       2.967   3.461  19.770  0.00  0.00    +0.000 A 
ATOM      5  C   UNL     1       3.544   4.526  19.069  0.00  0.00    +0.000 A 
ATOM      6  C   UNL     1       3.076   5.822  19.270  0.00  0.00    +0.000 A 
ENDROOT
BRANCH   1   8
ATOM      7  O   UNL     1       2.087   8.283  19.561  0.00  0.00    +0.000 OA
ATOM      8  C   UNL     1       1.526   7.457  20.275  0.00  0.00    +0.000 C 
ATOM      9  N   UNL     1       0.535   7.706  21.214  0.00  0.00    +0.000 N 
ATOM     10  H   UNL     1       0.251   6.944  21.815  0.00  0.00    +0.000 HD
BRANCH   9  11
ATOM     11  C   UNL     1       0.013   8.987  21.537  0.00  0.00    +0.000 A 
ATOM     12  C   UNL     1      -0.243   9.399  22.858  0.00  0.00    +0.000 A 
ATOM     13  C   UNL     1      -0.787  10.655  23.146  0.00  0.00    +0.000 A 
ATOM     14  C   UNL     1      -1.061  11.507  22.096  0.00  0.00    +0.000 A 
ATOM     15  C   UNL     1      -0.822  11.116  20.776  0.00  0.00    +0.000 A 
ATOM     16  C   UNL     1      -0.279   9.868  20.482  0.00  0.00    +0.000 A 
ATOM     17  C   UNL     1      -1.293  12.179  19.831  0.00  0.00    +0.000 C 
ATOM     18  C   UNL     1      -1.336  13.405  20.758  0.00  0.00    +0.000 C 
ATOM     19  C   UNL     1      -1.660  12.877  22.161  0.00  0.00    +0.000 C 
ENDBRANCH   9  11
ENDBRANCH   1   8
BRANCH   5  20
ATOM     20  S   UNL     1       4.920   4.172  17.985  0.00  0.00    +0.000 S 
ATOM     21  O   UNL     1       6.098   4.224  18.838  0.00  0.00    +0.000 OA
ATOM     22  O   UNL     1       4.580   2.976  17.255  0.00  0.00    +0.000 OA
BRANCH  20  23
ATOM     23  N   UNL     1       5.023   5.465  16.884  0.00  0.00    +0.000 NA
ATOM     24  C   UNL     1       5.367   5.135  15.462  0.00  0.00    +0.000 C 
ATOM     25  C   UNL     1       6.881   4.952  15.268  0.00  0.00    +0.000 C 
ATOM     26  O   UNL     1       7.627   6.084  15.737  0.00  0.00    +0.000 OA
ATOM     27  C   UNL     1       7.346   6.375  17.114  0.00  0.00    +0.000 C 
ATOM     28  C   UNL     1       5.853   6.635  17.328  0.00  0.00    +0.000 C 
ENDBRANCH  20  23
ENDBRANCH   5  20
TORSDOF 4
ENDMDL
MODEL 7
REMARK VINA RESULT:      -8.6      1.638      1.984
REMARK  Name = 
REMARK  4 active torsions:
REMARK  status: ('A' for Active; 'I' for Inactive)
REMARK    1  A    between atoms: C_2  and  C_13
REMARK    2  A    between atoms: N_3  and  C_4
REMARK    3  A    between atoms: C_17  and  S_18
REMARK    4  A    between atoms: S_18  and  N_21
REMARK                            x       y       z     vdW  Elec       q    Type
REMARK                         _______ _______ _______ _____ _____    ______ ____
ROOT
ATOM      1  C   UNL     1       6.897   6.777  17.481  0.00  0.00    +0.000 A 
ATOM      2  C   UNL     1       7.065   6.229  16.203  0.00  0.00    +0.000 A 
ATOM      3  C   UNL     1       6.058   5.425  15.662  0.00  0.00    +0.000 A 
ATOM      4  C   UNL     1       4.891   5.167  16.391  0.00  0.00    +0.000 A 
ATOM      5  C   UNL     1       4.727   5.713  17.669  0.00  0.00    +0.000 A 
ATOM      6  C   UNL     1       5.725   6.518  18.213  0.00  0.00    +0.000 A 
ENDROOT
BRANCH   1   8
ATOM      7  O   UNL     1       8.618   6.990  19.002  0.00  0.00    +0.000 OA
ATOM      8  C   UNL     1       7.950   7.580  18.157  0.00  0.00    +0.000 C 
ATOM      9  N   UNL     1       8.028   8.925  17.827  0.00  0.00    +0.000 N 
ATOM     10  H   UNL     1       7.331   9.298  17.196  0.00  0.00    +0.000 HD
BRANCH   9  11
ATOM     11  C   UNL     1       8.888   9.874  18.442  0.00  0.00    +0.000 A 
ATOM     12  C   UNL     1       8.946  10.066  19.835  0.00  0.00    +0.000 A 
ATOM     13  C   UNL     1       9.780  11.029  20.412  0.00  0.00    +0.000 A 
ATOM     14  C   UNL     1      10.572  11.794  19.581  0.00  0.00    +0.000 A 
ATOM     15  C   UNL     1      10.525  11.625  18.194  0.00  0.00    +0.000 A 
ATOM     16  C   UNL     1       9.699  10.667  17.613  0.00  0.00    +0.000 A 
ATOM     17  C   UNL     1      11.403  12.637  17.523  0.00  0.00    +0.000 C 
ATOM     18  C   UNL     1      12.333  13.039  18.679  0.00  0.00    +0.000 C 
ATOM     19  C   UNL     1      11.516  12.889  19.967  0.00  0.00    +0.000 C 
ENDBRANCH   9  11
ENDBRANCH   1   8
BRANCH   5  20
ATOM     20  S   UNL     1       3.189   5.401  18.525  0.00  0.00    +0.000 S 
ATOM     21  O   UNL     1       3.489   5.605  19.933  0.00  0.00    +0.000 OA
ATOM     22  O   UNL     1       2.174   6.178  17.858  0.00  0.00    +0.000 OA
BRANCH  20  23
ATOM     23  N   UNL     1       2.833   3.750  18.307  0.00  0.00    +0.000 NA
ATOM     24  C   UNL     1       1.394   3.338  18.393  0.00  0.00    +0.000 C 
ATOM     25  C   UNL     1       0.936   3.163  19.850  0.00  0.00    +0.000 C 
ATOM     26  O   UNL     1       1.783   2.263  20.580  0.00  0.00    +0.000 OA
ATOM     27  C   UNL     1       3.156   2.681  20.549  0.00  0.00    +0.000 C 
ATOM     28  C   UNL     1       3.665   2.793  19.110  0.00  0.00    +0.000 C 
ENDBRANCH  20  23
ENDBRANCH   5  20
TORSDOF 4
ENDMDL
MODEL 8
REMARK VINA RESULT:      -8.5      5.324      6.983
REMARK  Name = 
REMARK  4 active torsions:
REMARK  status: ('A' for Active; 'I' for Inactive)
REMARK    1  A    between atoms: C_2  and  C_13
REMARK    2  A    between atoms: N_3  and  C_4
REMARK    3  A    between atoms: C_17  and  S_18
REMARK    4  A    between atoms: S_18  and  N_21
REMARK                            x       y       z     vdW  Elec       q    Type
REMARK                         _______ _______ _______ _____ _____    ______ ____
ROOT
ATOM      1  C   UNL     1       2.026   7.662  19.217  0.00  0.00    +0.000 A 
ATOM      2  C   UNL     1       1.516   7.145  20.415  0.00  0.00    +0.000 A 
ATOM      3  C   UNL     1       1.830   5.835  20.787  0.00  0.00    +0.000 A 
ATOM      4  C   UNL     1       2.645   5.044  19.969  0.00  0.00    +0.000 A 
ATOM      5  C   UNL     1       3.151   5.562  18.771  0.00  0.00    +0.000 A 
ATOM      6  C   UNL     1       2.846   6.867  18.396  0.00  0.00    +0.000 A 
ENDROOT
BRANCH   1   8
ATOM      7  O   UNL     1       2.126   9.312  17.607  0.00  0.00    +0.000 OA
ATOM      8  C   UNL     1       1.680   9.018  18.713  0.00  0.00    +0.000 C 
ATOM      9  N   UNL     1       0.958   9.842  19.564  0.00  0.00    +0.000 N 
ATOM     10  H   UNL     1       0.760   9.503  20.496  0.00  0.00    +0.000 HD
BRANCH   9  11
ATOM     11  C   UNL     1       0.629  11.201  19.309  0.00  0.00    +0.000 A 
ATOM     12  C   UNL     1      -0.529  11.590  18.610  0.00  0.00    +0.000 A 
ATOM     13  C   UNL     1      -0.814  12.934  18.347  0.00  0.00    +0.000 A 
ATOM     14  C   UNL     1       0.068  13.893  18.803  0.00  0.00    +0.000 A 
ATOM     15  C   UNL     1       1.227  13.528  19.492  0.00  0.00    +0.000 A 
ATOM     16  C   UNL     1       1.515  12.192  19.760  0.00  0.00    +0.000 A 
ATOM     17  C   UNL     1       2.053  14.742  19.789  0.00  0.00    +0.000 C 
ATOM     18  C   UNL     1       1.002  15.856  19.661  0.00  0.00    +0.000 C 
ATOM     19  C   UNL     1      -0.017  15.376  18.621  0.00  0.00    +0.000 C 
ENDBRANCH   9  11
ENDBRANCH   1   8
BRANCH   5  20
ATOM     20  S   UNL     1       4.238   4.525  17.802  0.00  0.00    +0.000 S 
ATOM     21  O   UNL     1       5.016   3.775  18.776  0.00  0.00    +0.000 OA
ATOM     22  O   UNL     1       3.416   3.854  16.827  0.00  0.00    +0.000 OA
BRANCH  20  23
ATOM     23  N   UNL     1       5.306   5.567  16.981  0.00  0.00    +0.000 NA
ATOM     24  C   UNL     1       5.594   5.263  15.541  0.00  0.00    +0.000 C 
ATOM     25  C   UNL     1       6.667   4.173  15.390  0.00  0.00    +0.000 C 
ATOM     26  O   UNL     1       7.868   4.492  16.108  0.00  0.00    +0.000 OA
ATOM     27  C   UNL     1       7.609   4.731  17.500  0.00  0.00    +0.000 C 
ATOM     28  C   UNL     1       6.597   5.864  17.686  0.00  0.00    +0.000 C 
ENDBRANCH  20  23
ENDBRANCH   5  20
TORSDOF 4
ENDMDL
MODEL 9
REMARK VINA RESULT:      -8.5      1.390      1.638
REMARK  Name = 
REMARK  4 active torsions:
REMARK  status: ('A' for Active; 'I' for Inactive)
REMARK    1  A    between atoms: C_2  and  C_13
REMARK    2  A    between atoms: N_3  and  C_4
REMARK    3  A    between atoms: C_17  and  S_18
REMARK    4  A    between atoms: S_18  and  N_21
REMARK                            x       y       z     vdW  Elec       q    Type
REMARK                         _______ _______ _______ _____ _____    ______ ____
ROOT
ATOM      1  C   UNL     1       7.108   6.693  17.679  0.00  0.00    +0.000 A 
ATOM      2  C   UNL     1       7.056   6.503  16.293  0.00  0.00    +0.000 A 
ATOM      3  C   UNL     1       6.136   5.597  15.756  0.00  0.00    +0.000 A 
ATOM      4  C   UNL     1       5.275   4.884  16.598  0.00  0.00    +0.000 A 
ATOM      5  C   UNL     1       5.331   5.072  17.984  0.00  0.00    +0.000 A 
ATOM      6  C   UNL     1       6.243   5.975  18.525  0.00  0.00    +0.000 A 
ENDROOT
BRANCH   1   8
ATOM      7  O   UNL     1       8.767   7.074  19.237  0.00  0.00    +0.000 OA
ATOM      8  C   UNL     1       8.107   7.580  18.334  0.00  0.00    +0.000 C 
ATOM      9  N   UNL     1       8.144   8.903  17.917  0.00  0.00    +0.000 N 
ATOM     10  H   UNL     1       7.455   9.205  17.241  0.00  0.00    +0.000 HD
BRANCH   9  11
ATOM     11  C   UNL     1       8.946   9.924  18.494  0.00  0.00    +0.000 A 
ATOM     12  C   UNL     1       9.009  10.157  19.881  0.00  0.00    +0.000 A 
ATOM     13  C   UNL     1       9.784  11.189  20.421  0.00  0.00    +0.000 A 
ATOM     14  C   UNL     1      10.511  11.983  19.558  0.00  0.00    +0.000 A 
ATOM     15  C   UNL     1      10.457  11.774  18.177  0.00  0.00    +0.000 A 
ATOM     16  C   UNL     1       9.690  10.747  17.633  0.00  0.00    +0.000 A 
ATOM     17  C   UNL     1      11.255  12.824  17.467  0.00  0.00    +0.000 C 
ATOM     18  C   UNL     1      12.172  13.319  18.597  0.00  0.00    +0.000 C 
ATOM     19  C   UNL     1      11.383  13.149  19.901  0.00  0.00    +0.000 C 
ENDBRANCH   9  11
ENDBRANCH   1   8
BRANCH   5  20
ATOM     20  S   UNL     1       4.163   4.180  19.001  0.00  0.00    +0.000 S 
ATOM     21  O   UNL     1       4.893   3.020  19.489  0.00  0.00    +0.000 OA
ATOM     22  O   UNL     1       3.585   5.136  19.912  0.00  0.00    +0.000 OA
BRANCH  20  23
ATOM     23  N   UNL     1       2.938   3.617  17.961  0.00  0.00    +0.000 NA
ATOM     24  C   UNL     1       1.584   4.250  18.086  0.00  0.00    +0.000 C 
ATOM     25  C   UNL     1       0.773   3.643  19.243  0.00  0.00    +0.000 C 
ATOM     26  O   UNL     1       0.676   2.214  19.144  0.00  0.00    +0.000 OA
ATOM     27  C   UNL     1       1.970   1.595  19.079  0.00  0.00    +0.000 C 
ATOM     28  C   UNL     1       2.776   2.126  17.892  0.00  0.00    +0.000 C 
ENDBRANCH  20  23
ENDBRANCH   5  20
TORSDOF 4
ENDMDL
