MODEL 1
REMARK VINA RESULT:      -8.8      0.000      0.000
REMARK  Name = 
REMARK  7 active torsions:
REMARK  status: ('A' for Active; 'I' for Inactive)
REMARK    1  A    between atoms: C_1  and  N_2
REMARK    2  A    between atoms: N_2  and  C_3
REMARK    3  A    between atoms: N_2  and  C_4
REMARK    4  A    between atoms: C_4  and  C_5
REMARK    5  A    between atoms: C_5  and  N_6
REMARK    6  A    between atoms: N_6  and  C_7
REMARK    7  A    between atoms: C_9  and  C_10
REMARK                            x       y       z     vdW  Elec       q    Type
REMARK                         _______ _______ _______ _____ _____    ______ ____
ROOT
ATOM      1  C   UNL     1       5.039   4.538  18.219  0.00  0.00    +0.000 A 
ATOM      2  N   UNL     1       4.125   5.454  18.650  0.00  0.00    +0.000 NA
ATOM      3  C   UNL     1       3.788   6.554  17.904  0.00  0.00    +0.000 A 
ATOM      4  N   UNL     1       4.364   6.747  16.674  0.00  0.00    +0.000 NA
ATOM      5  C   UNL     1       5.304   5.858  16.266  0.00  0.00    +0.000 A 
ATOM      6  N   UNL     1       5.999   5.874  15.125  0.00  0.00    +0.000 N 
ATOM      7  C   UNL     1       6.782   4.769  15.202  0.00  0.00    +0.000 A 
ATOM      8  N   UNL     1       6.591   4.063  16.349  0.00  0.00    +0.000 NA
ATOM      9  C   UNL     1       5.662   4.781  17.003  0.00  0.00    +0.000 A 
ATOM     10  H   UNL     1       5.947   6.571  14.353  0.00  0.00    +0.000 HD
ENDROOT
BRANCH   3  11
ATOM     11  C   UNL     1       2.812   7.520  18.439  0.00  0.00    +0.000 A 
ATOM     12  C   UNL     1       2.359   8.585  17.638  0.00  0.00    +0.000 A 
ATOM     13  C   UNL     1       1.413   9.488  18.127  0.00  0.00    +0.000 A 
ATOM     14  C   UNL     1       0.936   9.366  19.439  0.00  0.00    +0.000 A 
ATOM     15  C   UNL     1       0.001  10.279  19.951  0.00  0.00    +0.000 A 
ATOM     16  C   UNL     1      -0.440  10.163  21.272  0.00  0.00    +0.000 A 
ATOM     17  C   UNL     1       0.045   9.138  22.089  0.00  0.00    +0.000 A 
ATOM     18  C   UNL     1       0.963   8.213  21.586  0.00  0.00    +0.000 A 
ATOM     19  C   UNL     1       1.410   8.314  20.261  0.00  0.00    +0.000 A 
ATOM     20  C   UNL     1       2.326   7.386  19.746  0.00  0.00    +0.000 A 
ENDBRANCH   3  11
BRANCH   1  21
ATOM     21  N   UNL     1       5.292   3.365  18.977  0.00  0.00    +0.000 N 
ATOM     22  H   UNL     1       6.167   2.837  18.843  0.00  0.00    +0.000 HD
BRANCH  21  23
ATOM     23  C   UNL     1       4.239   2.783  19.783  0.00  0.00    +0.000 C 
BRANCH  23  24
ATOM     24  C   UNL     1       3.280   1.968  18.879  0.00  0.00    +0.000 C 
BRANCH  24  26
ATOM     25  C   UNL     1       1.641   2.593  20.592  0.00  0.00    +0.000 C 
ATOM     26  N   UNL     1       1.852   2.243  19.176  0.00  0.00    +0.000 NA
ATOM     27  C   UNL     1       1.358   3.337  18.322  0.00  0.00    +0.000 C 
ENDBRANCH  24  26
ENDBRANCH  23  24
ENDBRANCH  21  23
ENDBRANCH   1  21
TORSDOF 5
ENDMDL
MODEL 2
REMARK VINA RESULT:      -8.4      0.603      1.562
REMARK  Name = 
REMARK  7 active torsions:
REMARK  status: ('A' for Active; 'I' for Inactive)
REMARK    1  A    between atoms: C_1  and  N_2
REMARK    2  A    between atoms: N_2  and  C_3
REMARK    3  A    between atoms: N_2  and  C_4
REMARK    4  A    between atoms: C_4  and  C_5
REMARK    5  A    between atoms: C_5  and  N_6
REMARK    6  A    between atoms: N_6  and  C_7
REMARK    7  A    between atoms: C_9  and  C_10
REMARK                            x       y       z     vdW  Elec       q    Type
REMARK                         _______ _______ _______ _____ _____    ______ ____
ROOT
ATOM      1  C   UNL     1       4.968   4.433  18.345  0.00  0.00    +0.000 A 
ATOM      2  N   UNL     1       4.049   5.267  18.909  0.00  0.00    +0.000 NA
ATOM      3  C   UNL     1       3.629   6.415  18.289  0.00  0.00    +0.000 A 
ATOM      4  N   UNL     1       4.125   6.744  17.052  0.00  0.00    +0.000 NA
ATOM      5  C   UNL     1       5.070   5.935  16.512  0.00  0.00    +0.000 A 
ATOM      6  N   UNL     1       5.696   6.083  15.341  0.00  0.00    +0.000 N 
ATOM      7  C   UNL     1       6.522   5.009  15.270  0.00  0.00    +0.000 A 
ATOM      8  N   UNL     1       6.424   4.195  16.355  0.00  0.00    +0.000 NA
ATOM      9  C   UNL     1       5.510   4.811  17.124  0.00  0.00    +0.000 A 
ATOM     10  H   UNL     1       5.573   6.846  14.642  0.00  0.00    +0.000 HD
ENDROOT
BRANCH   3  11
ATOM     11  C   UNL     1       2.653   7.287  18.965  0.00  0.00    +0.000 A 
ATOM     12  C   UNL     1       2.177   6.957  20.248  0.00  0.00    +0.000 A 
ATOM     13  C   UNL     1       1.274   7.792  20.908  0.00  0.00    +0.000 A 
ATOM     14  C   UNL     1       0.798   8.950  20.279  0.00  0.00    +0.000 A 
ATOM     15  C   UNL     1      -0.125   9.789  20.922  0.00  0.00    +0.000 A 
ATOM     16  C   UNL     1      -0.615  10.923  20.268  0.00  0.00    +0.000 A 
ATOM     17  C   UNL     1      -0.187  11.229  18.973  0.00  0.00    +0.000 A 
ATOM     18  C   UNL     1       0.746  10.412  18.329  0.00  0.00    +0.000 A 
ATOM     19  C   UNL     1       1.250   9.274  18.975  0.00  0.00    +0.000 A 
ATOM     20  C   UNL     1       2.191   8.453  18.339  0.00  0.00    +0.000 A 
ENDBRANCH   3  11
BRANCH   1  21
ATOM     21  N   UNL     1       5.308   3.207  18.974  0.00  0.00    +0.000 N 
ATOM     22  H   UNL     1       6.182   2.719  18.728  0.00  0.00    +0.000 HD
BRANCH  21  23
ATOM     23  C   UNL     1       4.335   2.526  19.803  0.00  0.00    +0.000 C 
BRANCH  23  24
ATOM     24  C   UNL     1       3.264   1.854  18.907  0.00  0.00    +0.000 C 
BRANCH  24  26
ATOM     25  C   UNL     1       1.868   2.646  20.761  0.00  0.00    +0.000 C 
ATOM     26  N   UNL     1       1.884   2.107  19.389  0.00  0.00    +0.000 NA
ATOM     27  C   UNL     1       1.195   3.047  18.486  0.00  0.00    +0.000 C 
ENDBRANCH  24  26
ENDBRANCH  23  24
ENDBRANCH  21  23
ENDBRANCH   1  21
TORSDOF 5
ENDMDL
MODEL 3
REMARK VINA RESULT:      -8.2      0.935      1.875
REMARK  Name = 
REMARK  7 active torsions:
REMARK  status: ('A' for Active; 'I' for Inactive)
REMARK    1  A    between atoms: C_1  and  N_2
REMARK    2  A    between atoms: N_2  and  C_3
REMARK    3  A    between atoms: N_2  and  C_4
REMARK    4  A    between atoms: C_4  and  C_5
REMARK    5  A    between atoms: C_5  and  N_6
REMARK    6  A    between atoms: N_6  and  C_7
REMARK    7  A    between atoms: C_9  and  C_10
REMARK                            x       y       z     vdW  Elec       q    Type
REMARK                         _______ _______ _______ _____ _____    ______ ____
ROOT
ATOM      1  C   UNL     1       4.459   3.941  17.381  0.00  0.00    +0.000 A 
ATOM      2  N   UNL     1       3.670   4.833  18.046  0.00  0.00    +0.000 NA
ATOM      3  C   UNL     1       3.666   6.170  17.742  0.00  0.00    +0.000 A 
ATOM      4  N   UNL     1       4.461   6.643  16.729  0.00  0.00    +0.000 NA
ATOM      5  C   UNL     1       5.276   5.761  16.098  0.00  0.00    +0.000 A 
ATOM      6  N   UNL     1       6.140   6.014  15.110  0.00  0.00    +0.000 N 
ATOM      7  C   UNL     1       6.685   4.803  14.831  0.00  0.00    +0.000 A 
ATOM      8  N   UNL     1       6.183   3.806  15.608  0.00  0.00    +0.000 NA
ATOM      9  C   UNL     1       5.306   4.443  16.403  0.00  0.00    +0.000 A 
ATOM     10  H   UNL     1       6.343   6.929  14.656  0.00  0.00    +0.000 HD
ENDROOT
BRANCH   3  11
ATOM     11  C   UNL     1       2.809   7.085  18.517  0.00  0.00    +0.000 A 
ATOM     12  C   UNL     1       2.414   6.748  19.825  0.00  0.00    +0.000 A 
ATOM     13  C   UNL     1       1.627   7.623  20.576  0.00  0.00    +0.000 A 
ATOM     14  C   UNL     1       1.185   8.829  20.017  0.00  0.00    +0.000 A 
ATOM     15  C   UNL     1       0.376   9.708  20.753  0.00  0.00    +0.000 A 
ATOM     16  C   UNL     1      -0.083  10.892  20.170  0.00  0.00    +0.000 A 
ATOM     17  C   UNL     1       0.262  11.208  18.853  0.00  0.00    +0.000 A 
ATOM     18  C   UNL     1       1.082  10.350  18.115  0.00  0.00    +0.000 A 
ATOM     19  C   UNL     1       1.554   9.162  18.690  0.00  0.00    +0.000 A 
ATOM     20  C   UNL     1       2.383   8.298  17.960  0.00  0.00    +0.000 A 
ENDBRANCH   3  11
BRANCH   1  21
ATOM     21  N   UNL     1       4.366   2.553  17.660  0.00  0.00    +0.000 N 
ATOM     22  H   UNL     1       5.145   1.921  17.424  0.00  0.00    +0.000 HD
BRANCH  21  23
ATOM     23  C   UNL     1       3.102   1.982  18.078  0.00  0.00    +0.000 C 
BRANCH  23  24
ATOM     24  C   UNL     1       3.010   1.993  19.624  0.00  0.00    +0.000 C 
BRANCH  24  26
ATOM     25  C   UNL     1       0.745   2.869  19.287  0.00  0.00    +0.000 C 
ATOM     26  N   UNL     1       1.958   2.915  20.122  0.00  0.00    +0.000 NA
ATOM     27  C   UNL     1       1.607   2.580  21.514  0.00  0.00    +0.000 C 
ENDBRANCH  24  26
ENDBRANCH  23  24
ENDBRANCH  21  23
ENDBRANCH   1  21
TORSDOF 5
ENDMDL
MODEL 4
REMARK VINA RESULT:      -8.2      1.115      1.435
REMARK  Name = 
REMARK  7 active torsions:
REMARK  status: ('A' for Active; 'I' for Inactive)
REMARK    1  A    between atoms: C_1  and  N_2
REMARK    2  A    between atoms: N_2  and  C_3
REMARK    3  A    between atoms: N_2  and  C_4
REMARK    4  A    between atoms: C_4  and  C_5
REMARK    5  A    between atoms: C_5  and  N_6
REMARK    6  A    between atoms: N_6  and  C_7
REMARK    7  A    between atoms: C_9  and  C_10
REMARK                            x       y       z     vdW  Elec       q    Type
REMARK                         _______ _______ _______ _____ _____    ______ ____
ROOT
ATOM      1  C   UNL     1       3.232   4.358  17.290  0.00  0.00    +0.000 A 
ATOM      2  N   UNL     1       2.543   5.391  17.853  0.00  0.00    +0.000 NA
ATOM      3  C   UNL     1       3.078   6.648  17.967  0.00  0.00    +0.000 A 
ATOM      4  N   UNL     1       4.339   6.900  17.488  0.00  0.00    +0.000 NA
ATOM      5  C   UNL     1       5.039   5.861  16.967  0.00  0.00    +0.000 A 
ATOM      6  N   UNL     1       6.279   5.883  16.472  0.00  0.00    +0.000 N 
ATOM      7  C   UNL     1       6.496   4.605  16.072  0.00  0.00    +0.000 A 
ATOM      8  N   UNL     1       5.429   3.792  16.295  0.00  0.00    +0.000 NA
ATOM      9  C   UNL     1       4.531   4.611  16.869  0.00  0.00    +0.000 A 
ATOM     10  H   UNL     1       6.928   6.695  16.405  0.00  0.00    +0.000 HD
ENDROOT
BRANCH   3  11
ATOM     11  C   UNL     1       2.290   7.714  18.611  0.00  0.00    +0.000 A 
ATOM     12  C   UNL     1       1.840   8.815  17.857  0.00  0.00    +0.000 A 
ATOM     13  C   UNL     1       1.068   9.814  18.452  0.00  0.00    +0.000 A 
ATOM     14  C   UNL     1       0.770   9.753  19.820  0.00  0.00    +0.000 A 
ATOM     15  C   UNL     1       0.013  10.761  20.436  0.00  0.00    +0.000 A 
ATOM     16  C   UNL     1      -0.249  10.701  21.808  0.00  0.00    +0.000 A 
ATOM     17  C   UNL     1       0.240   9.638  22.572  0.00  0.00    +0.000 A 
ATOM     18  C   UNL     1       0.980   8.619  21.967  0.00  0.00    +0.000 A 
ATOM     19  C   UNL     1       1.245   8.663  20.591  0.00  0.00    +0.000 A 
ATOM     20  C   UNL     1       1.981   7.641  19.975  0.00  0.00    +0.000 A 
ENDBRANCH   3  11
BRANCH   1  21
ATOM     21  N   UNL     1       2.611   3.095  17.105  0.00  0.00    +0.000 N 
ATOM     22  H   UNL     1       1.877   2.976  16.392  0.00  0.00    +0.000 HD
BRANCH  21  23
ATOM     23  C   UNL     1       2.848   2.027  18.054  0.00  0.00    +0.000 C 
BRANCH  23  24
ATOM     24  C   UNL     1       1.817   2.114  19.206  0.00  0.00    +0.000 C 
BRANCH  24  26
ATOM     25  C   UNL     1       1.556   2.606  21.594  0.00  0.00    +0.000 C 
ATOM     26  N   UNL     1       2.332   2.877  20.370  0.00  0.00    +0.000 NA
ATOM     27  C   UNL     1       3.749   2.548  20.606  0.00  0.00    +0.000 C 
ENDBRANCH  24  26
ENDBRANCH  23  24
ENDBRANCH  21  23
ENDBRANCH   1  21
TORSDOF 5
ENDMDL
MODEL 5
REMARK VINA RESULT:      -8.1      1.283      3.721
REMARK  Name = 
REMARK  7 active torsions:
REMARK  status: ('A' for Active; 'I' for Inactive)
REMARK    1  A    between atoms: C_1  and  N_2
REMARK    2  A    between atoms: N_2  and  C_3
REMARK    3  A    between atoms: N_2  and  C_4
REMARK    4  A    between atoms: C_4  and  C_5
REMARK    5  A    between atoms: C_5  and  N_6
REMARK    6  A    between atoms: N_6  and  C_7
REMARK    7  A    between atoms: C_9  and  C_10
REMARK                            x       y       z     vdW  Elec       q    Type
REMARK                         _______ _______ _______ _____ _____    ______ ____
ROOT
ATOM      1  C   UNL     1       5.164   5.035  19.286  0.00  0.00    +0.000 A 
ATOM      2  N   UNL     1       4.412   6.172  19.252  0.00  0.00    +0.000 NA
ATOM      3  C   UNL     1       3.043   6.143  19.317  0.00  0.00    +0.000 A 
ATOM      4  N   UNL     1       2.391   4.943  19.438  0.00  0.00    +0.000 NA
ATOM      5  C   UNL     1       3.138   3.810  19.429  0.00  0.00    +0.000 A 
ATOM      6  N   UNL     1       2.705   2.549  19.511  0.00  0.00    +0.000 N 
ATOM      7  C   UNL     1       3.841   1.808  19.474  0.00  0.00    +0.000 A 
ATOM      8  N   UNL     1       4.965   2.568  19.381  0.00  0.00    +0.000 NA
ATOM      9  C   UNL     1       4.488   3.824  19.343  0.00  0.00    +0.000 A 
ATOM     10  H   UNL     1       1.722   2.213  19.589  0.00  0.00    +0.000 HD
ENDROOT
BRANCH   3  11
ATOM     11  C   UNL     1       2.289   7.407  19.248  0.00  0.00    +0.000 A 
ATOM     12  C   UNL     1       2.218   8.124  18.038  0.00  0.00    +0.000 A 
ATOM     13  C   UNL     1       1.481   9.307  17.957  0.00  0.00    +0.000 A 
ATOM     14  C   UNL     1       0.838   9.816  19.093  0.00  0.00    +0.000 A 
ATOM     15  C   UNL     1       0.111  11.014  19.031  0.00  0.00    +0.000 A 
ATOM     16  C   UNL     1      -0.497  11.525  20.181  0.00  0.00    +0.000 A 
ATOM     17  C   UNL     1      -0.388  10.845  21.397  0.00  0.00    +0.000 A 
ATOM     18  C   UNL     1       0.318   9.641  21.468  0.00  0.00    +0.000 A 
ATOM     19  C   UNL     1       0.929   9.114  20.321  0.00  0.00    +0.000 A 
ATOM     20  C   UNL     1       1.634   7.904  20.382  0.00  0.00    +0.000 A 
ENDBRANCH   3  11
BRANCH   1  21
ATOM     21  N   UNL     1       6.581   5.111  19.312  0.00  0.00    +0.000 N 
ATOM     22  H   UNL     1       7.071   5.420  20.165  0.00  0.00    +0.000 HD
BRANCH  21  23
ATOM     23  C   UNL     1       7.335   4.962  18.085  0.00  0.00    +0.000 C 
BRANCH  23  24
ATOM     24  C   UNL     1       7.207   6.250  17.233  0.00  0.00    +0.000 C 
BRANCH  24  26
ATOM     25  C   UNL     1       6.875   4.572  15.477  0.00  0.00    +0.000 C 
ATOM     26  N   UNL     1       6.680   5.978  15.873  0.00  0.00    +0.000 NA
ATOM     27  C   UNL     1       5.246   6.310  15.808  0.00  0.00    +0.000 C 
ENDBRANCH  24  26
ENDBRANCH  23  24
ENDBRANCH  21  23
ENDBRANCH   1  21
TORSDOF 5
ENDMDL
MODEL 6
REMARK VINA RESULT:      -7.9      1.639      4.118
REMARK  Name = 
REMARK  7 active torsions:
REMARK  status: ('A' for Active; 'I' for Inactive)
REMARK    1  A    between atoms: C_1  and  N_2
REMARK    2  A    between atoms: N_2  and  C_3
REMARK    3  A    between atoms: N_2  and  C_4
REMARK    4  A    between atoms: C_4  and  C_5
REMARK    5  A    between atoms: C_5  and  N_6
REMARK    6  A    between atoms: N_6  and  C_7
REMARK    7  A    between atoms: C_9  and  C_10
REMARK                            x       y       z     vdW  Elec       q    Type
REMARK                         _______ _______ _______ _____ _____    ______ ____
ROOT
ATOM      1  C   UNL     1       3.737   5.346  18.006  0.00  0.00    +0.000 A 
ATOM      2  N   UNL     1       3.084   6.478  18.396  0.00  0.00    +0.000 NA
ATOM      3  C   UNL     1       2.409   6.556  19.586  0.00  0.00    +0.000 A 
ATOM      4  N   UNL     1       2.393   5.478  20.434  0.00  0.00    +0.000 NA
ATOM      5  C   UNL     1       3.007   4.339  20.025  0.00  0.00    +0.000 A 
ATOM      6  N   UNL     1       3.088   3.178  20.680  0.00  0.00    +0.000 N 
ATOM      7  C   UNL     1       3.812   2.383  19.853  0.00  0.00    +0.000 A 
ATOM      8  N   UNL     1       4.189   3.015  18.709  0.00  0.00    +0.000 NA
ATOM      9  C   UNL     1       3.658   4.242  18.843  0.00  0.00    +0.000 A 
ATOM     10  H   UNL     1       2.691   2.940  21.614  0.00  0.00    +0.000 HD
ENDROOT
BRANCH   3  11
ATOM     11  C   UNL     1       1.702   7.800  19.937  0.00  0.00    +0.000 A 
ATOM     12  C   UNL     1       1.628   8.858  19.010  0.00  0.00    +0.000 A 
ATOM     13  C   UNL     1       0.935  10.029  19.323  0.00  0.00    +0.000 A 
ATOM     14  C   UNL     1       0.340  10.179  20.582  0.00  0.00    +0.000 A 
ATOM     15  C   UNL     1      -0.342  11.359  20.918  0.00  0.00    +0.000 A 
ATOM     16  C   UNL     1      -0.902  11.506  22.190  0.00  0.00    +0.000 A 
ATOM     17  C   UNL     1      -0.788  10.481  23.133  0.00  0.00    +0.000 A 
ATOM     18  C   UNL     1      -0.126   9.294  22.805  0.00  0.00    +0.000 A 
ATOM     19  C   UNL     1       0.435   9.131  21.531  0.00  0.00    +0.000 A 
ATOM     20  C   UNL     1       1.094   7.941  21.192  0.00  0.00    +0.000 A 
ENDBRANCH   3  11
BRANCH   1  21
ATOM     21  N   UNL     1       4.503   5.334  16.811  0.00  0.00    +0.000 N 
ATOM     22  H   UNL     1       4.516   4.498  16.208  0.00  0.00    +0.000 HD
BRANCH  21  23
ATOM     23  C   UNL     1       5.437   6.408  16.539  0.00  0.00    +0.000 C 
BRANCH  23  24
ATOM     24  C   UNL     1       6.876   5.842  16.459  0.00  0.00    +0.000 C 
BRANCH  24  26
ATOM     25  C   UNL     1       7.648   7.887  17.569  0.00  0.00    +0.000 C 
ATOM     26  N   UNL     1       7.770   6.421  17.493  0.00  0.00    +0.000 NA
ATOM     27  C   UNL     1       7.468   5.835  18.811  0.00  0.00    +0.000 C 
ENDBRANCH  24  26
ENDBRANCH  23  24
ENDBRANCH  21  23
ENDBRANCH   1  21
TORSDOF 5
ENDMDL
MODEL 7
REMARK VINA RESULT:      -7.9      1.236      3.602
REMARK  Name = 
REMARK  7 active torsions:
REMARK  status: ('A' for Active; 'I' for Inactive)
REMARK    1  A    between atoms: C_1  and  N_2
REMARK    2  A    between atoms: N_2  and  C_3
REMARK    3  A    between atoms: N_2  and  C_4
REMARK    4  A    between atoms: C_4  and  C_5
REMARK    5  A    between atoms: C_5  and  N_6
REMARK    6  A    between atoms: N_6  and  C_7
REMARK    7  A    between atoms: C_9  and  C_10
REMARK                            x       y       z     vdW  Elec       q    Type
REMARK                         _______ _______ _______ _____ _____    ______ ____
ROOT
ATOM      1  C   UNL     1       4.599   4.695  19.219  0.00  0.00    +0.000 A 
ATOM      2  N   UNL     1       3.970   5.882  19.449  0.00  0.00    +0.000 NA
ATOM      3  C   UNL     1       2.604   5.987  19.491  0.00  0.00    +0.000 A 
ATOM      4  N   UNL     1       1.827   4.870  19.316  0.00  0.00    +0.000 NA
ATOM      5  C   UNL     1       2.454   3.698  19.045  0.00  0.00    +0.000 A 
ATOM      6  N   UNL     1       1.891   2.507  18.819  0.00  0.00    +0.000 N 
ATOM      7  C   UNL     1       2.945   1.677  18.619  0.00  0.00    +0.000 A 
ATOM      8  N   UNL     1       4.144   2.311  18.720  0.00  0.00    +0.000 NA
ATOM      9  C   UNL     1       3.801   3.585  18.978  0.00  0.00    +0.000 A 
ATOM     10  H   UNL     1       0.877   2.270  18.806  0.00  0.00    +0.000 HD
ENDROOT
BRANCH   3  11
ATOM     11  C   UNL     1       1.986   7.306  19.718  0.00  0.00    +0.000 A 
ATOM     12  C   UNL     1       1.999   8.278  18.700  0.00  0.00    +0.000 A 
ATOM     13  C   UNL     1       1.391   9.519  18.897  0.00  0.00    +0.000 A 
ATOM     14  C   UNL     1       0.797   9.825  20.128  0.00  0.00    +0.000 A 
ATOM     15  C   UNL     1       0.200  11.076  20.346  0.00  0.00    +0.000 A 
ATOM     16  C   UNL     1      -0.360  11.377  21.591  0.00  0.00    +0.000 A 
ATOM     17  C   UNL     1      -0.330  10.435  22.623  0.00  0.00    +0.000 A 
ATOM     18  C   UNL     1       0.245   9.180  22.412  0.00  0.00    +0.000 A 
ATOM     19  C   UNL     1       0.805   8.862  21.167  0.00  0.00    +0.000 A 
ATOM     20  C   UNL     1       1.379   7.602  20.945  0.00  0.00    +0.000 A 
ENDBRANCH   3  11
BRANCH   1  21
ATOM     21  N   UNL     1       6.015   4.608  19.276  0.00  0.00    +0.000 N 
ATOM     22  H   UNL     1       6.473   4.040  20.004  0.00  0.00    +0.000 HD
BRANCH  21  23
ATOM     23  C   UNL     1       6.826   5.481  18.452  0.00  0.00    +0.000 C 
BRANCH  23  24
ATOM     24  C   UNL     1       7.194   4.759  17.132  0.00  0.00    +0.000 C 
BRANCH  24  26
ATOM     25  C   UNL     1       5.473   6.039  15.943  0.00  0.00    +0.000 C 
ATOM     26  N   UNL     1       6.057   4.706  16.180  0.00  0.00    +0.000 NA
ATOM     27  C   UNL     1       6.495   4.129  14.897  0.00  0.00    +0.000 C 
ENDBRANCH  24  26
ENDBRANCH  23  24
ENDBRANCH  21  23
ENDBRANCH   1  21
TORSDOF 5
ENDMDL
MODEL 8
REMARK VINA RESULT:      -7.8      3.575      7.929
REMARK  Name = 
REMARK  7 active torsions:
REMARK  status: ('A' for Active; 'I' for Inactive)
REMARK    1  A    between atoms: C_1  and  N_2
REMARK    2  A    between atoms: N_2  and  C_3
REMARK    3  A    between atoms: N_2  and  C_4
REMARK    4  A    between atoms: C_4  and  C_5
REMARK    5  A    between atoms: C_5  and  N_6
REMARK    6  A    between atoms: N_6  and  C_7
REMARK    7  A    between atoms: C_9  and  C_10
REMARK                            x       y       z     vdW  Elec       q    Type
REMARK                         _______ _______ _______ _____ _____    ______ ____
ROOT
ATOM      1  C   UNL     1       0.735   9.837  18.858  0.00  0.00    +0.000 A 
ATOM      2  N   UNL     1       1.436   8.822  18.277  0.00  0.00    +0.000 NA
ATOM      3  C   UNL     1       1.986   7.804  19.012  0.00  0.00    +0.000 A 
ATOM      4  N   UNL     1       1.822   7.777  20.373  0.00  0.00    +0.000 NA
ATOM      5  C   UNL     1       1.160   8.810  20.953  0.00  0.00    +0.000 A 
ATOM      6  N   UNL     1       0.912   8.991  22.253  0.00  0.00    +0.000 N 
ATOM      7  C   UNL     1       0.215  10.154  22.297  0.00  0.00    +0.000 A 
ATOM      8  N   UNL     1       0.015  10.697  21.066  0.00  0.00    +0.000 NA
ATOM      9  C   UNL     1       0.632   9.833  20.242  0.00  0.00    +0.000 A 
ATOM     10  H   UNL     1       1.187   8.377  23.049  0.00  0.00    +0.000 HD
ENDROOT
BRANCH   3  11
ATOM     11  C   UNL     1       2.756   6.751  18.326  0.00  0.00    +0.000 A 
ATOM     12  C   UNL     1       2.317   5.413  18.365  0.00  0.00    +0.000 A 
ATOM     13  C   UNL     1       3.024   4.414  17.694  0.00  0.00    +0.000 A 
ATOM     14  C   UNL     1       4.204   4.727  17.008  0.00  0.00    +0.000 A 
ATOM     15  C   UNL     1       4.937   3.730  16.345  0.00  0.00    +0.000 A 
ATOM     16  C   UNL     1       6.129   4.053  15.693  0.00  0.00    +0.000 A 
ATOM     17  C   UNL     1       6.598   5.370  15.694  0.00  0.00    +0.000 A 
ATOM     18  C   UNL     1       5.870   6.375  16.335  0.00  0.00    +0.000 A 
ATOM     19  C   UNL     1       4.668   6.066  16.988  0.00  0.00    +0.000 A 
ATOM     20  C   UNL     1       3.928   7.070  17.628  0.00  0.00    +0.000 A 
ENDBRANCH   3  11
BRANCH   1  21
ATOM     21  N   UNL     1       0.101  10.823  18.056  0.00  0.00    +0.000 N 
ATOM     22  H   UNL     1       0.659  11.553  17.590  0.00  0.00    +0.000 HD
BRANCH  21  23
ATOM     23  C   UNL     1      -1.343  10.939  18.061  0.00  0.00    +0.000 C 
BRANCH  23  24
ATOM     24  C   UNL     1      -1.940  10.075  16.923  0.00  0.00    +0.000 C 
BRANCH  24  26
ATOM     25  C   UNL     1      -3.023  10.139  14.724  0.00  0.00    +0.000 C 
ATOM     26  N   UNL     1      -2.752  10.875  15.971  0.00  0.00    +0.000 NA
ATOM     27  C   UNL     1      -4.028  11.266  16.596  0.00  0.00    +0.000 C 
ENDBRANCH  24  26
ENDBRANCH  23  24
ENDBRANCH  21  23
ENDBRANCH   1  21
TORSDOF 5
ENDMDL
MODEL 9
REMARK VINA RESULT:      -7.7      1.419      3.860
REMARK  Name = 
REMARK  7 active torsions:
REMARK  status: ('A' for Active; 'I' for Inactive)
REMARK    1  A    between atoms: C_1  and  N_2
REMARK    2  A    between atoms: N_2  and  C_3
REMARK    3  A    between atoms: N_2  and  C_4
REMARK    4  A    between atoms: C_4  and  C_5
REMARK    5  A    between atoms: C_5  and  N_6
REMARK    6  A    between atoms: N_6  and  C_7
REMARK    7  A    between atoms: C_9  and  C_10
REMARK                            x       y       z     vdW  Elec       q    Type
REMARK                         _______ _______ _______ _____ _____    ______ ____
ROOT
ATOM      1  C   UNL     1       3.936   4.659  17.554  0.00  0.00    +0.000 A 
ATOM      2  N   UNL     1       3.384   5.894  17.725  0.00  0.00    +0.000 NA
ATOM      3  C   UNL     1       2.783   6.268  18.899  0.00  0.00    +0.000 A 
ATOM      4  N   UNL     1       2.740   5.392  19.953  0.00  0.00    +0.000 NA
ATOM      5  C   UNL     1       3.251   4.149  19.767  0.00  0.00    +0.000 A 
ATOM      6  N   UNL     1       3.289   3.144  20.647  0.00  0.00    +0.000 N 
ATOM      7  C   UNL     1       3.910   2.142  19.976  0.00  0.00    +0.000 A 
ATOM      8  N   UNL     1       4.266   2.493  18.711  0.00  0.00    +0.000 NA
ATOM      9  C   UNL     1       3.828   3.760  18.607  0.00  0.00    +0.000 A 
ATOM     10  H   UNL     1       2.929   3.135  21.625  0.00  0.00    +0.000 HD
ENDROOT
BRANCH   3  11
ATOM     11  C   UNL     1       2.182   7.609  19.009  0.00  0.00    +0.000 A 
ATOM     12  C   UNL     1       2.185   8.479  17.902  0.00  0.00    +0.000 A 
ATOM     13  C   UNL     1       1.592   9.740  17.989  0.00  0.00    +0.000 A 
ATOM     14  C   UNL     1       1.025  10.169  19.196  0.00  0.00    +0.000 A 
ATOM     15  C   UNL     1       0.444  11.442  19.304  0.00  0.00    +0.000 A 
ATOM     16  C   UNL     1      -0.088  11.868  20.524  0.00  0.00    +0.000 A 
ATOM     17  C   UNL     1      -0.047  11.030  21.641  0.00  0.00    +0.000 A 
ATOM     18  C   UNL     1       0.513   9.753  21.542  0.00  0.00    +0.000 A 
ATOM     19  C   UNL     1       1.045   9.310  20.323  0.00  0.00    +0.000 A 
ATOM     20  C   UNL     1       1.602   8.029  20.213  0.00  0.00    +0.000 A 
ENDBRANCH   3  11
BRANCH   1  21
ATOM     21  N   UNL     1       4.632   4.341  16.359  0.00  0.00    +0.000 N 
ATOM     22  H   UNL     1       4.690   3.365  16.033  0.00  0.00    +0.000 HD
BRANCH  21  23
ATOM     23  C   UNL     1       5.443   5.348  15.705  0.00  0.00    +0.000 C 
BRANCH  23  24
ATOM     24  C   UNL     1       6.941   4.975  15.833  0.00  0.00    +0.000 C 
BRANCH  24  26
ATOM     25  C   UNL     1       6.892   6.902  17.349  0.00  0.00    +0.000 C 
ATOM     26  N   UNL     1       7.601   5.668  16.968  0.00  0.00    +0.000 NA
ATOM     27  C   UNL     1       7.681   4.770  18.134  0.00  0.00    +0.000 C 
ENDBRANCH  24  26
ENDBRANCH  23  24
ENDBRANCH  21  23
ENDBRANCH   1  21
TORSDOF 5
ENDMDL
