MODEL 1
REMARK VINA RESULT:      -7.5      0.000      0.000
REMARK  Name = 
REMARK  6 active torsions:
REMARK  status: ('A' for Active; 'I' for Inactive)
REMARK    1  A    between atoms: C_1  and  O_2
REMARK    2  A    between atoms: O_2  and  C_3
REMARK    3  A    between atoms: C_6  and  C_7
REMARK    4  A    between atoms: C_7  and  N_8
REMARK    5  A    between atoms: N_8  and  C_9
REMARK    6  A    between atoms: C_9  and  C_10
REMARK                            x       y       z     vdW  Elec       q    Type
REMARK                         _______ _______ _______ _____ _____    ______ ____
ROOT
ATOM      1  N   UNL     1       2.303   1.569  18.535  0.00  0.00    +0.000 NA
ATOM      2  H   UNL     1       2.268   2.001  17.611  0.00  0.00    +0.000 HD
ENDROOT
BRANCH   1   3
ATOM      3  C   UNL     1       1.293   2.242  19.373  0.00  0.00    +0.000 C 
BRANCH   3   7
ATOM      4  C   UNL     1       2.141   6.487  19.458  0.00  0.00    +0.000 A 
ATOM      5  C   UNL     1       1.952   5.829  18.239  0.00  0.00    +0.000 A 
ATOM      6  C   UNL     1       1.561   4.483  18.212  0.00  0.00    +0.000 A 
ATOM      7  C   UNL     1       1.496   3.745  19.401  0.00  0.00    +0.000 A 
ATOM      8  C   UNL     1       1.672   4.427  20.609  0.00  0.00    +0.000 A 
ATOM      9  C   UNL     1       1.982   5.780  20.641  0.00  0.00    +0.000 A 
BRANCH   4  11
ATOM     10  C   UNL     1       2.483   8.388  18.114  0.00  0.00    +0.000 C 
ATOM     11  O   UNL     1       2.356   7.837  19.425  0.00  0.00    +0.000 OA
ENDBRANCH   4  11
ENDBRANCH   3   7
ENDBRANCH   1   3
BRANCH   1  12
ATOM     12  C   UNL     1       3.656   1.713  19.069  0.00  0.00    +0.000 C 
BRANCH  12  13
ATOM     13  C   UNL     1       4.380   2.938  18.499  0.00  0.00    +0.000 A 
ATOM     14  C   UNL     1       4.254   3.138  17.138  0.00  0.00    +0.000 A 
ATOM     15  C   UNL     1       5.000   4.145  16.552  0.00  0.00    +0.000 A 
ATOM     16  C   UNL     1       5.829   5.066  17.255  0.00  0.00    +0.000 A 
ATOM     17  C   UNL     1       6.311   6.230  16.646  0.00  0.00    +0.000 A 
ATOM     18  C   UNL     1       6.977   7.216  17.391  0.00  0.00    +0.000 A 
ATOM     19  C   UNL     1       7.909   6.858  18.353  0.00  0.00    +0.000 A 
ATOM     20  C   UNL     1       7.239   5.803  19.026  0.00  0.00    +0.000 A 
ATOM     21  C   UNL     1       6.141   4.869  18.573  0.00  0.00    +0.000 A 
ATOM     22  C   UNL     1       5.322   3.783  19.203  0.00  0.00    +0.000 A 
ENDBRANCH  12  13
ENDBRANCH   1  12
TORSDOF 5
ENDMDL
MODEL 2
REMARK VINA RESULT:      -7.4      0.795      1.601
REMARK  Name = 
REMARK  6 active torsions:
REMARK  status: ('A' for Active; 'I' for Inactive)
REMARK    1  A    between atoms: C_1  and  O_2
REMARK    2  A    between atoms: O_2  and  C_3
REMARK    3  A    between atoms: C_6  and  C_7
REMARK    4  A    between atoms: C_7  and  N_8
REMARK    5  A    between atoms: N_8  and  C_9
REMARK    6  A    between atoms: C_9  and  C_10
REMARK                            x       y       z     vdW  Elec       q    Type
REMARK                         _______ _______ _______ _____ _____    ______ ____
ROOT
ATOM      1  N   UNL     1       2.075   1.551  18.842  0.00  0.00    +0.000 NA
ATOM      2  H   UNL     1       1.703   0.602  18.877  0.00  0.00    +0.000 HD
ENDROOT
BRANCH   1   3
ATOM      3  C   UNL     1       0.946   2.456  18.555  0.00  0.00    +0.000 C 
BRANCH   3   7
ATOM      4  C   UNL     1       2.075   6.455  19.771  0.00  0.00    +0.000 A 
ATOM      5  C   UNL     1       2.041   6.113  18.416  0.00  0.00    +0.000 A 
ATOM      6  C   UNL     1       1.563   4.858  18.013  0.00  0.00    +0.000 A 
ATOM      7  C   UNL     1       1.251   3.883  18.970  0.00  0.00    +0.000 A 
ATOM      8  C   UNL     1       1.276   4.253  20.318  0.00  0.00    +0.000 A 
ATOM      9  C   UNL     1       1.673   5.522  20.717  0.00  0.00    +0.000 A 
BRANCH   4  11
ATOM     10  C   UNL     1       1.283   8.539  20.524  0.00  0.00    +0.000 C 
ATOM     11  O   UNL     1       2.390   7.747  20.093  0.00  0.00    +0.000 OA
ENDBRANCH   4  11
ENDBRANCH   3   7
ENDBRANCH   1   3
BRANCH   1  12
ATOM     12  C   UNL     1       3.112   1.611  17.813  0.00  0.00    +0.000 C 
BRANCH  12  13
ATOM     13  C   UNL     1       4.136   2.719  18.082  0.00  0.00    +0.000 A 
ATOM     14  C   UNL     1       4.484   2.917  19.404  0.00  0.00    +0.000 A 
ATOM     15  C   UNL     1       5.295   3.994  19.714  0.00  0.00    +0.000 A 
ATOM     16  C   UNL     1       5.887   4.875  18.764  0.00  0.00    +0.000 A 
ATOM     17  C   UNL     1       6.923   5.746  19.118  0.00  0.00    +0.000 A 
ATOM     18  C   UNL     1       7.618   6.481  18.146  0.00  0.00    +0.000 A 
ATOM     19  C   UNL     1       6.933   7.085  17.101  0.00  0.00    +0.000 A 
ATOM     20  C   UNL     1       6.048   6.051  16.700  0.00  0.00    +0.000 A 
ATOM     21  C   UNL     1       5.495   4.863  17.453  0.00  0.00    +0.000 A 
ATOM     22  C   UNL     1       4.625   3.688  17.122  0.00  0.00    +0.000 A 
ENDBRANCH  12  13
ENDBRANCH   1  12
TORSDOF 5
ENDMDL
MODEL 3
REMARK VINA RESULT:      -7.2      0.375      1.113
REMARK  Name = 
REMARK  6 active torsions:
REMARK  status: ('A' for Active; 'I' for Inactive)
REMARK    1  A    between atoms: C_1  and  O_2
REMARK    2  A    between atoms: O_2  and  C_3
REMARK    3  A    between atoms: C_6  and  C_7
REMARK    4  A    between atoms: C_7  and  N_8
REMARK    5  A    between atoms: N_8  and  C_9
REMARK    6  A    between atoms: C_9  and  C_10
REMARK                            x       y       z     vdW  Elec       q    Type
REMARK                         _______ _______ _______ _____ _____    ______ ____
ROOT
ATOM      1  N   UNL     1       2.062   1.867  18.347  0.00  0.00    +0.000 NA
ATOM      2  H   UNL     1       2.046   2.347  17.447  0.00  0.00    +0.000 HD
ENDROOT
BRANCH   1   3
ATOM      3  C   UNL     1       1.222   2.646  19.277  0.00  0.00    +0.000 C 
BRANCH   3   7
ATOM      4  C   UNL     1       1.971   6.910  19.199  0.00  0.00    +0.000 A 
ATOM      5  C   UNL     1       1.893   6.230  20.417  0.00  0.00    +0.000 A 
ATOM      6  C   UNL     1       1.770   4.833  20.444  0.00  0.00    +0.000 A 
ATOM      7  C   UNL     1       1.578   4.121  19.252  0.00  0.00    +0.000 A 
ATOM      8  C   UNL     1       1.676   4.820  18.045  0.00  0.00    +0.000 A 
ATOM      9  C   UNL     1       1.878   6.193  18.015  0.00  0.00    +0.000 A 
BRANCH   4  11
ATOM     10  C   UNL     1       2.283   8.885  17.957  0.00  0.00    +0.000 C 
ATOM     11  O   UNL     1       2.259   8.247  19.234  0.00  0.00    +0.000 OA
ENDBRANCH   4  11
ENDBRANCH   3   7
ENDBRANCH   1   3
BRANCH   1  12
ATOM     12  C   UNL     1       3.448   1.765  18.801  0.00  0.00    +0.000 C 
BRANCH  12  13
ATOM     13  C   UNL     1       4.310   2.933  18.308  0.00  0.00    +0.000 A 
ATOM     14  C   UNL     1       4.412   3.076  16.938  0.00  0.00    +0.000 A 
ATOM     15  C   UNL     1       5.287   4.025  16.442  0.00  0.00    +0.000 A 
ATOM     16  C   UNL     1       6.034   4.944  17.233  0.00  0.00    +0.000 A 
ATOM     17  C   UNL     1       6.660   6.059  16.666  0.00  0.00    +0.000 A 
ATOM     18  C   UNL     1       7.243   7.051  17.469  0.00  0.00    +0.000 A 
ATOM     19  C   UNL     1       7.992   6.701  18.583  0.00  0.00    +0.000 A 
ATOM     20  C   UNL     1       7.176   5.706  19.179  0.00  0.00    +0.000 A 
ATOM     21  C   UNL     1       6.123   4.795  18.591  0.00  0.00    +0.000 A 
ATOM     22  C   UNL     1       5.165   3.772  19.122  0.00  0.00    +0.000 A 
ENDBRANCH  12  13
ENDBRANCH   1  12
TORSDOF 5
ENDMDL
MODEL 4
REMARK VINA RESULT:      -7.2      1.078      2.037
REMARK  Name = 
REMARK  6 active torsions:
REMARK  status: ('A' for Active; 'I' for Inactive)
REMARK    1  A    between atoms: C_1  and  O_2
REMARK    2  A    between atoms: O_2  and  C_3
REMARK    3  A    between atoms: C_6  and  C_7
REMARK    4  A    between atoms: C_7  and  N_8
REMARK    5  A    between atoms: N_8  and  C_9
REMARK    6  A    between atoms: C_9  and  C_10
REMARK                            x       y       z     vdW  Elec       q    Type
REMARK                         _______ _______ _______ _____ _____    ______ ____
ROOT
ATOM      1  N   UNL     1       2.118   1.485  18.649  0.00  0.00    +0.000 NA
ATOM      2  H   UNL     1       2.376   1.565  17.665  0.00  0.00    +0.000 HD
ENDROOT
BRANCH   1   3
ATOM      3  C   UNL     1       0.889   2.276  18.848  0.00  0.00    +0.000 C 
BRANCH   3   7
ATOM      4  C   UNL     1       2.029   6.390  19.576  0.00  0.00    +0.000 A 
ATOM      5  C   UNL     1       2.019   5.880  18.274  0.00  0.00    +0.000 A 
ATOM      6  C   UNL     1       1.538   4.588  18.021  0.00  0.00    +0.000 A 
ATOM      7  C   UNL     1       1.198   3.742  19.086  0.00  0.00    +0.000 A 
ATOM      8  C   UNL     1       1.199   4.279  20.378  0.00  0.00    +0.000 A 
ATOM      9  C   UNL     1       1.600   5.586  20.622  0.00  0.00    +0.000 A 
BRANCH   4  11
ATOM     10  C   UNL     1       1.499   8.421  20.639  0.00  0.00    +0.000 C 
ATOM     11  O   UNL     1       2.349   7.710  19.739  0.00  0.00    +0.000 OA
ENDBRANCH   4  11
ENDBRANCH   3   7
ENDBRANCH   1   3
BRANCH   1  12
ATOM     12  C   UNL     1       3.229   1.967  19.466  0.00  0.00    +0.000 C 
BRANCH  12  13
ATOM     13  C   UNL     1       4.224   2.810  18.659  0.00  0.00    +0.000 A 
ATOM     14  C   UNL     1       4.926   3.764  19.369  0.00  0.00    +0.000 A 
ATOM     15  C   UNL     1       5.731   4.643  18.665  0.00  0.00    +0.000 A 
ATOM     16  C   UNL     1       5.973   4.589  17.263  0.00  0.00    +0.000 A 
ATOM     17  C   UNL     1       7.017   5.309  16.671  0.00  0.00    +0.000 A 
ATOM     18  C   UNL     1       7.359   5.116  15.324  0.00  0.00    +0.000 A 
ATOM     19  C   UNL     1       6.370   4.989  14.360  0.00  0.00    +0.000 A 
ATOM     20  C   UNL     1       5.466   4.095  14.989  0.00  0.00    +0.000 A 
ATOM     21  C   UNL     1       5.221   3.786  16.448  0.00  0.00    +0.000 A 
ATOM     22  C   UNL     1       4.359   2.830  17.217  0.00  0.00    +0.000 A 
ENDBRANCH  12  13
ENDBRANCH   1  12
TORSDOF 5
ENDMDL
MODEL 5
REMARK VINA RESULT:      -7.1      4.357      6.914
REMARK  Name = 
REMARK  6 active torsions:
REMARK  status: ('A' for Active; 'I' for Inactive)
REMARK    1  A    between atoms: C_1  and  O_2
REMARK    2  A    between atoms: O_2  and  C_3
REMARK    3  A    between atoms: C_6  and  C_7
REMARK    4  A    between atoms: C_7  and  N_8
REMARK    5  A    between atoms: N_8  and  C_9
REMARK    6  A    between atoms: C_9  and  C_10
REMARK                            x       y       z     vdW  Elec       q    Type
REMARK                         _______ _______ _______ _____ _____    ______ ____
ROOT
ATOM      1  N   UNL     1       1.374   9.660  17.526  0.00  0.00    +0.000 NA
ATOM      2  H   UNL     1       1.691  10.335  16.830  0.00  0.00    +0.000 HD
ENDROOT
BRANCH   1   3
ATOM      3  C   UNL     1       0.653  10.410  18.572  0.00  0.00    +0.000 C 
BRANCH   3   7
ATOM      4  C   UNL     1      -3.600  10.684  17.807  0.00  0.00    +0.000 A 
ATOM      5  C   UNL     1      -2.983  11.576  18.689  0.00  0.00    +0.000 A 
ATOM      6  C   UNL     1      -1.589  11.567  18.849  0.00  0.00    +0.000 A 
ATOM      7  C   UNL     1      -0.817  10.570  18.236  0.00  0.00    +0.000 A 
ATOM      8  C   UNL     1      -1.453   9.700  17.345  0.00  0.00    +0.000 A 
ATOM      9  C   UNL     1      -2.823   9.759  17.125  0.00  0.00    +0.000 A 
BRANCH   4  11
ATOM     10  C   UNL     1      -5.302  12.158  17.123  0.00  0.00    +0.000 C 
ATOM     11  O   UNL     1      -4.936  10.851  17.566  0.00  0.00    +0.000 OA
ENDBRANCH   4  11
ENDBRANCH   3   7
ENDBRANCH   1   3
BRANCH   1  12
ATOM     12  C   UNL     1       2.536   8.947  18.052  0.00  0.00    +0.000 C 
BRANCH  12  13
ATOM     13  C   UNL     1       2.173   7.559  18.592  0.00  0.00    +0.000 A 
ATOM     14  C   UNL     1       2.037   7.458  19.963  0.00  0.00    +0.000 A 
ATOM     15  C   UNL     1       1.848   6.202  20.512  0.00  0.00    +0.000 A 
ATOM     16  C   UNL     1       1.688   4.998  19.769  0.00  0.00    +0.000 A 
ATOM     17  C   UNL     1       1.207   3.827  20.364  0.00  0.00    +0.000 A 
ATOM     18  C   UNL     1       0.885   2.700  19.593  0.00  0.00    +0.000 A 
ATOM     19  C   UNL     1       1.712   2.303  18.552  0.00  0.00    +0.000 A 
ATOM     20  C   UNL     1       1.981   3.539  17.909  0.00  0.00    +0.000 A 
ATOM     21  C   UNL     1       1.951   4.959  18.426  0.00  0.00    +0.000 A 
ATOM     22  C   UNL     1       2.144   6.324  17.836  0.00  0.00    +0.000 A 
ENDBRANCH  12  13
ENDBRANCH   1  12
TORSDOF 5
ENDMDL
MODEL 6
REMARK VINA RESULT:      -7.1      2.169      5.385
REMARK  Name = 
REMARK  6 active torsions:
REMARK  status: ('A' for Active; 'I' for Inactive)
REMARK    1  A    between atoms: C_1  and  O_2
REMARK    2  A    between atoms: O_2  and  C_3
REMARK    3  A    between atoms: C_6  and  C_7
REMARK    4  A    between atoms: C_7  and  N_8
REMARK    5  A    between atoms: N_8  and  C_9
REMARK    6  A    between atoms: C_9  and  C_10
REMARK                            x       y       z     vdW  Elec       q    Type
REMARK                         _______ _______ _______ _____ _____    ______ ____
ROOT
ATOM      1  N   UNL     1       3.024   3.513  18.430  0.00  0.00    +0.000 NA
ATOM      2  H   UNL     1       2.450   2.692  18.235  0.00  0.00    +0.000 HD
ENDROOT
BRANCH   1   3
ATOM      3  C   UNL     1       4.431   3.070  18.456  0.00  0.00    +0.000 C 
BRANCH   3   7
ATOM      4  C   UNL     1       6.907   6.346  17.084  0.00  0.00    +0.000 A 
ATOM      5  C   UNL     1       6.891   5.993  18.436  0.00  0.00    +0.000 A 
ATOM      6  C   UNL     1       6.183   4.860  18.866  0.00  0.00    +0.000 A 
ATOM      7  C   UNL     1       5.370   4.156  17.967  0.00  0.00    +0.000 A 
ATOM      8  C   UNL     1       5.416   4.516  16.617  0.00  0.00    +0.000 A 
ATOM      9  C   UNL     1       6.179   5.590  16.176  0.00  0.00    +0.000 A 
BRANCH   4  11
ATOM     10  C   UNL     1       7.952   8.365  17.689  0.00  0.00    +0.000 C 
ATOM     11  O   UNL     1       7.747   7.356  16.701  0.00  0.00    +0.000 OA
ENDBRANCH   4  11
ENDBRANCH   3   7
ENDBRANCH   1   3
BRANCH   1  12
ATOM     12  C   UNL     1       2.598   4.090  19.704  0.00  0.00    +0.000 C 
BRANCH  12  13
ATOM     13  C   UNL     1       2.211   5.568  19.573  0.00  0.00    +0.000 A 
ATOM     14  C   UNL     1       2.531   6.175  18.375  0.00  0.00    +0.000 A 
ATOM     15  C   UNL     1       2.331   7.539  18.257  0.00  0.00    +0.000 A 
ATOM     16  C   UNL     1       1.729   8.367  19.247  0.00  0.00    +0.000 A 
ATOM     17  C   UNL     1       1.289   9.662  18.951  0.00  0.00    +0.000 A 
ATOM     18  C   UNL     1       0.541  10.404  19.877  0.00  0.00    +0.000 A 
ATOM     19  C   UNL     1       0.889  10.403  21.220  0.00  0.00    +0.000 A 
ATOM     20  C   UNL     1       1.128   9.024  21.456  0.00  0.00    +0.000 A 
ATOM     21  C   UNL     1       1.513   7.904  20.517  0.00  0.00    +0.000 A 
ATOM     22  C   UNL     1       1.722   6.425  20.634  0.00  0.00    +0.000 A 
ENDBRANCH  12  13
ENDBRANCH   1  12
TORSDOF 5
ENDMDL
MODEL 7
REMARK VINA RESULT:      -7.0      2.294      5.221
REMARK  Name = 
REMARK  6 active torsions:
REMARK  status: ('A' for Active; 'I' for Inactive)
REMARK    1  A    between atoms: C_1  and  O_2
REMARK    2  A    between atoms: O_2  and  C_3
REMARK    3  A    between atoms: C_6  and  C_7
REMARK    4  A    between atoms: C_7  and  N_8
REMARK    5  A    between atoms: N_8  and  C_9
REMARK    6  A    between atoms: C_9  and  C_10
REMARK                            x       y       z     vdW  Elec       q    Type
REMARK                         _______ _______ _______ _____ _____    ______ ____
ROOT
ATOM      1  N   UNL     1       4.711   5.191  16.108  0.00  0.00    +0.000 NA
ATOM      2  H   UNL     1       3.707   5.353  16.035  0.00  0.00    +0.000 HD
ENDROOT
BRANCH   1   3
ATOM      3  C   UNL     1       4.905   3.766  16.435  0.00  0.00    +0.000 C 
BRANCH   3   7
ATOM      4  C   UNL     1       2.070   2.642  19.509  0.00  0.00    +0.000 A 
ATOM      5  C   UNL     1       1.621   3.157  18.289  0.00  0.00    +0.000 A 
ATOM      6  C   UNL     1       2.527   3.411  17.249  0.00  0.00    +0.000 A 
ATOM      7  C   UNL     1       3.905   3.287  17.470  0.00  0.00    +0.000 A 
ATOM      8  C   UNL     1       4.330   2.754  18.692  0.00  0.00    +0.000 A 
ATOM      9  C   UNL     1       3.428   2.427  19.695  0.00  0.00    +0.000 A 
BRANCH   4  11
ATOM     10  C   UNL     1       1.370   2.709  21.754  0.00  0.00    +0.000 C 
ATOM     11  O   UNL     1       1.127   2.257  20.422  0.00  0.00    +0.000 OA
ENDBRANCH   4  11
ENDBRANCH   3   7
ENDBRANCH   1   3
BRANCH   1  12
ATOM     12  C   UNL     1       5.257   6.078  17.134  0.00  0.00    +0.000 C 
BRANCH  12  13
ATOM     13  C   UNL     1       4.158   6.787  17.935  0.00  0.00    +0.000 A 
ATOM     14  C   UNL     1       3.781   6.180  19.117  0.00  0.00    +0.000 A 
ATOM     15  C   UNL     1       2.701   6.701  19.806  0.00  0.00    +0.000 A 
ATOM     16  C   UNL     1       1.991   7.881  19.444  0.00  0.00    +0.000 A 
ATOM     17  C   UNL     1       1.115   8.512  20.335  0.00  0.00    +0.000 A 
ATOM     18  C   UNL     1       0.556   9.765  20.039  0.00  0.00    +0.000 A 
ATOM     19  C   UNL     1       0.088  10.040  18.762  0.00  0.00    +0.000 A 
ATOM     20  C   UNL     1       1.136   9.531  17.954  0.00  0.00    +0.000 A 
ATOM     21  C   UNL     1       2.181   8.472  18.224  0.00  0.00    +0.000 A 
ATOM     22  C   UNL     1       3.359   7.909  17.488  0.00  0.00    +0.000 A 
ENDBRANCH  12  13
ENDBRANCH   1  12
TORSDOF 5
ENDMDL
MODEL 8
REMARK VINA RESULT:      -7.0      3.606      6.557
REMARK  Name = 
REMARK  6 active torsions:
REMARK  status: ('A' for Active; 'I' for Inactive)
REMARK    1  A    between atoms: C_1  and  O_2
REMARK    2  A    between atoms: O_2  and  C_3
REMARK    3  A    between atoms: C_6  and  C_7
REMARK    4  A    between atoms: C_7  and  N_8
REMARK    5  A    between atoms: N_8  and  C_9
REMARK    6  A    between atoms: C_9  and  C_10
REMARK                            x       y       z     vdW  Elec       q    Type
REMARK                         _______ _______ _______ _____ _____    ______ ____
ROOT
ATOM      1  N   UNL     1       7.543   4.755  16.821  0.00  0.00    +0.000 NA
ATOM      2  H   UNL     1       8.535   4.610  17.007  0.00  0.00    +0.000 HD
ENDROOT
BRANCH   1   3
ATOM      3  C   UNL     1       7.439   5.535  15.573  0.00  0.00    +0.000 C 
BRANCH   3   7
ATOM      4  C   UNL     1       5.526   3.442  12.301  0.00  0.00    +0.000 A 
ATOM      5  C   UNL     1       6.784   4.026  12.125  0.00  0.00    +0.000 A 
ATOM      6  C   UNL     1       7.458   4.601  13.213  0.00  0.00    +0.000 A 
ATOM      7  C   UNL     1       6.816   4.724  14.453  0.00  0.00    +0.000 A 
ATOM      8  C   UNL     1       5.566   4.118  14.610  0.00  0.00    +0.000 A 
ATOM      9  C   UNL     1       4.931   3.478  13.553  0.00  0.00    +0.000 A 
BRANCH   4  11
ATOM     10  C   UNL     1       3.691   3.181  10.852  0.00  0.00    +0.000 C 
ATOM     11  O   UNL     1       4.994   2.751  11.247  0.00  0.00    +0.000 OA
ENDBRANCH   4  11
ENDBRANCH   3   7
ENDBRANCH   1   3
BRANCH   1  12
ATOM     12  C   UNL     1       6.947   5.447  17.962  0.00  0.00    +0.000 C 
BRANCH  12  13
ATOM     13  C   UNL     1       5.497   5.016  18.213  0.00  0.00    +0.000 A 
ATOM     14  C   UNL     1       4.521   5.802  17.633  0.00  0.00    +0.000 A 
ATOM     15  C   UNL     1       3.198   5.539  17.942  0.00  0.00    +0.000 A 
ATOM     16  C   UNL     1       2.745   4.455  18.746  0.00  0.00    +0.000 A 
ATOM     17  C   UNL     1       1.398   4.075  18.773  0.00  0.00    +0.000 A 
ATOM     18  C   UNL     1       0.988   2.902  19.425  0.00  0.00    +0.000 A 
ATOM     19  C   UNL     1       1.517   2.567  20.663  0.00  0.00    +0.000 A 
ATOM     20  C   UNL     1       2.901   2.809  20.461  0.00  0.00    +0.000 A 
ATOM     21  C   UNL     1       3.624   3.710  19.486  0.00  0.00    +0.000 A 
ATOM     22  C   UNL     1       5.054   3.993  19.138  0.00  0.00    +0.000 A 
ENDBRANCH  12  13
ENDBRANCH   1  12
TORSDOF 5
ENDMDL
MODEL 9
REMARK VINA RESULT:      -7.0      4.092      6.478
REMARK  Name = 
REMARK  6 active torsions:
REMARK  status: ('A' for Active; 'I' for Inactive)
REMARK    1  A    between atoms: C_1  and  O_2
REMARK    2  A    between atoms: O_2  and  C_3
REMARK    3  A    between atoms: C_6  and  C_7
REMARK    4  A    between atoms: C_7  and  N_8
REMARK    5  A    between atoms: N_8  and  C_9
REMARK    6  A    between atoms: C_9  and  C_10
REMARK                            x       y       z     vdW  Elec       q    Type
REMARK                         _______ _______ _______ _____ _____    ______ ____
ROOT
ATOM      1  N   UNL     1       0.243   8.977  21.016  0.00  0.00    +0.000 NA
ATOM      2  H   UNL     1      -0.273   8.386  20.364  0.00  0.00    +0.000 HD
ENDROOT
BRANCH   1   3
ATOM      3  C   UNL     1       0.291  10.333  20.437  0.00  0.00    +0.000 C 
BRANCH   3   7
ATOM      4  C   UNL     1      -2.615  11.093  17.319  0.00  0.00    +0.000 A 
ATOM      5  C   UNL     1      -1.672  10.071  17.171  0.00  0.00    +0.000 A 
ATOM      6  C   UNL     1      -0.808   9.745  18.226  0.00  0.00    +0.000 A 
ATOM      7  C   UNL     1      -0.782  10.533  19.384  0.00  0.00    +0.000 A 
ATOM      8  C   UNL     1      -1.744  11.539  19.517  0.00  0.00    +0.000 A 
ATOM      9  C   UNL     1      -2.655  11.812  18.504  0.00  0.00    +0.000 A 
BRANCH   4  11
ATOM     10  C   UNL     1      -3.208  10.608  15.094  0.00  0.00    +0.000 C 
ATOM     11  O   UNL     1      -3.539  11.254  16.323  0.00  0.00    +0.000 OA
ENDBRANCH   4  11
ENDBRANCH   3   7
ENDBRANCH   1   3
BRANCH   1  12
ATOM     12  C   UNL     1       1.576   8.408  21.212  0.00  0.00    +0.000 C 
BRANCH  12  13
ATOM     13  C   UNL     1       1.817   7.174  20.335  0.00  0.00    +0.000 A 
ATOM     14  C   UNL     1       2.295   7.417  19.063  0.00  0.00    +0.000 A 
ATOM     15  C   UNL     1       2.397   6.352  18.186  0.00  0.00    +0.000 A 
ATOM     16  C   UNL     1       2.134   4.992  18.515  0.00  0.00    +0.000 A 
ATOM     17  C   UNL     1       2.540   3.944  17.681  0.00  0.00    +0.000 A 
ATOM     18  C   UNL     1       2.436   2.606  18.093  0.00  0.00    +0.000 A 
ATOM     19  C   UNL     1       1.303   2.164  18.760  0.00  0.00    +0.000 A 
ATOM     20  C   UNL     1       1.097   3.206  19.701  0.00  0.00    +0.000 A 
ATOM     21  C   UNL     1       1.517   4.658  19.691  0.00  0.00    +0.000 A 
ATOM     22  C   UNL     1       1.420   5.814  20.639  0.00  0.00    +0.000 A 
ENDBRANCH  12  13
ENDBRANCH   1  12
TORSDOF 5
ENDMDL
