MODEL 1
REMARK VINA RESULT:      -7.6      0.000      0.000
REMARK  Name = 
REMARK  7 active torsions:
REMARK  status: ('A' for Active; 'I' for Inactive)
REMARK    1  A    between atoms: C_1  and  O_2
REMARK    2  A    between atoms: O_2  and  C_3
REMARK    3  A    between atoms: C_7  and  N_8
REMARK    4  A    between atoms: N_11  and  S_12
REMARK    5  A    between atoms: S_12  and  C_15
REMARK    6  A    between atoms: C_18  and  C_19
REMARK    7  A    between atoms: C_22  and  C_23
REMARK                            x       y       z     vdW  Elec       q    Type
REMARK                         _______ _______ _______ _____ _____    ______ ____
ROOT
ATOM      1  S   UNL     1      -0.032  10.511  19.645  0.00  0.00    +0.000 S 
ATOM      2  O   UNL     1      -0.671  10.249  20.917  0.00  0.00    +0.000 OA
ATOM      3  O   UNL     1      -0.813  10.706  18.448  0.00  0.00    +0.000 OA
ENDROOT
BRANCH   1   7
ATOM      4  N   UNL     1      -0.298  14.394  19.491  0.00  0.00    +0.000 N 
ATOM      5  C   UNL     1       0.080  13.617  18.298  0.00  0.00    +0.000 C 
ATOM      6  C   UNL     1       1.265  12.684  18.629  0.00  0.00    +0.000 C 
ATOM      7  N   UNL     1       1.018  11.842  19.847  0.00  0.00    +0.000 NA
ATOM      8  C   UNL     1       0.681  12.735  21.009  0.00  0.00    +0.000 C 
ATOM      9  C   UNL     1      -0.550  13.608  20.714  0.00  0.00    +0.000 C 
BRANCH   4  14
ATOM     10  C   UNL     1      -0.713  17.833  18.149  0.00  0.00    +0.000 A 
ATOM     11  C   UNL     1      -1.245  18.481  19.260  0.00  0.00    +0.000 A 
ATOM     12  C   UNL     1      -1.502  17.767  20.428  0.00  0.00    +0.000 A 
ATOM     13  C   UNL     1      -1.217  16.403  20.487  0.00  0.00    +0.000 A 
ATOM     14  C   UNL     1      -0.667  15.721  19.393  0.00  0.00    +0.000 A 
ATOM     15  C   UNL     1      -0.442  16.463  18.222  0.00  0.00    +0.000 A 
BRANCH  10  17
ATOM     16  C   UNL     1       0.759  18.451  16.394  0.00  0.00    +0.000 C 
ATOM     17  O   UNL     1      -0.487  18.629  17.059  0.00  0.00    +0.000 OA
ENDBRANCH  10  17
ENDBRANCH   4  14
ENDBRANCH   1   7
BRANCH   1  18
ATOM     18  C   UNL     1       1.107   9.183  19.350  0.00  0.00    +0.000 A 
ATOM     19  C   UNL     1       1.753   9.097  18.114  0.00  0.00    +0.000 A 
ATOM     20  C   UNL     1       2.628   8.039  17.864  0.00  0.00    +0.000 A 
ATOM     21  C   UNL     1       2.875   7.061  18.842  0.00  0.00    +0.000 A 
ATOM     22  C   UNL     1       2.235   7.183  20.086  0.00  0.00    +0.000 A 
ATOM     23  C   UNL     1       1.353   8.234  20.345  0.00  0.00    +0.000 A 
BRANCH  21  24
ATOM     24  C   UNL     1       3.755   5.934  18.563  0.00  0.00    +0.000 A 
ATOM     25  C   UNL     1       4.473   5.022  19.305  0.00  0.00    +0.000 A 
ATOM     26  N   UNL     1       5.164   4.170  18.479  0.00  0.00    +0.000 NA
ATOM     27  C   UNL     1       4.859   4.589  17.268  0.00  0.00    +0.000 A 
ATOM     28  O   UNL     1       4.005   5.657  17.246  0.00  0.00    +0.000 OA
BRANCH  27  29
ATOM     29  C   UNL     1       5.421   3.946  16.009  0.00  0.00    +0.000 C 
ATOM     30  C   UNL     1       5.586   4.808  14.773  0.00  0.00    +0.000 C 
ATOM     31  C   UNL     1       6.794   4.379  15.533  0.00  0.00    +0.000 C 
ENDBRANCH  27  29
ENDBRANCH  21  24
ENDBRANCH   1  18
TORSDOF 6
ENDMDL
MODEL 2
REMARK VINA RESULT:      -7.6      2.896      3.934
REMARK  Name = 
REMARK  7 active torsions:
REMARK  status: ('A' for Active; 'I' for Inactive)
REMARK    1  A    between atoms: C_1  and  O_2
REMARK    2  A    between atoms: O_2  and  C_3
REMARK    3  A    between atoms: C_7  and  N_8
REMARK    4  A    between atoms: N_11  and  S_12
REMARK    5  A    between atoms: S_12  and  C_15
REMARK    6  A    between atoms: C_18  and  C_19
REMARK    7  A    between atoms: C_22  and  C_23
REMARK                            x       y       z     vdW  Elec       q    Type
REMARK                         _______ _______ _______ _____ _____    ______ ____
ROOT
ATOM      1  S   UNL     1       0.323  10.642  19.498  0.00  0.00    +0.000 S 
ATOM      2  O   UNL     1      -1.030  10.154  19.662  0.00  0.00    +0.000 OA
ATOM      3  O   UNL     1       0.630  11.671  18.536  0.00  0.00    +0.000 OA
ENDROOT
BRANCH   1   7
ATOM      4  N   UNL     1      -0.939  12.867  22.436  0.00  0.00    +0.000 N 
ATOM      5  C   UNL     1      -0.097  13.434  21.368  0.00  0.00    +0.000 C 
ATOM      6  C   UNL     1       1.184  12.590  21.201  0.00  0.00    +0.000 C 
ATOM      7  N   UNL     1       0.896  11.126  21.032  0.00  0.00    +0.000 NA
ATOM      8  C   UNL     1       0.069  10.646  22.192  0.00  0.00    +0.000 C 
ATOM      9  C   UNL     1      -1.248  11.430  22.312  0.00  0.00    +0.000 C 
BRANCH   4  14
ATOM     10  C   UNL     1      -1.641  15.536  24.923  0.00  0.00    +0.000 A 
ATOM     11  C   UNL     1      -2.954  15.227  25.269  0.00  0.00    +0.000 A 
ATOM     12  C   UNL     1      -3.609  14.168  24.646  0.00  0.00    +0.000 A 
ATOM     13  C   UNL     1      -2.945  13.409  23.682  0.00  0.00    +0.000 A 
ATOM     14  C   UNL     1      -1.619  13.682  23.319  0.00  0.00    +0.000 A 
ATOM     15  C   UNL     1      -0.994  14.771  23.947  0.00  0.00    +0.000 A 
BRANCH  10  17
ATOM     16  C   UNL     1      -0.378  16.264  26.795  0.00  0.00    +0.000 C 
ATOM     17  O   UNL     1      -1.088  16.587  25.603  0.00  0.00    +0.000 OA
ENDBRANCH  10  17
ENDBRANCH   4  14
ENDBRANCH   1   7
BRANCH   1  18
ATOM     18  C   UNL     1       1.346   9.235  19.148  0.00  0.00    +0.000 A 
ATOM     19  C   UNL     1       1.470   8.225  20.106  0.00  0.00    +0.000 A 
ATOM     20  C   UNL     1       2.296   7.129  19.850  0.00  0.00    +0.000 A 
ATOM     21  C   UNL     1       3.001   7.024  18.639  0.00  0.00    +0.000 A 
ATOM     22  C   UNL     1       2.839   8.039  17.681  0.00  0.00    +0.000 A 
ATOM     23  C   UNL     1       2.019   9.142  17.928  0.00  0.00    +0.000 A 
BRANCH  21  24
ATOM     24  C   UNL     1       3.895   5.902  18.392  0.00  0.00    +0.000 A 
ATOM     25  C   UNL     1       4.599   5.000  19.159  0.00  0.00    +0.000 A 
ATOM     26  N   UNL     1       5.317   4.146  18.357  0.00  0.00    +0.000 NA
ATOM     27  C   UNL     1       5.041   4.555  17.135  0.00  0.00    +0.000 A 
ATOM     28  O   UNL     1       4.181   5.617  17.083  0.00  0.00    +0.000 OA
BRANCH  27  29
ATOM     29  C   UNL     1       5.640   3.907  15.896  0.00  0.00    +0.000 C 
ATOM     30  C   UNL     1       5.627   4.689  14.597  0.00  0.00    +0.000 C 
ATOM     31  C   UNL     1       6.914   4.496  15.322  0.00  0.00    +0.000 C 
ENDBRANCH  27  29
ENDBRANCH  21  24
ENDBRANCH   1  18
TORSDOF 6
ENDMDL
MODEL 3
REMARK VINA RESULT:      -7.6      0.854      1.458
REMARK  Name = 
REMARK  7 active torsions:
REMARK  status: ('A' for Active; 'I' for Inactive)
REMARK    1  A    between atoms: C_1  and  O_2
REMARK    2  A    between atoms: O_2  and  C_3
REMARK    3  A    between atoms: C_7  and  N_8
REMARK    4  A    between atoms: N_11  and  S_12
REMARK    5  A    between atoms: S_12  and  C_15
REMARK    6  A    between atoms: C_18  and  C_19
REMARK    7  A    between atoms: C_22  and  C_23
REMARK                            x       y       z     vdW  Elec       q    Type
REMARK                         _______ _______ _______ _____ _____    ______ ____
ROOT
ATOM      1  S   UNL     1       0.069  10.517  19.523  0.00  0.00    +0.000 S 
ATOM      2  O   UNL     1      -0.837  10.129  20.584  0.00  0.00    +0.000 OA
ATOM      3  O   UNL     1      -0.430  10.953  18.243  0.00  0.00    +0.000 OA
ENDROOT
BRANCH   1   7
ATOM      4  N   UNL     1       0.613  14.349  19.078  0.00  0.00    +0.000 N 
ATOM      5  C   UNL     1       1.356  13.381  18.253  0.00  0.00    +0.000 C 
ATOM      6  C   UNL     1       2.058  12.346  19.157  0.00  0.00    +0.000 C 
ATOM      7  N   UNL     1       1.124  11.708  20.143  0.00  0.00    +0.000 NA
ATOM      8  C   UNL     1       0.453  12.780  20.956  0.00  0.00    +0.000 C 
ATOM      9  C   UNL     1      -0.318  13.768  20.064  0.00  0.00    +0.000 C 
BRANCH   4  14
ATOM     10  C   UNL     1      -0.684  17.737  18.280  0.00  0.00    +0.000 A 
ATOM     11  C   UNL     1       0.490  18.380  17.898  0.00  0.00    +0.000 A 
ATOM     12  C   UNL     1       1.705  17.701  17.950  0.00  0.00    +0.000 A 
ATOM     13  C   UNL     1       1.744  16.373  18.375  0.00  0.00    +0.000 A 
ATOM     14  C   UNL     1       0.580  15.690  18.752  0.00  0.00    +0.000 A 
ATOM     15  C   UNL     1      -0.626  16.408  18.713  0.00  0.00    +0.000 A 
BRANCH  10  17
ATOM     16  C   UNL     1      -2.799  18.298  19.199  0.00  0.00    +0.000 C 
ATOM     17  O   UNL     1      -1.823  18.489  18.180  0.00  0.00    +0.000 OA
ENDBRANCH  10  17
ENDBRANCH   4  14
ENDBRANCH   1   7
BRANCH   1  18
ATOM     18  C   UNL     1       1.169   9.153  19.252  0.00  0.00    +0.000 A 
ATOM     19  C   UNL     1       1.749   8.981  17.992  0.00  0.00    +0.000 A 
ATOM     20  C   UNL     1       2.593   7.893  17.762  0.00  0.00    +0.000 A 
ATOM     21  C   UNL     1       2.874   6.970  18.783  0.00  0.00    +0.000 A 
ATOM     22  C   UNL     1       2.300   7.178  20.050  0.00  0.00    +0.000 A 
ATOM     23  C   UNL     1       1.451   8.260  20.288  0.00  0.00    +0.000 A 
BRANCH  21  24
ATOM     24  C   UNL     1       3.720   5.812  18.529  0.00  0.00    +0.000 A 
ATOM     25  C   UNL     1       4.246   4.779  19.273  0.00  0.00    +0.000 A 
ATOM     26  N   UNL     1       5.015   3.962  18.481  0.00  0.00    +0.000 NA
ATOM     27  C   UNL     1       4.946   4.521  17.290  0.00  0.00    +0.000 A 
ATOM     28  O   UNL     1       4.173   5.649  17.248  0.00  0.00    +0.000 OA
BRANCH  27  29
ATOM     29  C   UNL     1       5.674   3.965  16.076  0.00  0.00    +0.000 C 
ATOM     30  C   UNL     1       5.476   4.654  14.740  0.00  0.00    +0.000 C 
ATOM     31  C   UNL     1       6.776   4.800  15.454  0.00  0.00    +0.000 C 
ENDBRANCH  27  29
ENDBRANCH  21  24
ENDBRANCH   1  18
TORSDOF 6
ENDMDL
MODEL 4
REMARK VINA RESULT:      -7.5      3.327      4.633
REMARK  Name = 
REMARK  7 active torsions:
REMARK  status: ('A' for Active; 'I' for Inactive)
REMARK    1  A    between atoms: C_1  and  O_2
REMARK    2  A    between atoms: O_2  and  C_3
REMARK    3  A    between atoms: C_7  and  N_8
REMARK    4  A    between atoms: N_11  and  S_12
REMARK    5  A    between atoms: S_12  and  C_15
REMARK    6  A    between atoms: C_18  and  C_19
REMARK    7  A    between atoms: C_22  and  C_23
REMARK                            x       y       z     vdW  Elec       q    Type
REMARK                         _______ _______ _______ _____ _____    ______ ____
ROOT
ATOM      1  S   UNL     1       0.567  11.756  20.122  0.00  0.00    +0.000 S 
ATOM      2  O   UNL     1       0.310  12.577  18.957  0.00  0.00    +0.000 OA
ATOM      3  O   UNL     1       1.426  12.220  21.183  0.00  0.00    +0.000 OA
ENDROOT
BRANCH   1   7
ATOM      4  N   UNL     1      -2.221  13.428  22.268  0.00  0.00    +0.000 N 
ATOM      5  C   UNL     1      -1.127  12.675  22.907  0.00  0.00    +0.000 C 
ATOM      6  C   UNL     1      -1.021  11.267  22.284  0.00  0.00    +0.000 C 
ATOM      7  N   UNL     1      -0.939  11.300  20.785  0.00  0.00    +0.000 NA
ATOM      8  C   UNL     1      -2.120  12.054  20.240  0.00  0.00    +0.000 C 
ATOM      9  C   UNL     1      -2.183  13.487  20.795  0.00  0.00    +0.000 C 
BRANCH   4  14
ATOM     10  C   UNL     1      -5.287  14.878  23.783  0.00  0.00    +0.000 A 
ATOM     11  C   UNL     1      -4.770  16.039  24.351  0.00  0.00    +0.000 A 
ATOM     12  C   UNL     1      -3.407  16.310  24.266  0.00  0.00    +0.000 A 
ATOM     13  C   UNL     1      -2.561  15.422  23.603  0.00  0.00    +0.000 A 
ATOM     14  C   UNL     1      -3.049  14.251  23.006  0.00  0.00    +0.000 A 
ATOM     15  C   UNL     1      -4.423  13.994  23.130  0.00  0.00    +0.000 A 
BRANCH  10  17
ATOM     16  C   UNL     1      -7.188  13.520  23.364  0.00  0.00    +0.000 C 
ATOM     17  O   UNL     1      -6.640  14.715  23.913  0.00  0.00    +0.000 OA
ENDBRANCH  10  17
ENDBRANCH   4  14
ENDBRANCH   1   7
BRANCH   1  18
ATOM     18  C   UNL     1       1.199  10.205  19.537  0.00  0.00    +0.000 A 
ATOM     19  C   UNL     1       1.295   9.128  20.424  0.00  0.00    +0.000 A 
ATOM     20  C   UNL     1       1.818   7.912  19.979  0.00  0.00    +0.000 A 
ATOM     21  C   UNL     1       2.245   7.754  18.650  0.00  0.00    +0.000 A 
ATOM     22  C   UNL     1       2.114   8.842  17.771  0.00  0.00    +0.000 A 
ATOM     23  C   UNL     1       1.596  10.064  18.206  0.00  0.00    +0.000 A 
BRANCH  21  24
ATOM     24  C   UNL     1       2.830   6.499  18.200  0.00  0.00    +0.000 A 
ATOM     25  C   UNL     1       4.036   6.093  17.672  0.00  0.00    +0.000 A 
ATOM     26  N   UNL     1       4.015   4.745  17.410  0.00  0.00    +0.000 NA
ATOM     27  C   UNL     1       2.804   4.372  17.772  0.00  0.00    +0.000 A 
ATOM     28  O   UNL     1       2.032   5.388  18.264  0.00  0.00    +0.000 OA
BRANCH  27  29
ATOM     29  C   UNL     1       2.311   2.939  17.640  0.00  0.00    +0.000 C 
ATOM     30  C   UNL     1       3.249   1.816  18.037  0.00  0.00    +0.000 C 
ATOM     31  C   UNL     1       2.085   2.139  18.908  0.00  0.00    +0.000 C 
ENDBRANCH  27  29
ENDBRANCH  21  24
ENDBRANCH   1  18
TORSDOF 6
ENDMDL
MODEL 5
REMARK VINA RESULT:      -7.4      3.443     11.078
REMARK  Name = 
REMARK  7 active torsions:
REMARK  status: ('A' for Active; 'I' for Inactive)
REMARK    1  A    between atoms: C_1  and  O_2
REMARK    2  A    between atoms: O_2  and  C_3
REMARK    3  A    between atoms: C_7  and  N_8
REMARK    4  A    between atoms: N_11  and  S_12
REMARK    5  A    between atoms: S_12  and  C_15
REMARK    6  A    between atoms: C_18  and  C_19
REMARK    7  A    between atoms: C_22  and  C_23
REMARK                            x       y       z     vdW  Elec       q    Type
REMARK                         _______ _______ _______ _____ _____    ______ ____
ROOT
ATOM      1  S   UNL     1       3.083   5.277  19.061  0.00  0.00    +0.000 S 
ATOM      2  O   UNL     1       2.454   4.680  17.902  0.00  0.00    +0.000 OA
ATOM      3  O   UNL     1       3.087   4.600  20.334  0.00  0.00    +0.000 OA
ENDROOT
BRANCH   1   7
ATOM      4  N   UNL     1       5.372   4.935  15.927  0.00  0.00    +0.000 N 
ATOM      5  C   UNL     1       5.357   3.891  16.967  0.00  0.00    +0.000 C 
ATOM      6  C   UNL     1       5.607   4.523  18.352  0.00  0.00    +0.000 C 
ATOM      7  N   UNL     1       4.689   5.676  18.639  0.00  0.00    +0.000 NA
ATOM      8  C   UNL     1       4.815   6.695  17.541  0.00  0.00    +0.000 C 
ATOM      9  C   UNL     1       4.486   6.089  16.166  0.00  0.00    +0.000 C 
BRANCH   4  14
ATOM     10  C   UNL     1       5.985   3.542  12.538  0.00  0.00    +0.000 A 
ATOM     11  C   UNL     1       7.231   4.094  12.254  0.00  0.00    +0.000 A 
ATOM     12  C   UNL     1       7.837   4.955  13.165  0.00  0.00    +0.000 A 
ATOM     13  C   UNL     1       7.199   5.257  14.368  0.00  0.00    +0.000 A 
ATOM     14  C   UNL     1       5.952   4.708  14.694  0.00  0.00    +0.000 A 
ATOM     15  C   UNL     1       5.355   3.863  13.745  0.00  0.00    +0.000 A 
BRANCH  10  17
ATOM     16  C   UNL     1       4.159   2.967  11.135  0.00  0.00    +0.000 C 
ATOM     17  O   UNL     1       5.485   2.700  11.582  0.00  0.00    +0.000 OA
ENDBRANCH  10  17
ENDBRANCH   4  14
ENDBRANCH   1   7
BRANCH   1  18
ATOM     18  C   UNL     1       2.351   6.877  19.287  0.00  0.00    +0.000 A 
ATOM     19  C   UNL     1       1.882   7.242  20.552  0.00  0.00    +0.000 A 
ATOM     20  C   UNL     1       1.278   8.488  20.731  0.00  0.00    +0.000 A 
ATOM     21  C   UNL     1       1.141   9.384  19.658  0.00  0.00    +0.000 A 
ATOM     22  C   UNL     1       1.644   9.005  18.401  0.00  0.00    +0.000 A 
ATOM     23  C   UNL     1       2.245   7.759  18.210  0.00  0.00    +0.000 A 
BRANCH  21  24
ATOM     24  C   UNL     1       0.472  10.665  19.837  0.00  0.00    +0.000 A 
ATOM     25  C   UNL     1       0.494  11.897  19.221  0.00  0.00    +0.000 A 
ATOM     26  N   UNL     1      -0.361  12.765  19.855  0.00  0.00    +0.000 NA
ATOM     27  C   UNL     1      -0.867  12.047  20.838  0.00  0.00    +0.000 A 
ATOM     28  O   UNL     1      -0.406  10.761  20.884  0.00  0.00    +0.000 OA
BRANCH  27  29
ATOM     29  C   UNL     1      -1.867  12.610  21.837  0.00  0.00    +0.000 C 
ATOM     30  C   UNL     1      -2.114  11.840  23.119  0.00  0.00    +0.000 C 
ATOM     31  C   UNL     1      -1.345  13.114  23.168  0.00  0.00    +0.000 C 
ENDBRANCH  27  29
ENDBRANCH  21  24
ENDBRANCH   1  18
TORSDOF 6
ENDMDL
MODEL 6
REMARK VINA RESULT:      -7.4      3.079      4.304
REMARK  Name = 
REMARK  7 active torsions:
REMARK  status: ('A' for Active; 'I' for Inactive)
REMARK    1  A    between atoms: C_1  and  O_2
REMARK    2  A    between atoms: O_2  and  C_3
REMARK    3  A    between atoms: C_7  and  N_8
REMARK    4  A    between atoms: N_11  and  S_12
REMARK    5  A    between atoms: S_12  and  C_15
REMARK    6  A    between atoms: C_18  and  C_19
REMARK    7  A    between atoms: C_22  and  C_23
REMARK                            x       y       z     vdW  Elec       q    Type
REMARK                         _______ _______ _______ _____ _____    ______ ____
ROOT
ATOM      1  S   UNL     1       0.634  11.533  20.083  0.00  0.00    +0.000 S 
ATOM      2  O   UNL     1       0.481  12.335  18.888  0.00  0.00    +0.000 OA
ATOM      3  O   UNL     1       1.451  11.986  21.182  0.00  0.00    +0.000 OA
ENDROOT
BRANCH   1   7
ATOM      4  N   UNL     1      -2.105  13.298  22.218  0.00  0.00    +0.000 N 
ATOM      5  C   UNL     1      -1.095  12.434  22.853  0.00  0.00    +0.000 C 
ATOM      6  C   UNL     1      -1.069  11.056  22.159  0.00  0.00    +0.000 C 
ATOM      7  N   UNL     1      -0.926  11.159  20.668  0.00  0.00    +0.000 NA
ATOM      8  C   UNL     1      -2.026  12.026  20.123  0.00  0.00    +0.000 C 
ATOM      9  C   UNL     1      -2.005  13.429  20.752  0.00  0.00    +0.000 C 
BRANCH   4  14
ATOM     10  C   UNL     1      -5.109  14.851  23.754  0.00  0.00    +0.000 A 
ATOM     11  C   UNL     1      -4.544  15.979  24.344  0.00  0.00    +0.000 A 
ATOM     12  C   UNL     1      -3.170  16.192  24.267  0.00  0.00    +0.000 A 
ATOM     13  C   UNL     1      -2.361  15.280  23.588  0.00  0.00    +0.000 A 
ATOM     14  C   UNL     1      -2.898  14.143  22.969  0.00  0.00    +0.000 A 
ATOM     15  C   UNL     1      -4.282  13.943  23.086  0.00  0.00    +0.000 A 
BRANCH  10  17
ATOM     16  C   UNL     1      -6.994  13.423  23.948  0.00  0.00    +0.000 C 
ATOM     17  O   UNL     1      -6.468  14.744  23.878  0.00  0.00    +0.000 OA
ENDBRANCH  10  17
ENDBRANCH   4  14
ENDBRANCH   1   7
BRANCH   1  18
ATOM     18  C   UNL     1       1.229   9.942  19.571  0.00  0.00    +0.000 A 
ATOM     19  C   UNL     1       1.364   8.924  20.519  0.00  0.00    +0.000 A 
ATOM     20  C   UNL     1       1.859   7.679  20.130  0.00  0.00    +0.000 A 
ATOM     21  C   UNL     1       2.218   7.431  18.794  0.00  0.00    +0.000 A 
ATOM     22  C   UNL     1       2.049   8.461  17.854  0.00  0.00    +0.000 A 
ATOM     23  C   UNL     1       1.559   9.712  18.234  0.00  0.00    +0.000 A 
BRANCH  21  24
ATOM     24  C   UNL     1       2.775   6.145  18.399  0.00  0.00    +0.000 A 
ATOM     25  C   UNL     1       2.650   4.835  18.808  0.00  0.00    +0.000 A 
ATOM     26  N   UNL     1       3.459   4.019  18.056  0.00  0.00    +0.000 NA
ATOM     27  C   UNL     1       4.056   4.847  17.224  0.00  0.00    +0.000 A 
ATOM     28  O   UNL     1       3.685   6.155  17.376  0.00  0.00    +0.000 OA
BRANCH  27  29
ATOM     29  C   UNL     1       5.078   4.386  16.195  0.00  0.00    +0.000 C 
ATOM     30  C   UNL     1       5.666   5.417  15.252  0.00  0.00    +0.000 C 
ATOM     31  C   UNL     1       6.511   4.859  16.345  0.00  0.00    +0.000 C 
ENDBRANCH  27  29
ENDBRANCH  21  24
ENDBRANCH   1  18
TORSDOF 6
ENDMDL
MODEL 7
REMARK VINA RESULT:      -7.4      3.510      4.344
REMARK  Name = 
REMARK  7 active torsions:
REMARK  status: ('A' for Active; 'I' for Inactive)
REMARK    1  A    between atoms: C_1  and  O_2
REMARK    2  A    between atoms: O_2  and  C_3
REMARK    3  A    between atoms: C_7  and  N_8
REMARK    4  A    between atoms: N_11  and  S_12
REMARK    5  A    between atoms: S_12  and  C_15
REMARK    6  A    between atoms: C_18  and  C_19
REMARK    7  A    between atoms: C_22  and  C_23
REMARK                            x       y       z     vdW  Elec       q    Type
REMARK                         _______ _______ _______ _____ _____    ______ ____
ROOT
ATOM      1  S   UNL     1       0.311  11.001  20.503  0.00  0.00    +0.000 S 
ATOM      2  O   UNL     1       1.325  11.867  21.066  0.00  0.00    +0.000 OA
ATOM      3  O   UNL     1      -0.776  10.508  21.311  0.00  0.00    +0.000 OA
ENDROOT
BRANCH   1   7
ATOM      4  N   UNL     1      -3.215  11.984  19.169  0.00  0.00    +0.000 N 
ATOM      5  C   UNL     1      -2.603  10.695  18.803  0.00  0.00    +0.000 C 
ATOM      6  C   UNL     1      -1.190  10.927  18.227  0.00  0.00    +0.000 C 
ATOM      7  N   UNL     1      -0.330  11.773  19.121  0.00  0.00    +0.000 NA
ATOM      8  C   UNL     1      -1.030  13.074  19.397  0.00  0.00    +0.000 C 
ATOM      9  C   UNL     1      -2.406  12.850  20.047  0.00  0.00    +0.000 C 
BRANCH   4  14
ATOM     10  C   UNL     1      -6.732  13.043  19.723  0.00  0.00    +0.000 A 
ATOM     11  C   UNL     1      -7.333  12.557  18.564  0.00  0.00    +0.000 A 
ATOM     12  C   UNL     1      -6.564  11.924  17.592  0.00  0.00    +0.000 A 
ATOM     13  C   UNL     1      -5.191  11.767  17.784  0.00  0.00    +0.000 A 
ATOM     14  C   UNL     1      -4.555  12.229  18.944  0.00  0.00    +0.000 A 
ATOM     15  C   UNL     1      -5.353  12.885  19.894  0.00  0.00    +0.000 A 
BRANCH  10  17
ATOM     16  C   UNL     1      -7.208  14.932  21.078  0.00  0.00    +0.000 C 
ATOM     17  O   UNL     1      -7.580  13.636  20.618  0.00  0.00    +0.000 OA
ENDBRANCH  10  17
ENDBRANCH   4  14
ENDBRANCH   1   7
BRANCH   1  18
ATOM     18  C   UNL     1       1.150   9.608  19.794  0.00  0.00    +0.000 A 
ATOM     19  C   UNL     1       1.598   9.680  18.472  0.00  0.00    +0.000 A 
ATOM     20  C   UNL     1       2.233   8.578  17.897  0.00  0.00    +0.000 A 
ATOM     21  C   UNL     1       2.433   7.397  18.632  0.00  0.00    +0.000 A 
ATOM     22  C   UNL     1       1.997   7.358  19.967  0.00  0.00    +0.000 A 
ATOM     23  C   UNL     1       1.357   8.453  20.550  0.00  0.00    +0.000 A 
BRANCH  21  24
ATOM     24  C   UNL     1       3.057   6.234  18.016  0.00  0.00    +0.000 A 
ATOM     25  C   UNL     1       2.757   4.896  17.881  0.00  0.00    +0.000 A 
ATOM     26  N   UNL     1       3.756   4.248  17.197  0.00  0.00    +0.000 NA
ATOM     27  C   UNL     1       4.634   5.198  16.947  0.00  0.00    +0.000 A 
ATOM     28  O   UNL     1       4.271   6.430  17.415  0.00  0.00    +0.000 OA
BRANCH  27  29
ATOM     29  C   UNL     1       5.941   4.938  16.212  0.00  0.00    +0.000 C 
ATOM     30  C   UNL     1       6.020   3.740  15.287  0.00  0.00    +0.000 C 
ATOM     31  C   UNL     1       5.965   5.110  14.706  0.00  0.00    +0.000 C 
ENDBRANCH  27  29
ENDBRANCH  21  24
ENDBRANCH   1  18
TORSDOF 6
ENDMDL
MODEL 8
REMARK VINA RESULT:      -7.4      1.302      2.003
REMARK  Name = 
REMARK  7 active torsions:
REMARK  status: ('A' for Active; 'I' for Inactive)
REMARK    1  A    between atoms: C_1  and  O_2
REMARK    2  A    between atoms: O_2  and  C_3
REMARK    3  A    between atoms: C_7  and  N_8
REMARK    4  A    between atoms: N_11  and  S_12
REMARK    5  A    between atoms: S_12  and  C_15
REMARK    6  A    between atoms: C_18  and  C_19
REMARK    7  A    between atoms: C_22  and  C_23
REMARK                            x       y       z     vdW  Elec       q    Type
REMARK                         _______ _______ _______ _____ _____    ______ ____
ROOT
ATOM      1  S   UNL     1       0.441  10.631  20.488  0.00  0.00    +0.000 S 
ATOM      2  O   UNL     1       0.716  10.596  21.909  0.00  0.00    +0.000 OA
ATOM      3  O   UNL     1      -0.914  10.658  19.994  0.00  0.00    +0.000 OA
ENDROOT
BRANCH   1   7
ATOM      4  N   UNL     1      -0.258  14.377  19.677  0.00  0.00    +0.000 N 
ATOM      5  C   UNL     1      -0.476  13.332  18.662  0.00  0.00    +0.000 C 
ATOM      6  C   UNL     1       0.796  12.472  18.508  0.00  0.00    +0.000 C 
ATOM      7  N   UNL     1       1.302  11.945  19.819  0.00  0.00    +0.000 NA
ATOM      8  C   UNL     1       1.528  13.093  20.762  0.00  0.00    +0.000 C 
ATOM      9  C   UNL     1       0.241  13.906  20.983  0.00  0.00    +0.000 C 
BRANCH   4  14
ATOM     10  C   UNL     1      -2.322  17.430  20.145  0.00  0.00    +0.000 A 
ATOM     11  C   UNL     1      -1.914  18.187  19.050  0.00  0.00    +0.000 A 
ATOM     12  C   UNL     1      -0.930  17.701  18.192  0.00  0.00    +0.000 A 
ATOM     13  C   UNL     1      -0.360  16.449  18.426  0.00  0.00    +0.000 A 
ATOM     14  C   UNL     1      -0.757  15.653  19.509  0.00  0.00    +0.000 A 
ATOM     15  C   UNL     1      -1.733  16.181  20.369  0.00  0.00    +0.000 A 
BRANCH  10  17
ATOM     16  C   UNL     1      -3.674  17.279  22.088  0.00  0.00    +0.000 C 
ATOM     17  O   UNL     1      -3.302  17.994  20.915  0.00  0.00    +0.000 OA
ENDBRANCH  10  17
ENDBRANCH   4  14
ENDBRANCH   1   7
BRANCH   1  18
ATOM     18  C   UNL     1       1.266   9.239  19.762  0.00  0.00    +0.000 A 
ATOM     19  C   UNL     1       1.621   9.282  18.411  0.00  0.00    +0.000 A 
ATOM     20  C   UNL     1       2.245   8.179  17.825  0.00  0.00    +0.000 A 
ATOM     21  C   UNL     1       2.526   7.026  18.576  0.00  0.00    +0.000 A 
ATOM     22  C   UNL     1       2.183   7.016  19.939  0.00  0.00    +0.000 A 
ATOM     23  C   UNL     1       1.555   8.112  20.534  0.00  0.00    +0.000 A 
BRANCH  21  24
ATOM     24  C   UNL     1       3.137   5.861  17.953  0.00  0.00    +0.000 A 
ATOM     25  C   UNL     1       2.811   4.533  17.785  0.00  0.00    +0.000 A 
ATOM     26  N   UNL     1       3.811   3.875  17.111  0.00  0.00    +0.000 NA
ATOM     27  C   UNL     1       4.714   4.810  16.897  0.00  0.00    +0.000 A 
ATOM     28  O   UNL     1       4.368   6.042  17.380  0.00  0.00    +0.000 OA
BRANCH  27  29
ATOM     29  C   UNL     1       6.031   4.535  16.185  0.00  0.00    +0.000 C 
ATOM     30  C   UNL     1       5.998   3.740  14.895  0.00  0.00    +0.000 C 
ATOM     31  C   UNL     1       6.276   5.203  14.846  0.00  0.00    +0.000 C 
ENDBRANCH  27  29
ENDBRANCH  21  24
ENDBRANCH   1  18
TORSDOF 6
ENDMDL
MODEL 9
REMARK VINA RESULT:      -7.3      3.453      4.653
REMARK  Name = 
REMARK  7 active torsions:
REMARK  status: ('A' for Active; 'I' for Inactive)
REMARK    1  A    between atoms: C_1  and  O_2
REMARK    2  A    between atoms: O_2  and  C_3
REMARK    3  A    between atoms: C_7  and  N_8
REMARK    4  A    between atoms: N_11  and  S_12
REMARK    5  A    between atoms: S_12  and  C_15
REMARK    6  A    between atoms: C_18  and  C_19
REMARK    7  A    between atoms: C_22  and  C_23
REMARK                            x       y       z     vdW  Elec       q    Type
REMARK                         _______ _______ _______ _____ _____    ______ ____
ROOT
ATOM      1  S   UNL     1       0.408  11.887  20.183  0.00  0.00    +0.000 S 
ATOM      2  O   UNL     1       0.148  12.593  18.946  0.00  0.00    +0.000 OA
ATOM      3  O   UNL     1       1.247  12.463  21.205  0.00  0.00    +0.000 OA
ENDROOT
BRANCH   1   7
ATOM      4  N   UNL     1      -2.275  13.596  22.431  0.00  0.00    +0.000 N 
ATOM      5  C   UNL     1      -1.191  12.796  23.027  0.00  0.00    +0.000 C 
ATOM      6  C   UNL     1      -1.145  11.400  22.371  0.00  0.00    +0.000 C 
ATOM      7  N   UNL     1      -1.096  11.464  20.872  0.00  0.00    +0.000 NA
ATOM      8  C   UNL     1      -2.264  12.266  20.371  0.00  0.00    +0.000 C 
ATOM      9  C   UNL     1      -2.269  13.688  20.959  0.00  0.00    +0.000 C 
BRANCH   4  14
ATOM     10  C   UNL     1      -5.202  15.534  23.648  0.00  0.00    +0.000 A 
ATOM     11  C   UNL     1      -4.614  16.276  24.669  0.00  0.00    +0.000 A 
ATOM     12  C   UNL     1      -3.267  16.097  24.974  0.00  0.00    +0.000 A 
ATOM     13  C   UNL     1      -2.504  15.181  24.250  0.00  0.00    +0.000 A 
ATOM     14  C   UNL     1      -3.059  14.429  23.206  0.00  0.00    +0.000 A 
ATOM     15  C   UNL     1      -4.424  14.613  22.938  0.00  0.00    +0.000 A 
BRANCH  10  17
ATOM     16  C   UNL     1      -7.256  14.797  22.716  0.00  0.00    +0.000 C 
ATOM     17  O   UNL     1      -6.526  15.796  23.422  0.00  0.00    +0.000 OA
ENDBRANCH  10  17
ENDBRANCH   4  14
ENDBRANCH   1   7
BRANCH   1  18
ATOM     18  C   UNL     1       1.075  10.302  19.748  0.00  0.00    +0.000 A 
ATOM     19  C   UNL     1       1.542  10.090  18.448  0.00  0.00    +0.000 A 
ATOM     20  C   UNL     1       2.041   8.836  18.090  0.00  0.00    +0.000 A 
ATOM     21  C   UNL     1       2.088   7.786  19.021  0.00  0.00    +0.000 A 
ATOM     22  C   UNL     1       1.638   8.031  20.330  0.00  0.00    +0.000 A 
ATOM     23  C   UNL     1       1.132   9.279  20.697  0.00  0.00    +0.000 A 
BRANCH  21  24
ATOM     24  C   UNL     1       2.569   6.467  18.634  0.00  0.00    +0.000 A 
ATOM     25  C   UNL     1       3.469   5.962  17.721  0.00  0.00    +0.000 A 
ATOM     26  N   UNL     1       3.500   4.591  17.787  0.00  0.00    +0.000 NA
ATOM     27  C   UNL     1       2.619   4.300  18.722  0.00  0.00    +0.000 A 
ATOM     28  O   UNL     1       2.017   5.394  19.280  0.00  0.00    +0.000 OA
BRANCH  27  29
ATOM     29  C   UNL     1       2.294   2.871  19.131  0.00  0.00    +0.000 C 
ATOM     30  C   UNL     1       1.282   2.652  20.239  0.00  0.00    +0.000 C 
ATOM     31  C   UNL     1       0.907   2.336  18.832  0.00  0.00    +0.000 C 
ENDBRANCH  27  29
ENDBRANCH  21  24
ENDBRANCH   1  18
TORSDOF 6
ENDMDL
