MODEL 1
REMARK VINA RESULT:      -7.6      0.000      0.000
REMARK  Name = 
REMARK  7 active torsions:
REMARK  status: ('A' for Active; 'I' for Inactive)
REMARK    1  A    between atoms: C_1  and  C_2
REMARK    2  A    between atoms: C_2  and  C_3
REMARK    3  A    between atoms: C_2  and  C_4
REMARK    4  A    between atoms: C_7  and  C_8
REMARK    5  A    between atoms: C_10  and  O_11
REMARK    6  A    between atoms: O_11  and  C_12
REMARK    7  A    between atoms: C_12  and  C_14
REMARK                            x       y       z     vdW  Elec       q    Type
REMARK                         _______ _______ _______ _____ _____    ______ ____
ROOT
ATOM      1  C   UNL     1       4.197   5.362  17.653  0.00  0.00    +0.000 C 
ATOM      2  C   UNL     1       4.074   3.999  16.918  0.00  0.00    +0.000 C 
ATOM      3  C   UNL     1       3.217   2.977  17.659  0.00  0.00    +0.000 C 
ATOM      4  C   UNL     1       1.833   3.531  17.988  0.00  0.00    +0.000 C 
ATOM      5  C   UNL     1       1.021   2.513  18.789  0.00  0.00    +0.000 C 
ATOM      6  C   UNL     1       1.966   4.843  18.761  0.00  0.00    +0.000 C 
ATOM      7  C   UNL     1       2.771   5.909  17.996  0.00  0.00    +0.000 C 
ENDROOT
BRANCH   1   9
ATOM      8  C   UNL     1       5.366   5.813  15.396  0.00  0.00    +0.000 C 
ATOM      9  C   UNL     1       5.087   6.345  16.814  0.00  0.00    +0.000 C 
ATOM     10  C   UNL     1       6.442   6.652  17.457  0.00  0.00    +0.000 C 
ENDBRANCH   1   9
BRANCH   7  11
ATOM     11  O   UNL     1       2.857   7.071  18.867  0.00  0.00    +0.000 OA
BRANCH  11  12
ATOM     12  C   UNL     1       2.225   8.213  18.464  0.00  0.00    +0.000 C 
ATOM     13  O   UNL     1       2.278   8.699  17.348  0.00  0.00    +0.000 OA
BRANCH  12  14
ATOM     14  C   UNL     1       1.415   8.811  19.578  0.00  0.00    +0.000 A 
ATOM     15  C   UNL     1       1.505   8.260  20.872  0.00  0.00    +0.000 A 
ATOM     16  C   UNL     1       0.753   8.785  21.933  0.00  0.00    +0.000 A 
ATOM     17  C   UNL     1      -0.088   9.873  21.706  0.00  0.00    +0.000 A 
ATOM     18 CL   UNL     1      -1.019  10.522  23.001  0.00  0.00    +0.000 Cl
ATOM     19  C   UNL     1      -0.180  10.438  20.436  0.00  0.00    +0.000 A 
ATOM     20  C   UNL     1       0.568   9.908  19.374  0.00  0.00    +0.000 A 
ENDBRANCH  12  14
ENDBRANCH  11  12
ENDBRANCH   7  11
TORSDOF 4
ENDMDL
MODEL 2
REMARK VINA RESULT:      -7.5      0.157      1.091
REMARK  Name = 
REMARK  7 active torsions:
REMARK  status: ('A' for Active; 'I' for Inactive)
REMARK    1  A    between atoms: C_1  and  C_2
REMARK    2  A    between atoms: C_2  and  C_3
REMARK    3  A    between atoms: C_2  and  C_4
REMARK    4  A    between atoms: C_7  and  C_8
REMARK    5  A    between atoms: C_10  and  O_11
REMARK    6  A    between atoms: O_11  and  C_12
REMARK    7  A    between atoms: C_12  and  C_14
REMARK                            x       y       z     vdW  Elec       q    Type
REMARK                         _______ _______ _______ _____ _____    ______ ____
ROOT
ATOM      1  C   UNL     1       4.322   5.408  17.670  0.00  0.00    +0.000 C 
ATOM      2  C   UNL     1       4.207   4.032  16.958  0.00  0.00    +0.000 C 
ATOM      3  C   UNL     1       3.282   3.048  17.669  0.00  0.00    +0.000 C 
ATOM      4  C   UNL     1       1.896   3.643  17.905  0.00  0.00    +0.000 C 
ATOM      5  C   UNL     1       1.013   2.664  18.679  0.00  0.00    +0.000 C 
ATOM      6  C   UNL     1       2.019   4.968  18.657  0.00  0.00    +0.000 C 
ATOM      7  C   UNL     1       2.893   5.997  17.918  0.00  0.00    +0.000 C 
ENDROOT
BRANCH   1   9
ATOM      8  C   UNL     1       5.382   5.950  15.380  0.00  0.00    +0.000 C 
ATOM      9  C   UNL     1       5.284   6.348  16.864  0.00  0.00    +0.000 C 
ATOM     10  C   UNL     1       6.712   6.391  17.416  0.00  0.00    +0.000 C 
ENDBRANCH   1   9
BRANCH   7  11
ATOM     11  O   UNL     1       2.959   7.176  18.768  0.00  0.00    +0.000 OA
BRANCH  11  12
ATOM     12  C   UNL     1       2.194   8.252  18.418  0.00  0.00    +0.000 C 
ATOM     13  O   UNL     1       2.118   8.739  17.303  0.00  0.00    +0.000 OA
BRANCH  12  14
ATOM     14  C   UNL     1       1.416   8.774  19.593  0.00  0.00    +0.000 A 
ATOM     15  C   UNL     1       0.601   9.913  19.431  0.00  0.00    +0.000 A 
ATOM     16  C   UNL     1      -0.128  10.435  20.509  0.00  0.00    +0.000 A 
ATOM     17  C   UNL     1      -0.053   9.814  21.754  0.00  0.00    +0.000 A 
ATOM     18 CL   UNL     1      -0.941  10.450  23.084  0.00  0.00    +0.000 Cl
ATOM     19  C   UNL     1       0.737   8.680  21.928  0.00  0.00    +0.000 A 
ATOM     20  C   UNL     1       1.472   8.162  20.851  0.00  0.00    +0.000 A 
ENDBRANCH  12  14
ENDBRANCH  11  12
ENDBRANCH   7  11
TORSDOF 4
ENDMDL
MODEL 3
REMARK VINA RESULT:      -7.5      4.100      7.300
REMARK  Name = 
REMARK  7 active torsions:
REMARK  status: ('A' for Active; 'I' for Inactive)
REMARK    1  A    between atoms: C_1  and  C_2
REMARK    2  A    between atoms: C_2  and  C_3
REMARK    3  A    between atoms: C_2  and  C_4
REMARK    4  A    between atoms: C_7  and  C_8
REMARK    5  A    between atoms: C_10  and  O_11
REMARK    6  A    between atoms: O_11  and  C_12
REMARK    7  A    between atoms: C_12  and  C_14
REMARK                            x       y       z     vdW  Elec       q    Type
REMARK                         _______ _______ _______ _____ _____    ______ ____
ROOT
ATOM      1  C   UNL     1       2.667   4.521  19.823  0.00  0.00    +0.000 C 
ATOM      2  C   UNL     1       1.788   5.673  20.383  0.00  0.00    +0.000 C 
ATOM      3  C   UNL     1       2.207   7.058  19.897  0.00  0.00    +0.000 C 
ATOM      4  C   UNL     1       2.269   7.129  18.374  0.00  0.00    +0.000 C 
ATOM      5  C   UNL     1       2.758   8.503  17.916  0.00  0.00    +0.000 C 
ATOM      6  C   UNL     1       3.183   6.026  17.837  0.00  0.00    +0.000 C 
ATOM      7  C   UNL     1       2.733   4.617  18.262  0.00  0.00    +0.000 C 
ENDROOT
BRANCH   1   9
ATOM      8  C   UNL     1       0.763   2.778  19.824  0.00  0.00    +0.000 C 
ATOM      9  C   UNL     1       2.156   3.143  20.370  0.00  0.00    +0.000 C 
ATOM     10  C   UNL     1       2.073   3.078  21.898  0.00  0.00    +0.000 C 
ENDBRANCH   1   9
BRANCH   7  11
ATOM     11  O   UNL     1       3.714   3.686  17.727  0.00  0.00    +0.000 OA
BRANCH  11  12
ATOM     12  C   UNL     1       5.035   3.974  17.927  0.00  0.00    +0.000 C 
ATOM     13  O   UNL     1       5.608   3.970  19.003  0.00  0.00    +0.000 OA
BRANCH  12  14
ATOM     14  C   UNL     1       5.729   4.285  16.632  0.00  0.00    +0.000 A 
ATOM     15  C   UNL     1       5.062   4.042  15.414  0.00  0.00    +0.000 A 
ATOM     16  C   UNL     1       5.686   4.308  14.187  0.00  0.00    +0.000 A 
ATOM     17  C   UNL     1       6.978   4.829  14.171  0.00  0.00    +0.000 A 
ATOM     18 CL   UNL     1       7.753   5.155  12.669  0.00  0.00    +0.000 Cl
ATOM     19  C   UNL     1       7.647   5.087  15.366  0.00  0.00    +0.000 A 
ATOM     20  C   UNL     1       7.025   4.814  16.593  0.00  0.00    +0.000 A 
ENDBRANCH  12  14
ENDBRANCH  11  12
ENDBRANCH   7  11
TORSDOF 4
ENDMDL
MODEL 4
REMARK VINA RESULT:      -7.3      2.551      4.421
REMARK  Name = 
REMARK  7 active torsions:
REMARK  status: ('A' for Active; 'I' for Inactive)
REMARK    1  A    between atoms: C_1  and  C_2
REMARK    2  A    between atoms: C_2  and  C_3
REMARK    3  A    between atoms: C_2  and  C_4
REMARK    4  A    between atoms: C_7  and  C_8
REMARK    5  A    between atoms: C_10  and  O_11
REMARK    6  A    between atoms: O_11  and  C_12
REMARK    7  A    between atoms: C_12  and  C_14
REMARK                            x       y       z     vdW  Elec       q    Type
REMARK                         _______ _______ _______ _____ _____    ______ ____
ROOT
ATOM      1  C   UNL     1       6.478   5.098  16.754  0.00  0.00    +0.000 C 
ATOM      2  C   UNL     1       7.212   5.704  15.527  0.00  0.00    +0.000 C 
ATOM      3  C   UNL     1       7.229   4.787  14.307  0.00  0.00    +0.000 C 
ATOM      4  C   UNL     1       5.822   4.337  13.918  0.00  0.00    +0.000 C 
ATOM      5  C   UNL     1       5.873   3.366  12.738  0.00  0.00    +0.000 C 
ATOM      6  C   UNL     1       5.131   3.691  15.118  0.00  0.00    +0.000 C 
ATOM      7  C   UNL     1       5.045   4.629  16.335  0.00  0.00    +0.000 C 
ENDROOT
BRANCH   1   9
ATOM      8  C   UNL     1       7.470   7.288  17.694  0.00  0.00    +0.000 C 
ATOM      9  C   UNL     1       6.508   6.113  17.950  0.00  0.00    +0.000 C 
ATOM     10  C   UNL     1       6.909   5.482  19.286  0.00  0.00    +0.000 C 
ENDBRANCH   1   9
BRANCH   7  11
ATOM     11  O   UNL     1       4.415   3.869  17.404  0.00  0.00    +0.000 OA
BRANCH  11  12
ATOM     12  C   UNL     1       3.055   3.936  17.513  0.00  0.00    +0.000 C 
ATOM     13  O   UNL     1       2.259   3.220  16.931  0.00  0.00    +0.000 OA
BRANCH  12  14
ATOM     14  C   UNL     1       2.636   5.010  18.475  0.00  0.00    +0.000 A 
ATOM     15  C   UNL     1       2.764   6.363  18.099  0.00  0.00    +0.000 A 
ATOM     16  C   UNL     1       2.395   7.392  18.978  0.00  0.00    +0.000 A 
ATOM     17  C   UNL     1       1.887   7.073  20.236  0.00  0.00    +0.000 A 
ATOM     18 CL   UNL     1       1.435   8.329  21.322  0.00  0.00    +0.000 Cl
ATOM     19  C   UNL     1       1.742   5.741  20.618  0.00  0.00    +0.000 A 
ATOM     20  C   UNL     1       2.118   4.712  19.742  0.00  0.00    +0.000 A 
ENDBRANCH  12  14
ENDBRANCH  11  12
ENDBRANCH   7  11
TORSDOF 4
ENDMDL
MODEL 5
REMARK VINA RESULT:      -7.3      2.558      4.316
REMARK  Name = 
REMARK  7 active torsions:
REMARK  status: ('A' for Active; 'I' for Inactive)
REMARK    1  A    between atoms: C_1  and  C_2
REMARK    2  A    between atoms: C_2  and  C_3
REMARK    3  A    between atoms: C_2  and  C_4
REMARK    4  A    between atoms: C_7  and  C_8
REMARK    5  A    between atoms: C_10  and  O_11
REMARK    6  A    between atoms: O_11  and  C_12
REMARK    7  A    between atoms: C_12  and  C_14
REMARK                            x       y       z     vdW  Elec       q    Type
REMARK                         _______ _______ _______ _____ _____    ______ ____
ROOT
ATOM      1  C   UNL     1       6.556   5.027  16.700  0.00  0.00    +0.000 C 
ATOM      2  C   UNL     1       7.280   5.617  15.459  0.00  0.00    +0.000 C 
ATOM      3  C   UNL     1       7.228   4.712  14.230  0.00  0.00    +0.000 C 
ATOM      4  C   UNL     1       5.795   4.322  13.876  0.00  0.00    +0.000 C 
ATOM      5  C   UNL     1       5.777   3.362  12.686  0.00  0.00    +0.000 C 
ATOM      6  C   UNL     1       5.112   3.690  15.088  0.00  0.00    +0.000 C 
ATOM      7  C   UNL     1       5.095   4.617  16.316  0.00  0.00    +0.000 C 
ENDROOT
BRANCH   1   9
ATOM      8  C   UNL     1       7.143   7.422  17.465  0.00  0.00    +0.000 C 
ATOM      9  C   UNL     1       6.657   6.027  17.904  0.00  0.00    +0.000 C 
ATOM     10  C   UNL     1       7.590   5.555  19.023  0.00  0.00    +0.000 C 
ENDBRANCH   1   9
BRANCH   7  11
ATOM     11  O   UNL     1       4.466   3.871  17.395  0.00  0.00    +0.000 OA
BRANCH  11  12
ATOM     12  C   UNL     1       3.107   3.948  17.510  0.00  0.00    +0.000 C 
ATOM     13  O   UNL     1       2.304   3.212  16.962  0.00  0.00    +0.000 OA
BRANCH  12  14
ATOM     14  C   UNL     1       2.698   5.062  18.431  0.00  0.00    +0.000 A 
ATOM     15  C   UNL     1       2.161   4.750  19.697  0.00  0.00    +0.000 A 
ATOM     16  C   UNL     1       1.757   5.765  20.576  0.00  0.00    +0.000 A 
ATOM     17  C   UNL     1       1.895   7.099  20.197  0.00  0.00    +0.000 A 
ATOM     18 CL   UNL     1       1.398   8.351  21.268  0.00  0.00    +0.000 Cl
ATOM     19  C   UNL     1       2.436   7.424  18.955  0.00  0.00    +0.000 A 
ATOM     20  C   UNL     1       2.834   6.409  18.073  0.00  0.00    +0.000 A 
ENDBRANCH  12  14
ENDBRANCH  11  12
ENDBRANCH   7  11
TORSDOF 4
ENDMDL
MODEL 6
REMARK VINA RESULT:      -7.2      1.192      1.330
REMARK  Name = 
REMARK  7 active torsions:
REMARK  status: ('A' for Active; 'I' for Inactive)
REMARK    1  A    between atoms: C_1  and  C_2
REMARK    2  A    between atoms: C_2  and  C_3
REMARK    3  A    between atoms: C_2  and  C_4
REMARK    4  A    between atoms: C_7  and  C_8
REMARK    5  A    between atoms: C_10  and  O_11
REMARK    6  A    between atoms: O_11  and  C_12
REMARK    7  A    between atoms: C_12  and  C_14
REMARK                            x       y       z     vdW  Elec       q    Type
REMARK                         _______ _______ _______ _____ _____    ______ ____
ROOT
ATOM      1  C   UNL     1       3.767   5.043  18.637  0.00  0.00    +0.000 C 
ATOM      2  C   UNL     1       3.543   3.516  18.459  0.00  0.00    +0.000 C 
ATOM      3  C   UNL     1       3.070   2.812  19.729  0.00  0.00    +0.000 C 
ATOM      4  C   UNL     1       1.819   3.470  20.307  0.00  0.00    +0.000 C 
ATOM      5  C   UNL     1       1.408   2.790  21.613  0.00  0.00    +0.000 C 
ATOM      6  C   UNL     1       2.070   4.961  20.532  0.00  0.00    +0.000 C 
ATOM      7  C   UNL     1       2.482   5.698  19.245  0.00  0.00    +0.000 C 
ENDROOT
BRANCH   1   9
ATOM      8  C   UNL     1       4.728   4.611  16.281  0.00  0.00    +0.000 C 
ATOM      9  C   UNL     1       4.243   5.675  17.283  0.00  0.00    +0.000 C 
ATOM     10  C   UNL     1       5.374   6.695  17.442  0.00  0.00    +0.000 C 
ENDBRANCH   1   9
BRANCH   7  11
ATOM     11  O   UNL     1       2.734   7.081  19.619  0.00  0.00    +0.000 OA
BRANCH  11  12
ATOM     12  C   UNL     1       1.989   8.049  19.007  0.00  0.00    +0.000 C 
ATOM     13  O   UNL     1       1.944   8.259  17.807  0.00  0.00    +0.000 OA
BRANCH  12  14
ATOM     14  C   UNL     1       1.191   8.838  20.004  0.00  0.00    +0.000 A 
ATOM     15  C   UNL     1       1.199   8.449  21.359  0.00  0.00    +0.000 A 
ATOM     16  C   UNL     1       0.454   9.155  22.315  0.00  0.00    +0.000 A 
ATOM     17  C   UNL     1      -0.296  10.261  21.922  0.00  0.00    +0.000 A 
ATOM     18 CL   UNL     1      -1.216  11.132  23.088  0.00  0.00    +0.000 Cl
ATOM     19  C   UNL     1      -0.305  10.668  20.590  0.00  0.00    +0.000 A 
ATOM     20  C   UNL     1       0.435   9.957  19.632  0.00  0.00    +0.000 A 
ENDBRANCH  12  14
ENDBRANCH  11  12
ENDBRANCH   7  11
TORSDOF 4
ENDMDL
MODEL 7
REMARK VINA RESULT:      -7.1      4.164      7.303
REMARK  Name = 
REMARK  7 active torsions:
REMARK  status: ('A' for Active; 'I' for Inactive)
REMARK    1  A    between atoms: C_1  and  C_2
REMARK    2  A    between atoms: C_2  and  C_3
REMARK    3  A    between atoms: C_2  and  C_4
REMARK    4  A    between atoms: C_7  and  C_8
REMARK    5  A    between atoms: C_10  and  O_11
REMARK    6  A    between atoms: O_11  and  C_12
REMARK    7  A    between atoms: C_12  and  C_14
REMARK                            x       y       z     vdW  Elec       q    Type
REMARK                         _______ _______ _______ _____ _____    ______ ____
ROOT
ATOM      1  C   UNL     1       2.825   4.417  19.849  0.00  0.00    +0.000 C 
ATOM      2  C   UNL     1       1.907   5.526  20.433  0.00  0.00    +0.000 C 
ATOM      3  C   UNL     1       2.232   6.926  19.917  0.00  0.00    +0.000 C 
ATOM      4  C   UNL     1       2.229   6.981  18.391  0.00  0.00    +0.000 C 
ATOM      5  C   UNL     1       2.624   8.374  17.901  0.00  0.00    +0.000 C 
ATOM      6  C   UNL     1       3.179   5.923  17.830  0.00  0.00    +0.000 C 
ATOM      7  C   UNL     1       2.823   4.497  18.286  0.00  0.00    +0.000 C 
ENDROOT
BRANCH   1   9
ATOM      8  C   UNL     1       1.357   3.141  21.547  0.00  0.00    +0.000 C 
ATOM      9  C   UNL     1       2.411   3.020  20.431  0.00  0.00    +0.000 C 
ATOM     10  C   UNL     1       3.583   2.216  21.001  0.00  0.00    +0.000 C 
ENDBRANCH   1   9
BRANCH   7  11
ATOM     11  O   UNL     1       3.831   3.614  17.721  0.00  0.00    +0.000 OA
BRANCH  11  12
ATOM     12  C   UNL     1       5.141   3.975  17.864  0.00  0.00    +0.000 C 
ATOM     13  O   UNL     1       5.746   4.052  18.919  0.00  0.00    +0.000 OA
BRANCH  12  14
ATOM     14  C   UNL     1       5.779   4.256  16.534  0.00  0.00    +0.000 A 
ATOM     15  C   UNL     1       7.026   4.912  16.490  0.00  0.00    +0.000 A 
ATOM     16  C   UNL     1       7.644   5.202  15.265  0.00  0.00    +0.000 A 
ATOM     17  C   UNL     1       7.021   4.830  14.076  0.00  0.00    +0.000 A 
ATOM     18 CL   UNL     1       7.770   5.186  12.568  0.00  0.00    +0.000 Cl
ATOM     19  C   UNL     1       5.795   4.169  14.101  0.00  0.00    +0.000 A 
ATOM     20  C   UNL     1       5.174   3.885  15.327  0.00  0.00    +0.000 A 
ENDBRANCH  12  14
ENDBRANCH  11  12
ENDBRANCH   7  11
TORSDOF 4
ENDMDL
MODEL 8
REMARK VINA RESULT:      -7.0      0.996      3.372
REMARK  Name = 
REMARK  7 active torsions:
REMARK  status: ('A' for Active; 'I' for Inactive)
REMARK    1  A    between atoms: C_1  and  C_2
REMARK    2  A    between atoms: C_2  and  C_3
REMARK    3  A    between atoms: C_2  and  C_4
REMARK    4  A    between atoms: C_7  and  C_8
REMARK    5  A    between atoms: C_10  and  O_11
REMARK    6  A    between atoms: O_11  and  C_12
REMARK    7  A    between atoms: C_12  and  C_14
REMARK                            x       y       z     vdW  Elec       q    Type
REMARK                         _______ _______ _______ _____ _____    ______ ____
ROOT
ATOM      1  C   UNL     1       2.763   4.865  18.451  0.00  0.00    +0.000 C 
ATOM      2  C   UNL     1       4.049   4.050  18.760  0.00  0.00    +0.000 C 
ATOM      3  C   UNL     1       5.217   4.369  17.830  0.00  0.00    +0.000 C 
ATOM      4  C   UNL     1       5.527   5.864  17.805  0.00  0.00    +0.000 C 
ATOM      5  C   UNL     1       6.653   6.164  16.816  0.00  0.00    +0.000 C 
ATOM      6  C   UNL     1       4.268   6.652  17.444  0.00  0.00    +0.000 C 
ATOM      7  C   UNL     1       3.101   6.393  18.413  0.00  0.00    +0.000 C 
ENDROOT
BRANCH   1   9
ATOM      8  C   UNL     1       2.079   4.597  20.926  0.00  0.00    +0.000 C 
ATOM      9  C   UNL     1       1.626   4.474  19.458  0.00  0.00    +0.000 C 
ATOM     10  C   UNL     1       1.094   3.051  19.267  0.00  0.00    +0.000 C 
ENDBRANCH   1   9
BRANCH   7  11
ATOM     11  O   UNL     1       1.970   7.162  17.919  0.00  0.00    +0.000 OA
BRANCH  11  12
ATOM     12  C   UNL     1       1.991   8.514  18.110  0.00  0.00    +0.000 C 
ATOM     13  O   UNL     1       2.484   9.332  17.352  0.00  0.00    +0.000 OA
BRANCH  12  14
ATOM     14  C   UNL     1       1.300   8.897  19.388  0.00  0.00    +0.000 A 
ATOM     15  C   UNL     1       0.373   9.958  19.382  0.00  0.00    +0.000 A 
ATOM     16  C   UNL     1      -0.280  10.351  20.560  0.00  0.00    +0.000 A 
ATOM     17  C   UNL     1      -0.014   9.677  21.750  0.00  0.00    +0.000 A 
ATOM     18 CL   UNL     1      -0.807  10.154  23.201  0.00  0.00    +0.000 Cl
ATOM     19  C   UNL     1       0.890   8.617  21.771  0.00  0.00    +0.000 A 
ATOM     20  C   UNL     1       1.548   8.230  20.594  0.00  0.00    +0.000 A 
ENDBRANCH  12  14
ENDBRANCH  11  12
ENDBRANCH   7  11
TORSDOF 4
ENDMDL
MODEL 9
REMARK VINA RESULT:      -7.0      1.329      1.776
REMARK  Name = 
REMARK  7 active torsions:
REMARK  status: ('A' for Active; 'I' for Inactive)
REMARK    1  A    between atoms: C_1  and  C_2
REMARK    2  A    between atoms: C_2  and  C_3
REMARK    3  A    between atoms: C_2  and  C_4
REMARK    4  A    between atoms: C_7  and  C_8
REMARK    5  A    between atoms: C_10  and  O_11
REMARK    6  A    between atoms: O_11  and  C_12
REMARK    7  A    between atoms: C_12  and  C_14
REMARK                            x       y       z     vdW  Elec       q    Type
REMARK                         _______ _______ _______ _____ _____    ______ ____
ROOT
ATOM      1  C   UNL     1       4.227   5.086  19.057  0.00  0.00    +0.000 C 
ATOM      2  C   UNL     1       4.147   3.544  18.883  0.00  0.00    +0.000 C 
ATOM      3  C   UNL     1       3.485   2.828  20.057  0.00  0.00    +0.000 C 
ATOM      4  C   UNL     1       2.103   3.401  20.363  0.00  0.00    +0.000 C 
ATOM      5  C   UNL     1       1.493   2.713  21.584  0.00  0.00    +0.000 C 
ATOM      6  C   UNL     1       2.203   4.909  20.589  0.00  0.00    +0.000 C 
ATOM      7  C   UNL     1       2.806   5.656  19.386  0.00  0.00    +0.000 C 
ENDROOT
BRANCH   1   9
ATOM      8  C   UNL     1       4.790   4.845  16.549  0.00  0.00    +0.000 C 
ATOM      9  C   UNL     1       4.913   5.731  17.803  0.00  0.00    +0.000 C 
ATOM     10  C   UNL     1       6.402   6.032  18.000  0.00  0.00    +0.000 C 
ENDBRANCH   1   9
BRANCH   7  11
ATOM     11  O   UNL     1       2.885   7.059  19.761  0.00  0.00    +0.000 OA
BRANCH  11  12
ATOM     12  C   UNL     1       2.053   7.933  19.121  0.00  0.00    +0.000 C 
ATOM     13  O   UNL     1       1.944   8.057  17.914  0.00  0.00    +0.000 OA
BRANCH  12  14
ATOM     14  C   UNL     1       1.249   8.739  20.101  0.00  0.00    +0.000 A 
ATOM     15  C   UNL     1       0.570   9.891  19.656  0.00  0.00    +0.000 A 
ATOM     16  C   UNL     1      -0.179  10.674  20.547  0.00  0.00    +0.000 A 
ATOM     17  C   UNL     1      -0.262  10.302  21.887  0.00  0.00    +0.000 A 
ATOM     18 CL   UNL     1      -1.175  11.259  22.988  0.00  0.00    +0.000 Cl
ATOM     19  C   UNL     1       0.392   9.159  22.341  0.00  0.00    +0.000 A 
ATOM     20  C   UNL     1       1.147   8.380  21.451  0.00  0.00    +0.000 A 
ENDBRANCH  12  14
ENDBRANCH  11  12
ENDBRANCH   7  11
TORSDOF 4
ENDMDL
