MODEL 1
REMARK VINA RESULT:      -7.6      0.000      0.000
REMARK  Name = 
REMARK  4 active torsions:
REMARK  status: ('A' for Active; 'I' for Inactive)
REMARK    1  A    between atoms: N_4  and  N_5
REMARK    2  A    between atoms: C_6  and  C_7
REMARK    3  A    between atoms: C_8  and  C_9
REMARK    4  A    between atoms: C_14  and  N_15
REMARK                            x       y       z     vdW  Elec       q    Type
REMARK                         _______ _______ _______ _____ _____    ______ ____
ROOT
ATOM      1  C   UNL     1       2.911   6.318  18.899  0.00  0.00    +0.000 A 
ATOM      2  C   UNL     1       2.595   7.622  18.507  0.00  0.00    +0.000 A 
ATOM      3  N   UNL     1       3.289   7.998  17.369  0.00  0.00    +0.000 NA
ATOM      4  C   UNL     1       4.034   6.964  17.116  0.00  0.00    +0.000 A 
ATOM      5  S   UNL     1       5.179   6.575  15.873  0.00  0.00    +0.000 S 
ATOM      6  C   UNL     1       5.386   4.997  16.630  0.00  0.00    +0.000 A 
ATOM      7 CL   UNL     1       6.441   3.829  15.976  0.00  0.00    +0.000 Cl
ATOM      8  C   UNL     1       4.633   4.817  17.725  0.00  0.00    +0.000 A 
ATOM      9  N   UNL     1       3.872   5.934  17.995  0.00  0.00    +0.000 N 
ENDROOT
BRANCH   2  10
ATOM     10  C   UNL     1       1.667   8.546  19.143  0.00  0.00    +0.000 A 
ATOM     11  C   UNL     1       1.196   9.640  18.399  0.00  0.00    +0.000 A 
ATOM     12  C   UNL     1       0.361  10.605  18.973  0.00  0.00    +0.000 A 
ATOM     13  C   UNL     1      -0.021  10.496  20.310  0.00  0.00    +0.000 A 
ATOM     14 CL   UNL     1      -0.995  11.759  20.968  0.00  0.00    +0.000 Cl
ATOM     15  C   UNL     1       0.443   9.407  21.049  0.00  0.00    +0.000 A 
ATOM     16  C   UNL     1       1.288   8.435  20.485  0.00  0.00    +0.000 A 
BRANCH  15  17
ATOM     17  N   UNL     1       0.093   9.265  22.445  0.00  0.00    +0.000 N 
ATOM     18  O   UNL     1       0.789   9.870  23.272  0.00  0.00    +0.000 OA
ATOM     19  O   UNL     1      -0.902   8.575  22.706  0.00  0.00    +0.000 OA
ENDBRANCH  15  17
ENDBRANCH   2  10
BRANCH   1  21
ATOM     20  N   UNL     1       1.674   4.440  19.673  0.00  0.00    +0.000 NA
ATOM     21  C   UNL     1       2.352   5.510  19.942  0.00  0.00    +0.000 C 
BRANCH  20  25
ATOM     22  N   UNL     1       3.163   2.517  21.438  0.00  0.00    +0.000 NA
ATOM     23  C   UNL     1       1.909   2.801  21.527  0.00  0.00    +0.000 C 
ATOM     24  N   UNL     1       1.138   2.226  22.482  0.00  0.00    +0.000 N 
ATOM     25  N   UNL     1       1.231   3.713  20.751  0.00  0.00    +0.000 N 
ATOM     26  H   UNL     1       3.418   1.851  22.170  0.00  0.00    +0.000 HD
ATOM     27  H   UNL     1       1.542   1.421  22.946  0.00  0.00    +0.000 HD
ATOM     28  H   UNL     1       0.165   2.075  22.260  0.00  0.00    +0.000 HD
ATOM     29  H   UNL     1       0.220   3.653  20.813  0.00  0.00    +0.000 HD
ENDBRANCH  20  25
ENDBRANCH   1  21
TORSDOF 4
ENDMDL
MODEL 2
REMARK VINA RESULT:      -7.5      3.531      6.549
REMARK  Name = 
REMARK  4 active torsions:
REMARK  status: ('A' for Active; 'I' for Inactive)
REMARK    1  A    between atoms: N_4  and  N_5
REMARK    2  A    between atoms: C_6  and  C_7
REMARK    3  A    between atoms: C_8  and  C_9
REMARK    4  A    between atoms: C_14  and  N_15
REMARK                            x       y       z     vdW  Elec       q    Type
REMARK                         _______ _______ _______ _____ _____    ______ ____
ROOT
ATOM      1  C   UNL     1       2.168   7.349  19.513  0.00  0.00    +0.000 A 
ATOM      2  C   UNL     1       2.807   7.502  18.279  0.00  0.00    +0.000 A 
ATOM      3  N   UNL     1       2.575   8.753  17.732  0.00  0.00    +0.000 NA
ATOM      4  C   UNL     1       1.780   9.315  18.593  0.00  0.00    +0.000 A 
ATOM      5  S   UNL     1       1.027  10.873  18.705  0.00  0.00    +0.000 S 
ATOM      6  C   UNL     1       0.331  10.368  20.243  0.00  0.00    +0.000 A 
ATOM      7 CL   UNL     1      -0.653  11.415  21.161  0.00  0.00    +0.000 Cl
ATOM      8  C   UNL     1       0.665   9.121  20.607  0.00  0.00    +0.000 A 
ATOM      9  N   UNL     1       1.484   8.531  19.668  0.00  0.00    +0.000 N 
ENDROOT
BRANCH   2  10
ATOM     10  C   UNL     1       3.635   6.533  17.575  0.00  0.00    +0.000 A 
ATOM     11  C   UNL     1       3.147   5.226  17.415  0.00  0.00    +0.000 A 
ATOM     12  C   UNL     1       3.922   4.228  16.813  0.00  0.00    +0.000 A 
ATOM     13  C   UNL     1       5.209   4.517  16.361  0.00  0.00    +0.000 A 
ATOM     14 CL   UNL     1       6.131   3.221  15.693  0.00  0.00    +0.000 Cl
ATOM     15  C   UNL     1       5.693   5.817  16.516  0.00  0.00    +0.000 A 
ATOM     16  C   UNL     1       4.926   6.827  17.125  0.00  0.00    +0.000 A 
BRANCH  15  17
ATOM     17  N   UNL     1       7.031   6.158  16.083  0.00  0.00    +0.000 N 
ATOM     18  O   UNL     1       7.695   6.904  16.814  0.00  0.00    +0.000 OA
ATOM     19  O   UNL     1       7.424   5.646  15.026  0.00  0.00    +0.000 OA
ENDBRANCH  15  17
ENDBRANCH   2  10
BRANCH   1  21
ATOM     20  N   UNL     1       1.419   5.265  20.378  0.00  0.00    +0.000 NA
ATOM     21  C   UNL     1       2.231   6.270  20.454  0.00  0.00    +0.000 C 
BRANCH  20  25
ATOM     22  N   UNL     1       1.699   2.302  19.964  0.00  0.00    +0.000 NA
ATOM     23  C   UNL     1       1.689   2.903  21.104  0.00  0.00    +0.000 C 
ATOM     24  N   UNL     1       1.820   2.200  22.255  0.00  0.00    +0.000 N 
ATOM     25  N   UNL     1       1.605   4.262  21.299  0.00  0.00    +0.000 N 
ATOM     26  H   UNL     1       1.827   1.298  20.105  0.00  0.00    +0.000 HD
ATOM     27  H   UNL     1       1.695   1.198  22.173  0.00  0.00    +0.000 HD
ATOM     28  H   UNL     1       1.355   2.565  23.074  0.00  0.00    +0.000 HD
ATOM     29  H   UNL     1       1.395   4.542  22.252  0.00  0.00    +0.000 HD
ENDBRANCH  20  25
ENDBRANCH   1  21
TORSDOF 4
ENDMDL
MODEL 3
REMARK VINA RESULT:      -7.4      1.749      1.994
REMARK  Name = 
REMARK  4 active torsions:
REMARK  status: ('A' for Active; 'I' for Inactive)
REMARK    1  A    between atoms: N_4  and  N_5
REMARK    2  A    between atoms: C_6  and  C_7
REMARK    3  A    between atoms: C_8  and  C_9
REMARK    4  A    between atoms: C_14  and  N_15
REMARK                            x       y       z     vdW  Elec       q    Type
REMARK                         _______ _______ _______ _____ _____    ______ ____
ROOT
ATOM      1  C   UNL     1       2.753   6.216  19.085  0.00  0.00    +0.000 A 
ATOM      2  C   UNL     1       2.545   7.565  18.785  0.00  0.00    +0.000 A 
ATOM      3  N   UNL     1       3.260   7.959  17.666  0.00  0.00    +0.000 NA
ATOM      4  C   UNL     1       3.914   6.886  17.335  0.00  0.00    +0.000 A 
ATOM      5  S   UNL     1       5.015   6.488  16.056  0.00  0.00    +0.000 S 
ATOM      6  C   UNL     1       5.094   4.851  16.703  0.00  0.00    +0.000 A 
ATOM      7 CL   UNL     1       6.043   3.645  15.961  0.00  0.00    +0.000 Cl
ATOM      8  C   UNL     1       4.336   4.661  17.793  0.00  0.00    +0.000 A 
ATOM      9  N   UNL     1       3.673   5.816  18.146  0.00  0.00    +0.000 N 
ENDROOT
BRANCH   2  10
ATOM     10  C   UNL     1       1.702   8.518  19.492  0.00  0.00    +0.000 A 
ATOM     11  C   UNL     1       1.469   8.318  20.863  0.00  0.00    +0.000 A 
ATOM     12  C   UNL     1       0.611   9.155  21.585  0.00  0.00    +0.000 A 
ATOM     13  C   UNL     1      -0.038  10.212  20.948  0.00  0.00    +0.000 A 
ATOM     14 CL   UNL     1      -1.134  11.159  21.886  0.00  0.00    +0.000 Cl
ATOM     15  C   UNL     1       0.196  10.414  19.588  0.00  0.00    +0.000 A 
ATOM     16  C   UNL     1       1.051   9.576  18.849  0.00  0.00    +0.000 A 
BRANCH  15  17
ATOM     17  N   UNL     1      -0.473  11.483  18.879  0.00  0.00    +0.000 N 
ATOM     18  O   UNL     1       0.089  12.586  18.845  0.00  0.00    +0.000 OA
ATOM     19  O   UNL     1      -1.547  11.204  18.329  0.00  0.00    +0.000 OA
ENDBRANCH  15  17
ENDBRANCH   2  10
BRANCH   1  21
ATOM     20  N   UNL     1       1.475   4.325  19.751  0.00  0.00    +0.000 NA
ATOM     21  C   UNL     1       2.135   5.389  20.079  0.00  0.00    +0.000 C 
BRANCH  20  25
ATOM     22  N   UNL     1       2.907   2.601  21.753  0.00  0.00    +0.000 NA
ATOM     23  C   UNL     1       1.630   2.756  21.674  0.00  0.00    +0.000 C 
ATOM     24  N   UNL     1       0.803   2.125  22.542  0.00  0.00    +0.000 N 
ATOM     25  N   UNL     1       0.970   3.578  20.788  0.00  0.00    +0.000 N 
ATOM     26  H   UNL     1       3.130   1.979  22.533  0.00  0.00    +0.000 HD
ATOM     27  H   UNL     1       1.222   1.375  23.079  0.00  0.00    +0.000 HD
ATOM     28  H   UNL     1      -0.114   1.870  22.203  0.00  0.00    +0.000 HD
ATOM     29  H   UNL     1      -0.029   3.416  20.723  0.00  0.00    +0.000 HD
ENDBRANCH  20  25
ENDBRANCH   1  21
TORSDOF 4
ENDMDL
MODEL 4
REMARK VINA RESULT:      -7.3      3.253      6.293
REMARK  Name = 
REMARK  4 active torsions:
REMARK  status: ('A' for Active; 'I' for Inactive)
REMARK    1  A    between atoms: N_4  and  N_5
REMARK    2  A    between atoms: C_6  and  C_7
REMARK    3  A    between atoms: C_8  and  C_9
REMARK    4  A    between atoms: C_14  and  N_15
REMARK                            x       y       z     vdW  Elec       q    Type
REMARK                         _______ _______ _______ _____ _____    ______ ____
ROOT
ATOM      1  C   UNL     1       2.194   7.745  19.305  0.00  0.00    +0.000 A 
ATOM      2  C   UNL     1       2.959   8.002  18.163  0.00  0.00    +0.000 A 
ATOM      3  N   UNL     1       2.646   9.228  17.601  0.00  0.00    +0.000 NA
ATOM      4  C   UNL     1       1.688   9.671  18.359  0.00  0.00    +0.000 A 
ATOM      5  S   UNL     1       0.744  11.125  18.388  0.00  0.00    +0.000 S 
ATOM      6  C   UNL     1      -0.071  10.505  19.822  0.00  0.00    +0.000 A 
ATOM      7 CL   UNL     1      -1.282  11.405  20.616  0.00  0.00    +0.000 Cl
ATOM      8  C   UNL     1       0.363   9.298  20.215  0.00  0.00    +0.000 A 
ATOM      9  N   UNL     1       1.358   8.832  19.383  0.00  0.00    +0.000 N 
ENDROOT
BRANCH   2  10
ATOM     10  C   UNL     1       3.980   7.155  17.562  0.00  0.00    +0.000 A 
ATOM     11  C   UNL     1       4.181   7.232  16.174  0.00  0.00    +0.000 A 
ATOM     12  C   UNL     1       5.095   6.394  15.525  0.00  0.00    +0.000 A 
ATOM     13  C   UNL     1       5.827   5.456  16.252  0.00  0.00    +0.000 A 
ATOM     14 CL   UNL     1       6.883   4.411  15.374  0.00  0.00    +0.000 Cl
ATOM     15  C   UNL     1       5.630   5.382  17.631  0.00  0.00    +0.000 A 
ATOM     16  C   UNL     1       4.710   6.214  18.295  0.00  0.00    +0.000 A 
BRANCH  15  17
ATOM     17  N   UNL     1       6.349   4.409  18.424  0.00  0.00    +0.000 N 
ATOM     18  O   UNL     1       7.586   4.449  18.393  0.00  0.00    +0.000 OA
ATOM     19  O   UNL     1       5.669   3.627  19.102  0.00  0.00    +0.000 OA
ENDBRANCH  15  17
ENDBRANCH   2  10
BRANCH   1  21
ATOM     20  N   UNL     1       1.733   5.511  19.977  0.00  0.00    +0.000 NA
ATOM     21  C   UNL     1       2.270   6.660  20.238  0.00  0.00    +0.000 C 
BRANCH  20  25
ATOM     22  N   UNL     1       0.537   2.759  20.136  0.00  0.00    +0.000 NA
ATOM     23  C   UNL     1       1.328   3.285  21.007  0.00  0.00    +0.000 C 
ATOM     24  N   UNL     1       1.700   2.590  22.109  0.00  0.00    +0.000 N 
ATOM     25  N   UNL     1       1.914   4.527  20.919  0.00  0.00    +0.000 N 
ATOM     26  H   UNL     1       0.294   1.808  20.422  0.00  0.00    +0.000 HD
ATOM     27  H   UNL     1       1.155   1.760  22.309  0.00  0.00    +0.000 HD
ATOM     28  H   UNL     1       1.888   3.120  22.947  0.00  0.00    +0.000 HD
ATOM     29  H   UNL     1       2.328   4.863  21.783  0.00  0.00    +0.000 HD
ENDBRANCH  20  25
ENDBRANCH   1  21
TORSDOF 4
ENDMDL
MODEL 5
REMARK VINA RESULT:      -7.3      6.095      8.605
REMARK  Name = 
REMARK  4 active torsions:
REMARK  status: ('A' for Active; 'I' for Inactive)
REMARK    1  A    between atoms: N_4  and  N_5
REMARK    2  A    between atoms: C_6  and  C_7
REMARK    3  A    between atoms: C_8  and  C_9
REMARK    4  A    between atoms: C_14  and  N_15
REMARK                            x       y       z     vdW  Elec       q    Type
REMARK                         _______ _______ _______ _____ _____    ______ ____
ROOT
ATOM      1  C   UNL     1       4.861   4.367  18.221  0.00  0.00    +0.000 A 
ATOM      2  C   UNL     1       4.701   3.786  16.959  0.00  0.00    +0.000 A 
ATOM      3  N   UNL     1       3.651   2.883  16.939  0.00  0.00    +0.000 NA
ATOM      4  C   UNL     1       3.226   2.890  18.167  0.00  0.00    +0.000 A 
ATOM      5  S   UNL     1       1.942   2.080  19.005  0.00  0.00    +0.000 S 
ATOM      6  C   UNL     1       2.411   2.953  20.461  0.00  0.00    +0.000 A 
ATOM      7 CL   UNL     1       1.570   2.751  21.930  0.00  0.00    +0.000 Cl
ATOM      8  C   UNL     1       3.454   3.779  20.287  0.00  0.00    +0.000 A 
ATOM      9  N   UNL     1       3.910   3.737  18.987  0.00  0.00    +0.000 N 
ENDROOT
BRANCH   2  10
ATOM     10  C   UNL     1       5.483   4.033  15.756  0.00  0.00    +0.000 A 
ATOM     11  C   UNL     1       6.539   4.958  15.822  0.00  0.00    +0.000 A 
ATOM     12  C   UNL     1       7.282   5.294  14.686  0.00  0.00    +0.000 A 
ATOM     13  C   UNL     1       6.983   4.714  13.454  0.00  0.00    +0.000 A 
ATOM     14 CL   UNL     1       7.897   5.229  12.084  0.00  0.00    +0.000 Cl
ATOM     15  C   UNL     1       5.937   3.792  13.389  0.00  0.00    +0.000 A 
ATOM     16  C   UNL     1       5.178   3.450  14.522  0.00  0.00    +0.000 A 
BRANCH  15  17
ATOM     17  N   UNL     1       5.575   3.182  12.128  0.00  0.00    +0.000 N 
ATOM     18  O   UNL     1       6.321   2.299  11.685  0.00  0.00    +0.000 OA
ATOM     19  O   UNL     1       4.522   3.568  11.602  0.00  0.00    +0.000 OA
ENDBRANCH  15  17
ENDBRANCH   2  10
BRANCH   1  21
ATOM     20  N   UNL     1       7.010   5.202  18.803  0.00  0.00    +0.000 NA
ATOM     21  C   UNL     1       5.742   5.413  18.647  0.00  0.00    +0.000 C 
BRANCH  20  25
ATOM     22  N   UNL     1       7.586   7.729  17.282  0.00  0.00    +0.000 NA
ATOM     23  C   UNL     1       8.063   7.425  18.440  0.00  0.00    +0.000 C 
ATOM     24  N   UNL     1       8.894   8.276  19.089  0.00  0.00    +0.000 N 
ATOM     25  N   UNL     1       7.769   6.290  19.161  0.00  0.00    +0.000 N 
ATOM     26  H   UNL     1       7.925   8.652  17.002  0.00  0.00    +0.000 HD
ATOM     27  H   UNL     1       9.283   9.023  18.526  0.00  0.00    +0.000 HD
ATOM     28  H   UNL     1       9.591   7.867  19.694  0.00  0.00    +0.000 HD
ATOM     29  H   UNL     1       8.390   6.112  19.944  0.00  0.00    +0.000 HD
ENDBRANCH  20  25
ENDBRANCH   1  21
TORSDOF 4
ENDMDL
MODEL 6
REMARK VINA RESULT:      -7.2      3.166      6.227
REMARK  Name = 
REMARK  4 active torsions:
REMARK  status: ('A' for Active; 'I' for Inactive)
REMARK    1  A    between atoms: N_4  and  N_5
REMARK    2  A    between atoms: C_6  and  C_7
REMARK    3  A    between atoms: C_8  and  C_9
REMARK    4  A    between atoms: C_14  and  N_15
REMARK                            x       y       z     vdW  Elec       q    Type
REMARK                         _______ _______ _______ _____ _____    ______ ____
ROOT
ATOM      1  C   UNL     1       1.918   7.712  19.569  0.00  0.00    +0.000 A 
ATOM      2  C   UNL     1       2.669   7.847  18.398  0.00  0.00    +0.000 A 
ATOM      3  N   UNL     1       2.483   9.086  17.808  0.00  0.00    +0.000 NA
ATOM      4  C   UNL     1       1.610   9.658  18.581  0.00  0.00    +0.000 A 
ATOM      5  S   UNL     1       0.843  11.214  18.594  0.00  0.00    +0.000 S 
ATOM      6  C   UNL     1       0.009  10.732  20.070  0.00  0.00    +0.000 A 
ATOM      7 CL   UNL     1      -1.061  11.790  20.873  0.00  0.00    +0.000 Cl
ATOM      8  C   UNL     1       0.313   9.494  20.486  0.00  0.00    +0.000 A 
ATOM      9  N   UNL     1       1.218   8.892  19.639  0.00  0.00    +0.000 N 
ENDROOT
BRANCH   2  10
ATOM     10  C   UNL     1       3.563   6.870  17.792  0.00  0.00    +0.000 A 
ATOM     11  C   UNL     1       4.297   7.248  16.656  0.00  0.00    +0.000 A 
ATOM     12  C   UNL     1       5.118   6.336  15.984  0.00  0.00    +0.000 A 
ATOM     13  C   UNL     1       5.221   5.020  16.434  0.00  0.00    +0.000 A 
ATOM     14 CL   UNL     1       6.197   3.935  15.514  0.00  0.00    +0.000 Cl
ATOM     15  C   UNL     1       4.495   4.645  17.565  0.00  0.00    +0.000 A 
ATOM     16  C   UNL     1       3.661   5.551  18.246  0.00  0.00    +0.000 A 
BRANCH  15  17
ATOM     17  N   UNL     1       4.551   3.285  18.055  0.00  0.00    +0.000 N 
ATOM     18  O   UNL     1       5.207   3.075  19.084  0.00  0.00    +0.000 OA
ATOM     19  O   UNL     1       3.908   2.436  17.423  0.00  0.00    +0.000 OA
ENDBRANCH  15  17
ENDBRANCH   2  10
BRANCH   1  21
ATOM     20  N   UNL     1       1.460   5.472  20.223  0.00  0.00    +0.000 NA
ATOM     21  C   UNL     1       1.897   6.651  20.531  0.00  0.00    +0.000 C 
BRANCH  20  25
ATOM     22  N   UNL     1       2.084   2.540  20.012  0.00  0.00    +0.000 NA
ATOM     23  C   UNL     1       1.780   3.167  21.097  0.00  0.00    +0.000 C 
ATOM     24  N   UNL     1       1.729   2.511  22.281  0.00  0.00    +0.000 N 
ATOM     25  N   UNL     1       1.537   4.517  21.207  0.00  0.00    +0.000 N 
ATOM     26  H   UNL     1       2.269   1.558  20.223  0.00  0.00    +0.000 HD
ATOM     27  H   UNL     1       1.714   1.500  22.221  0.00  0.00    +0.000 HD
ATOM     28  H   UNL     1       1.072   2.851  22.968  0.00  0.00    +0.000 HD
ATOM     29  H   UNL     1       1.107   4.800  22.082  0.00  0.00    +0.000 HD
ENDBRANCH  20  25
ENDBRANCH   1  21
TORSDOF 4
ENDMDL
MODEL 7
REMARK VINA RESULT:      -7.2      5.016      8.313
REMARK  Name = 
REMARK  4 active torsions:
REMARK  status: ('A' for Active; 'I' for Inactive)
REMARK    1  A    between atoms: N_4  and  N_5
REMARK    2  A    between atoms: C_6  and  C_7
REMARK    3  A    between atoms: C_8  and  C_9
REMARK    4  A    between atoms: C_14  and  N_15
REMARK                            x       y       z     vdW  Elec       q    Type
REMARK                         _______ _______ _______ _____ _____    ______ ____
ROOT
ATOM      1  C   UNL     1       3.958   4.899  17.997  0.00  0.00    +0.000 A 
ATOM      2  C   UNL     1       4.562   3.973  17.142  0.00  0.00    +0.000 A 
ATOM      3  N   UNL     1       4.247   2.670  17.491  0.00  0.00    +0.000 NA
ATOM      4  C   UNL     1       3.513   2.813  18.553  0.00  0.00    +0.000 A 
ATOM      5  S   UNL     1       2.686   1.712  19.607  0.00  0.00    +0.000 S 
ATOM      6  C   UNL     1       2.098   3.104  20.514  0.00  0.00    +0.000 A 
ATOM      7 CL   UNL     1       1.077   2.917  21.867  0.00  0.00    +0.000 Cl
ATOM      8  C   UNL     1       2.513   4.283  20.028  0.00  0.00    +0.000 A 
ATOM      9  N   UNL     1       3.314   4.111  18.920  0.00  0.00    +0.000 N 
ENDROOT
BRANCH   2  10
ATOM     10  C   UNL     1       5.426   4.241  16.001  0.00  0.00    +0.000 A 
ATOM     11  C   UNL     1       6.452   5.190  16.147  0.00  0.00    +0.000 A 
ATOM     12  C   UNL     1       7.271   5.547  15.070  0.00  0.00    +0.000 A 
ATOM     13  C   UNL     1       7.078   4.963  13.818  0.00  0.00    +0.000 A 
ATOM     14 CL   UNL     1       8.080   5.503  12.522  0.00  0.00    +0.000 Cl
ATOM     15  C   UNL     1       6.062   4.018  13.674  0.00  0.00    +0.000 A 
ATOM     16  C   UNL     1       5.228   3.655  14.747  0.00  0.00    +0.000 A 
BRANCH  15  17
ATOM     17  N   UNL     1       5.809   3.403  12.389  0.00  0.00    +0.000 N 
ATOM     18  O   UNL     1       6.728   2.749  11.878  0.00  0.00    +0.000 OA
ATOM     19  O   UNL     1       4.676   3.551  11.911  0.00  0.00    +0.000 OA
ENDBRANCH  15  17
ENDBRANCH   2  10
BRANCH   1  21
ATOM     20  N   UNL     1       2.816   6.978  17.833  0.00  0.00    +0.000 NA
ATOM     21  C   UNL     1       3.932   6.330  17.932  0.00  0.00    +0.000 C 
BRANCH  20  25
ATOM     22  N   UNL     1       0.640   9.047  17.962  0.00  0.00    +0.000 NA
ATOM     23  C   UNL     1       1.901   9.290  17.849  0.00  0.00    +0.000 C 
ATOM     24  N   UNL     1       2.355  10.564  17.786  0.00  0.00    +0.000 N 
ATOM     25  N   UNL     1       2.906   8.349  17.834  0.00  0.00    +0.000 N 
ATOM     26  H   UNL     1       0.123   9.928  18.003  0.00  0.00    +0.000 HD
ATOM     27  H   UNL     1       1.653  11.272  17.605  0.00  0.00    +0.000 HD
ATOM     28  H   UNL     1       3.193  10.730  17.248  0.00  0.00    +0.000 HD
ATOM     29  H   UNL     1       3.808   8.697  17.525  0.00  0.00    +0.000 HD
ENDBRANCH  20  25
ENDBRANCH   1  21
TORSDOF 4
ENDMDL
MODEL 8
REMARK VINA RESULT:      -7.1      4.311      8.016
REMARK  Name = 
REMARK  4 active torsions:
REMARK  status: ('A' for Active; 'I' for Inactive)
REMARK    1  A    between atoms: N_4  and  N_5
REMARK    2  A    between atoms: C_6  and  C_7
REMARK    3  A    between atoms: C_8  and  C_9
REMARK    4  A    between atoms: C_14  and  N_15
REMARK                            x       y       z     vdW  Elec       q    Type
REMARK                         _______ _______ _______ _____ _____    ______ ____
ROOT
ATOM      1  C   UNL     1      -0.491  10.379  19.208  0.00  0.00    +0.000 A 
ATOM      2  C   UNL     1       0.531   9.691  19.868  0.00  0.00    +0.000 A 
ATOM      3  N   UNL     1       0.577  10.008  21.215  0.00  0.00    +0.000 NA
ATOM      4  C   UNL     1      -0.361  10.897  21.347  0.00  0.00    +0.000 A 
ATOM      5  S   UNL     1      -0.994  11.797  22.687  0.00  0.00    +0.000 S 
ATOM      6  C   UNL     1      -2.157  12.525  21.582  0.00  0.00    +0.000 A 
ATOM      7 CL   UNL     1      -3.316  13.651  22.126  0.00  0.00    +0.000 Cl
ATOM      8  C   UNL     1      -2.045  12.097  20.316  0.00  0.00    +0.000 A 
ATOM      9  N   UNL     1      -1.027  11.177  20.190  0.00  0.00    +0.000 N 
ENDROOT
BRANCH   2  10
ATOM     10  C   UNL     1       1.476   8.739  19.303  0.00  0.00    +0.000 A 
ATOM     11  C   UNL     1       2.151   9.087  18.120  0.00  0.00    +0.000 A 
ATOM     12  C   UNL     1       3.018   8.190  17.486  0.00  0.00    +0.000 A 
ATOM     13  C   UNL     1       3.226   6.919  18.021  0.00  0.00    +0.000 A 
ATOM     14 CL   UNL     1       4.253   5.842  17.148  0.00  0.00    +0.000 Cl
ATOM     15  C   UNL     1       2.560   6.574  19.198  0.00  0.00    +0.000 A 
ATOM     16  C   UNL     1       1.681   7.465  19.841  0.00  0.00    +0.000 A 
BRANCH  15  17
ATOM     17  N   UNL     1       2.726   5.259  19.777  0.00  0.00    +0.000 N 
ATOM     18  O   UNL     1       1.727   4.529  19.832  0.00  0.00    +0.000 OA
ATOM     19  O   UNL     1       3.868   4.949  20.143  0.00  0.00    +0.000 OA
ENDBRANCH  15  17
ENDBRANCH   2  10
BRANCH   1  21
ATOM     20  N   UNL     1      -2.118   9.778  17.581  0.00  0.00    +0.000 NA
ATOM     21  C   UNL     1      -0.951  10.268  17.856  0.00  0.00    +0.000 C 
BRANCH  20  25
ATOM     22  N   UNL     1      -3.939  11.630  16.070  0.00  0.00    +0.000 NA
ATOM     23  C   UNL     1      -3.346  10.595  15.580  0.00  0.00    +0.000 C 
ATOM     24  N   UNL     1      -3.507  10.261  14.277  0.00  0.00    +0.000 N 
ATOM     25  N   UNL     1      -2.477   9.769  16.255  0.00  0.00    +0.000 N 
ATOM     26  H   UNL     1      -4.481  12.094  15.338  0.00  0.00    +0.000 HD
ATOM     27  H   UNL     1      -4.273  10.720  13.798  0.00  0.00    +0.000 HD
ATOM     28  H   UNL     1      -3.459   9.280  14.044  0.00  0.00    +0.000 HD
ATOM     29  H   UNL     1      -2.275   8.892  15.786  0.00  0.00    +0.000 HD
ENDBRANCH  20  25
ENDBRANCH   1  21
TORSDOF 4
ENDMDL
MODEL 9
REMARK VINA RESULT:      -6.9      4.079      7.797
REMARK  Name = 
REMARK  4 active torsions:
REMARK  status: ('A' for Active; 'I' for Inactive)
REMARK    1  A    between atoms: N_4  and  N_5
REMARK    2  A    between atoms: C_6  and  C_7
REMARK    3  A    between atoms: C_8  and  C_9
REMARK    4  A    between atoms: C_14  and  N_15
REMARK                            x       y       z     vdW  Elec       q    Type
REMARK                         _______ _______ _______ _____ _____    ______ ____
ROOT
ATOM      1  C   UNL     1       0.434   9.395  19.742  0.00  0.00    +0.000 A 
ATOM      2  C   UNL     1       1.403   8.470  20.141  0.00  0.00    +0.000 A 
ATOM      3  N   UNL     1       1.473   8.364  21.521  0.00  0.00    +0.000 NA
ATOM      4  C   UNL     1       0.604   9.237  21.934  0.00  0.00    +0.000 A 
ATOM      5  S   UNL     1       0.041   9.735  23.496  0.00  0.00    +0.000 S 
ATOM      6  C   UNL     1      -1.066  10.842  22.687  0.00  0.00    +0.000 A 
ATOM      7 CL   UNL     1      -2.138  11.831  23.569  0.00  0.00    +0.000 Cl
ATOM      8  C   UNL     1      -0.987  10.807  21.349  0.00  0.00    +0.000 A 
ATOM      9  N   UNL     1      -0.040   9.897  20.930  0.00  0.00    +0.000 N 
ENDROOT
BRANCH   2  10
ATOM     10  C   UNL     1       2.274   7.667  19.296  0.00  0.00    +0.000 A 
ATOM     11  C   UNL     1       2.801   8.251  18.131  0.00  0.00    +0.000 A 
ATOM     12  C   UNL     1       3.586   7.513  17.239  0.00  0.00    +0.000 A 
ATOM     13  C   UNL     1       3.859   6.169  17.490  0.00  0.00    +0.000 A 
ATOM     14 CL   UNL     1       4.775   5.305  16.311  0.00  0.00    +0.000 Cl
ATOM     15  C   UNL     1       3.341   5.590  18.649  0.00  0.00    +0.000 A 
ATOM     16  C   UNL     1       2.545   6.319  19.551  0.00  0.00    +0.000 A 
BRANCH  15  17
ATOM     17  N   UNL     1       3.578   4.193  18.940  0.00  0.00    +0.000 N 
ATOM     18  O   UNL     1       4.675   3.889  19.428  0.00  0.00    +0.000 OA
ATOM     19  O   UNL     1       2.648   3.407  18.709  0.00  0.00    +0.000 OA
ENDBRANCH  15  17
ENDBRANCH   2  10
BRANCH   1  21
ATOM     20  N   UNL     1      -1.297   9.852  18.177  0.00  0.00    +0.000 NA
ATOM     21  C   UNL     1      -0.034   9.728  18.429  0.00  0.00    +0.000 C 
BRANCH  20  25
ATOM     22  N   UNL     1      -3.409  11.764  17.220  0.00  0.00    +0.000 NA
ATOM     23  C   UNL     1      -2.628  11.070  16.466  0.00  0.00    +0.000 C 
ATOM     24  N   UNL     1      -2.704  11.169  15.117  0.00  0.00    +0.000 N 
ATOM     25  N   UNL     1      -1.629  10.226  16.898  0.00  0.00    +0.000 N 
ATOM     26  H   UNL     1      -4.017  12.346  16.641  0.00  0.00    +0.000 HD
ATOM     27  H   UNL     1      -3.535  11.624  14.758  0.00  0.00    +0.000 HD
ATOM     28  H   UNL     1      -2.472  10.346  14.580  0.00  0.00    +0.000 HD
ATOM     29  H   UNL     1      -1.262   9.605  16.185  0.00  0.00    +0.000 HD
ENDBRANCH  20  25
ENDBRANCH   1  21
TORSDOF 4
ENDMDL
