MODEL 1
REMARK VINA RESULT:      -8.2      0.000      0.000
REMARK  Name = 
REMARK  10 active torsions:
REMARK  status: ('A' for Active; 'I' for Inactive)
REMARK    1  A    between atoms: C_1  and  O_2
REMARK    2  A    between atoms: O_2  and  C_3
REMARK    3  A    between atoms: C_3  and  C_5
REMARK    4  A    between atoms: C_8  and  N_9
REMARK    5  A    between atoms: N_9  and  S_10
REMARK    6  A    between atoms: S_10  and  C_13
REMARK    7  A    between atoms: C_16  and  N_17
REMARK    8  A    between atoms: C_18  and  C_19
REMARK    9  A    between atoms: C_25  and  O_26
REMARK   10  A    between atoms: O_26  and  C_27
REMARK                            x       y       z     vdW  Elec       q    Type
REMARK                         _______ _______ _______ _____ _____    ______ ____
ROOT
ATOM      1  S   UNL     1       2.542   2.932  18.114  0.00  0.00    +0.000 S 
ATOM      2  O   UNL     1       2.109   3.134  16.749  0.00  0.00    +0.000 OA
ATOM      3  O   UNL     1       1.948   1.902  18.942  0.00  0.00    +0.000 OA
ENDROOT
BRANCH   1   4
ATOM      4  C   UNL     1       2.368   4.502  18.938  0.00  0.00    +0.000 A 
ATOM      5  C   UNL     1       1.991   4.532  20.280  0.00  0.00    +0.000 A 
ATOM      6  C   UNL     1       1.706   5.755  20.901  0.00  0.00    +0.000 A 
ATOM      7  C   UNL     1       1.780   6.959  20.194  0.00  0.00    +0.000 A 
ATOM      8  C   UNL     1       2.164   6.909  18.838  0.00  0.00    +0.000 A 
ATOM      9 CL   UNL     1       2.223   8.351  17.880  0.00  0.00    +0.000 Cl
ATOM     10  C   UNL     1       2.463   5.691  18.210  0.00  0.00    +0.000 A 
BRANCH   7  11
ATOM     11  N   UNL     1       1.504   8.213  20.802  0.00  0.00    +0.000 N 
ATOM     12  C   UNL     1       0.372   8.555  21.517  0.00  0.00    +0.000 C 
ATOM     13  C   UNL     1       0.460   9.907  22.180  0.00  0.00    +0.000 C 
ATOM     14  O   UNL     1      -0.648   7.884  21.621  0.00  0.00    +0.000 OA
ATOM     15  H   UNL     1       2.184   8.949  20.615  0.00  0.00    +0.000 HD
ENDBRANCH   7  11
ENDBRANCH   1   4
BRANCH   1  16
ATOM     16  N   UNL     1       4.206   2.684  18.035  0.00  0.00    +0.000 N 
ATOM     17  H   UNL     1       4.481   1.862  18.574  0.00  0.00    +0.000 HD
BRANCH  16  21
ATOM     18  C   UNL     1       6.913   5.935  18.033  0.00  0.00    +0.000 A 
ATOM     19  C   UNL     1       6.286   5.523  19.230  0.00  0.00    +0.000 A 
ATOM     20  C   UNL     1       5.372   4.465  19.251  0.00  0.00    +0.000 A 
ATOM     21  C   UNL     1       5.077   3.804  18.069  0.00  0.00    +0.000 A 
ATOM     22  C   UNL     1       5.672   4.203  16.875  0.00  0.00    +0.000 A 
ATOM     23  C   UNL     1       6.582   5.273  16.833  0.00  0.00    +0.000 A 
BRANCH  18  24
ATOM     24  C   UNL     1       7.889   7.063  18.187  0.00  0.00    +0.000 C 
ATOM     25  O   UNL     1       8.748   7.056  19.060  0.00  0.00    +0.000 OA
BRANCH  24  27
ATOM     26  C   UNL     1       8.081   9.353  17.746  0.00  0.00    +0.000 C 
ATOM     27  O   UNL     1       7.732   8.050  17.275  0.00  0.00    +0.000 OA
ENDBRANCH  24  27
ENDBRANCH  18  24
BRANCH  23  28
ATOM     28  O   UNL     1       7.191   5.642  15.661  0.00  0.00    +0.000 OA
ATOM     29  C   UNL     1       6.882   4.865  14.504  0.00  0.00    +0.000 C 
ENDBRANCH  23  28
ENDBRANCH  16  21
ENDBRANCH   1  16
TORSDOF 7
ENDMDL
MODEL 2
REMARK VINA RESULT:      -8.0      2.182      3.489
REMARK  Name = 
REMARK  10 active torsions:
REMARK  status: ('A' for Active; 'I' for Inactive)
REMARK    1  A    between atoms: C_1  and  O_2
REMARK    2  A    between atoms: O_2  and  C_3
REMARK    3  A    between atoms: C_3  and  C_5
REMARK    4  A    between atoms: C_8  and  N_9
REMARK    5  A    between atoms: N_9  and  S_10
REMARK    6  A    between atoms: S_10  and  C_13
REMARK    7  A    between atoms: C_16  and  N_17
REMARK    8  A    between atoms: C_18  and  C_19
REMARK    9  A    between atoms: C_25  and  O_26
REMARK   10  A    between atoms: O_26  and  C_27
REMARK                            x       y       z     vdW  Elec       q    Type
REMARK                         _______ _______ _______ _____ _____    ______ ____
ROOT
ATOM      1  S   UNL     1       2.872   4.474  19.669  0.00  0.00    +0.000 S 
ATOM      2  O   UNL     1       2.467   3.737  18.493  0.00  0.00    +0.000 OA
ATOM      3  O   UNL     1       2.504   4.025  20.997  0.00  0.00    +0.000 OA
ENDROOT
BRANCH   1   4
ATOM      4  C   UNL     1       2.291   6.143  19.446  0.00  0.00    +0.000 A 
ATOM      5  C   UNL     1       2.440   6.759  18.204  0.00  0.00    +0.000 A 
ATOM      6  C   UNL     1       2.126   8.115  18.051  0.00  0.00    +0.000 A 
ATOM      7  C   UNL     1       1.674   8.878  19.132  0.00  0.00    +0.000 A 
ATOM      8  C   UNL     1       1.529   8.239  20.380  0.00  0.00    +0.000 A 
ATOM      9 CL   UNL     1       1.029   9.129  21.779  0.00  0.00    +0.000 Cl
ATOM     10  C   UNL     1       1.829   6.878  20.541  0.00  0.00    +0.000 A 
BRANCH   7  11
ATOM     11  N   UNL     1       1.341  10.253  19.002  0.00  0.00    +0.000 N 
ATOM     12  C   UNL     1       0.089  10.781  18.747  0.00  0.00    +0.000 C 
ATOM     13  C   UNL     1       0.038  12.286  18.838  0.00  0.00    +0.000 C 
ATOM     14  O   UNL     1      -0.915  10.148  18.445  0.00  0.00    +0.000 OA
ATOM     15  H   UNL     1       2.130  10.898  19.020  0.00  0.00    +0.000 HD
ENDBRANCH   7  11
ENDBRANCH   1   4
BRANCH   1  16
ATOM     16  N   UNL     1       4.549   4.599  19.576  0.00  0.00    +0.000 N 
ATOM     17  H   UNL     1       4.909   5.243  20.282  0.00  0.00    +0.000 HD
BRANCH  16  21
ATOM     18  C   UNL     1       6.393   4.832  15.776  0.00  0.00    +0.000 A 
ATOM     19  C   UNL     1       5.424   3.841  16.044  0.00  0.00    +0.000 A 
ATOM     20  C   UNL     1       4.816   3.732  17.298  0.00  0.00    +0.000 A 
ATOM     21  C   UNL     1       5.174   4.619  18.302  0.00  0.00    +0.000 A 
ATOM     22  C   UNL     1       6.138   5.594  18.064  0.00  0.00    +0.000 A 
ATOM     23  C   UNL     1       6.769   5.710  16.813  0.00  0.00    +0.000 A 
BRANCH  18  24
ATOM     24  C   UNL     1       6.924   4.835  14.373  0.00  0.00    +0.000 C 
ATOM     25  O   UNL     1       7.810   5.603  14.021  0.00  0.00    +0.000 OA
BRANCH  24  27
ATOM     26  C   UNL     1       6.820   3.921  12.221  0.00  0.00    +0.000 C 
ATOM     27  O   UNL     1       6.344   3.913  13.569  0.00  0.00    +0.000 OA
ENDBRANCH  24  27
ENDBRANCH  18  24
BRANCH  23  28
ATOM     28  O   UNL     1       7.694   6.693  16.573  0.00  0.00    +0.000 OA
ATOM     29  C   UNL     1       7.543   7.910  17.303  0.00  0.00    +0.000 C 
ENDBRANCH  23  28
ENDBRANCH  16  21
ENDBRANCH   1  16
TORSDOF 7
ENDMDL
MODEL 3
REMARK VINA RESULT:      -7.8      2.809      7.614
REMARK  Name = 
REMARK  10 active torsions:
REMARK  status: ('A' for Active; 'I' for Inactive)
REMARK    1  A    between atoms: C_1  and  O_2
REMARK    2  A    between atoms: O_2  and  C_3
REMARK    3  A    between atoms: C_3  and  C_5
REMARK    4  A    between atoms: C_8  and  N_9
REMARK    5  A    between atoms: N_9  and  S_10
REMARK    6  A    between atoms: S_10  and  C_13
REMARK    7  A    between atoms: C_16  and  N_17
REMARK    8  A    between atoms: C_18  and  C_19
REMARK    9  A    between atoms: C_25  and  O_26
REMARK   10  A    between atoms: O_26  and  C_27
REMARK                            x       y       z     vdW  Elec       q    Type
REMARK                         _______ _______ _______ _____ _____    ______ ____
ROOT
ATOM      1  S   UNL     1       2.963   4.819  19.215  0.00  0.00    +0.000 S 
ATOM      2  O   UNL     1       3.491   3.729  20.005  0.00  0.00    +0.000 OA
ATOM      3  O   UNL     1       1.632   4.755  18.648  0.00  0.00    +0.000 OA
ENDROOT
BRANCH   1   4
ATOM      4  C   UNL     1       4.133   5.106  17.903  0.00  0.00    +0.000 A 
ATOM      5  C   UNL     1       4.093   4.304  16.763  0.00  0.00    +0.000 A 
ATOM      6  C   UNL     1       5.094   4.417  15.791  0.00  0.00    +0.000 A 
ATOM      7  C   UNL     1       6.153   5.317  15.945  0.00  0.00    +0.000 A 
ATOM      8  C   UNL     1       6.176   6.121  17.103  0.00  0.00    +0.000 A 
ATOM      9 CL   UNL     1       7.484   7.219  17.393  0.00  0.00    +0.000 Cl
ATOM     10  C   UNL     1       5.172   6.024  18.077  0.00  0.00    +0.000 A 
BRANCH   7  11
ATOM     11  N   UNL     1       7.176   5.457  14.969  0.00  0.00    +0.000 N 
ATOM     12  C   UNL     1       7.204   4.885  13.711  0.00  0.00    +0.000 C 
ATOM     13  C   UNL     1       8.348   5.368  12.853  0.00  0.00    +0.000 C 
ATOM     14  O   UNL     1       6.424   4.045  13.281  0.00  0.00    +0.000 OA
ATOM     15  H   UNL     1       8.004   5.968  15.273  0.00  0.00    +0.000 HD
ENDBRANCH   7  11
ENDBRANCH   1   4
BRANCH   1  16
ATOM     16  N   UNL     1       3.082   6.189  20.188  0.00  0.00    +0.000 N 
ATOM     17  H   UNL     1       3.181   5.934  21.171  0.00  0.00    +0.000 HD
BRANCH  16  21
ATOM     18  C   UNL     1       0.565   9.489  19.370  0.00  0.00    +0.000 A 
ATOM     19  C   UNL     1       1.481   9.026  18.399  0.00  0.00    +0.000 A 
ATOM     20  C   UNL     1       2.338   7.951  18.655  0.00  0.00    +0.000 A 
ATOM     21  C   UNL     1       2.284   7.324  19.890  0.00  0.00    +0.000 A 
ATOM     22  C   UNL     1       1.399   7.772  20.866  0.00  0.00    +0.000 A 
ATOM     23  C   UNL     1       0.541   8.861  20.632  0.00  0.00    +0.000 A 
BRANCH  18  24
ATOM     24  C   UNL     1      -0.302  10.629  18.927  0.00  0.00    +0.000 C 
ATOM     25  O   UNL     1       0.118  11.779  18.881  0.00  0.00    +0.000 OA
BRANCH  24  27
ATOM     26  C   UNL     1      -2.085  10.948  17.445  0.00  0.00    +0.000 C 
ATOM     27  O   UNL     1      -1.556  10.258  18.579  0.00  0.00    +0.000 OA
ENDBRANCH  24  27
ENDBRANCH  18  24
BRANCH  23  28
ATOM     28  O   UNL     1      -0.352   9.279  21.584  0.00  0.00    +0.000 OA
ATOM     29  C   UNL     1       0.168   9.523  22.890  0.00  0.00    +0.000 C 
ENDBRANCH  23  28
ENDBRANCH  16  21
ENDBRANCH   1  16
TORSDOF 7
ENDMDL
MODEL 4
REMARK VINA RESULT:      -7.7      4.957      9.531
REMARK  Name = 
REMARK  10 active torsions:
REMARK  status: ('A' for Active; 'I' for Inactive)
REMARK    1  A    between atoms: C_1  and  O_2
REMARK    2  A    between atoms: O_2  and  C_3
REMARK    3  A    between atoms: C_3  and  C_5
REMARK    4  A    between atoms: C_8  and  N_9
REMARK    5  A    between atoms: N_9  and  S_10
REMARK    6  A    between atoms: S_10  and  C_13
REMARK    7  A    between atoms: C_16  and  N_17
REMARK    8  A    between atoms: C_18  and  C_19
REMARK    9  A    between atoms: C_25  and  O_26
REMARK   10  A    between atoms: O_26  and  C_27
REMARK                            x       y       z     vdW  Elec       q    Type
REMARK                         _______ _______ _______ _____ _____    ______ ____
ROOT
ATOM      1  S   UNL     1       0.495  10.290  20.726  0.00  0.00    +0.000 S 
ATOM      2  O   UNL     1       1.466  11.022  21.508  0.00  0.00    +0.000 OA
ATOM      3  O   UNL     1      -0.682   9.713  21.344  0.00  0.00    +0.000 OA
ENDROOT
BRANCH   1   4
ATOM      4  C   UNL     1       1.391   9.000  19.884  0.00  0.00    +0.000 A 
ATOM      5  C   UNL     1       1.704   9.154  18.534  0.00  0.00    +0.000 A 
ATOM      6  C   UNL     1       2.274   8.092  17.821  0.00  0.00    +0.000 A 
ATOM      7  C   UNL     1       2.529   6.863  18.437  0.00  0.00    +0.000 A 
ATOM      8  C   UNL     1       2.207   6.726  19.802  0.00  0.00    +0.000 A 
ATOM      9 CL   UNL     1       2.439   5.217  20.621  0.00  0.00    +0.000 Cl
ATOM     10  C   UNL     1       1.646   7.787  20.529  0.00  0.00    +0.000 A 
BRANCH   7  11
ATOM     11  N   UNL     1       3.115   5.773  17.738  0.00  0.00    +0.000 N 
ATOM     12  C   UNL     1       4.464   5.536  17.557  0.00  0.00    +0.000 C 
ATOM     13  C   UNL     1       4.763   4.202  16.917  0.00  0.00    +0.000 C 
ATOM     14  O   UNL     1       5.378   6.302  17.839  0.00  0.00    +0.000 OA
ATOM     15  H   UNL     1       2.459   5.156  17.260  0.00  0.00    +0.000 HD
ENDBRANCH   7  11
ENDBRANCH   1   4
BRANCH   1  16
ATOM     16  N   UNL     1       0.014  11.336  19.495  0.00  0.00    +0.000 N 
ATOM     17  H   UNL     1       0.479  12.240  19.580  0.00  0.00    +0.000 HD
BRANCH  16  21
ATOM     18  C   UNL     1      -3.974  11.358  18.087  0.00  0.00    +0.000 A 
ATOM     19  C   UNL     1      -3.602  12.140  19.202  0.00  0.00    +0.000 A 
ATOM     20  C   UNL     1      -2.295  12.133  19.699  0.00  0.00    +0.000 A 
ATOM     21  C   UNL     1      -1.342  11.340  19.079  0.00  0.00    +0.000 A 
ATOM     22  C   UNL     1      -1.690  10.550  17.987  0.00  0.00    +0.000 A 
ATOM     23  C   UNL     1      -3.002  10.534  17.483  0.00  0.00    +0.000 A 
BRANCH  18  24
ATOM     24  C   UNL     1      -5.405  11.504  17.661  0.00  0.00    +0.000 C 
ATOM     25  O   UNL     1      -6.283  10.764  18.089  0.00  0.00    +0.000 OA
BRANCH  24  27
ATOM     26  C   UNL     1      -6.738  13.346  17.108  0.00  0.00    +0.000 C 
ATOM     27  O   UNL     1      -5.616  12.519  16.793  0.00  0.00    +0.000 OA
ENDBRANCH  24  27
ENDBRANCH  18  24
BRANCH  23  28
ATOM     28  O   UNL     1      -3.333   9.781  16.387  0.00  0.00    +0.000 OA
ATOM     29  C   UNL     1      -2.941  10.292  15.113  0.00  0.00    +0.000 C 
ENDBRANCH  23  28
ENDBRANCH  16  21
ENDBRANCH   1  16
TORSDOF 7
ENDMDL
MODEL 5
REMARK VINA RESULT:      -7.7      2.705      3.937
REMARK  Name = 
REMARK  10 active torsions:
REMARK  status: ('A' for Active; 'I' for Inactive)
REMARK    1  A    between atoms: C_1  and  O_2
REMARK    2  A    between atoms: O_2  and  C_3
REMARK    3  A    between atoms: C_3  and  C_5
REMARK    4  A    between atoms: C_8  and  N_9
REMARK    5  A    between atoms: N_9  and  S_10
REMARK    6  A    between atoms: S_10  and  C_13
REMARK    7  A    between atoms: C_16  and  N_17
REMARK    8  A    between atoms: C_18  and  C_19
REMARK    9  A    between atoms: C_25  and  O_26
REMARK   10  A    between atoms: O_26  and  C_27
REMARK                            x       y       z     vdW  Elec       q    Type
REMARK                         _______ _______ _______ _____ _____    ______ ____
ROOT
ATOM      1  S   UNL     1       2.527   5.372  19.782  0.00  0.00    +0.000 S 
ATOM      2  O   UNL     1       2.170   4.669  18.570  0.00  0.00    +0.000 OA
ATOM      3  O   UNL     1       2.111   4.883  21.081  0.00  0.00    +0.000 OA
ENDROOT
BRANCH   1   4
ATOM      4  C   UNL     1       1.946   7.046  19.586  0.00  0.00    +0.000 A 
ATOM      5  C   UNL     1       2.154   7.704  18.375  0.00  0.00    +0.000 A 
ATOM      6  C   UNL     1       1.839   9.063  18.252  0.00  0.00    +0.000 A 
ATOM      7  C   UNL     1       1.328   9.786  19.334  0.00  0.00    +0.000 A 
ATOM      8  C   UNL     1       1.124   9.104  20.551  0.00  0.00    +0.000 A 
ATOM      9 CL   UNL     1       0.548   9.944  21.952  0.00  0.00    +0.000 Cl
ATOM     10  C   UNL     1       1.425   7.740  20.681  0.00  0.00    +0.000 A 
BRANCH   7  11
ATOM     11  N   UNL     1       0.992  11.163  19.234  0.00  0.00    +0.000 N 
ATOM     12  C   UNL     1       1.679  12.133  18.527  0.00  0.00    +0.000 C 
ATOM     13  C   UNL     1       0.969  13.464  18.480  0.00  0.00    +0.000 C 
ATOM     14  O   UNL     1       2.771  11.999  17.990  0.00  0.00    +0.000 OA
ATOM     15  H   UNL     1       0.210  11.467  19.812  0.00  0.00    +0.000 HD
ENDBRANCH   7  11
ENDBRANCH   1   4
BRANCH   1  16
ATOM     16  N   UNL     1       4.206   5.507  19.756  0.00  0.00    +0.000 N 
ATOM     17  H   UNL     1       4.520   6.287  20.335  0.00  0.00    +0.000 HD
BRANCH  16  21
ATOM     18  C   UNL     1       6.273   5.000  16.100  0.00  0.00    +0.000 A 
ATOM     19  C   UNL     1       5.236   4.114  16.469  0.00  0.00    +0.000 A 
ATOM     20  C   UNL     1       4.553   4.249  17.681  0.00  0.00    +0.000 A 
ATOM     21  C   UNL     1       4.902   5.279  18.541  0.00  0.00    +0.000 A 
ATOM     22  C   UNL     1       5.930   6.155  18.205  0.00  0.00    +0.000 A 
ATOM     23  C   UNL     1       6.637   6.025  16.997  0.00  0.00    +0.000 A 
BRANCH  18  24
ATOM     24  C   UNL     1       6.881   4.737  14.755  0.00  0.00    +0.000 C 
ATOM     25  O   UNL     1       7.693   5.505  14.254  0.00  0.00    +0.000 OA
BRANCH  24  27
ATOM     26  C   UNL     1       6.167   3.693  12.786  0.00  0.00    +0.000 C 
ATOM     27  O   UNL     1       6.460   3.586  14.181  0.00  0.00    +0.000 OA
ENDBRANCH  24  27
ENDBRANCH  18  24
BRANCH  23  28
ATOM     28  O   UNL     1       7.627   6.909  16.655  0.00  0.00    +0.000 OA
ATOM     29  C   UNL     1       7.780   8.057  17.489  0.00  0.00    +0.000 C 
ENDBRANCH  23  28
ENDBRANCH  16  21
ENDBRANCH   1  16
TORSDOF 7
ENDMDL
MODEL 6
REMARK VINA RESULT:      -7.7      2.755      7.222
REMARK  Name = 
REMARK  10 active torsions:
REMARK  status: ('A' for Active; 'I' for Inactive)
REMARK    1  A    between atoms: C_1  and  O_2
REMARK    2  A    between atoms: O_2  and  C_3
REMARK    3  A    between atoms: C_3  and  C_5
REMARK    4  A    between atoms: C_8  and  N_9
REMARK    5  A    between atoms: N_9  and  S_10
REMARK    6  A    between atoms: S_10  and  C_13
REMARK    7  A    between atoms: C_16  and  N_17
REMARK    8  A    between atoms: C_18  and  C_19
REMARK    9  A    between atoms: C_25  and  O_26
REMARK   10  A    between atoms: O_26  and  C_27
REMARK                            x       y       z     vdW  Elec       q    Type
REMARK                         _______ _______ _______ _____ _____    ______ ____
ROOT
ATOM      1  S   UNL     1       1.933   4.517  20.601  0.00  0.00    +0.000 S 
ATOM      2  O   UNL     1       2.472   3.520  21.499  0.00  0.00    +0.000 OA
ATOM      3  O   UNL     1       0.541   4.488  20.200  0.00  0.00    +0.000 OA
ENDROOT
BRANCH   1   4
ATOM      4  C   UNL     1       2.952   4.485  19.140  0.00  0.00    +0.000 A 
ATOM      5  C   UNL     1       2.396   4.083  17.926  0.00  0.00    +0.000 A 
ATOM      6  C   UNL     1       3.214   3.910  16.803  0.00  0.00    +0.000 A 
ATOM      7  C   UNL     1       4.594   4.122  16.875  0.00  0.00    +0.000 A 
ATOM      8  C   UNL     1       5.139   4.529  18.110  0.00  0.00    +0.000 A 
ATOM      9 CL   UNL     1       6.846   4.756  18.293  0.00  0.00    +0.000 Cl
ATOM     10  C   UNL     1       4.327   4.717  19.238  0.00  0.00    +0.000 A 
BRANCH   7  11
ATOM     11  N   UNL     1       5.445   3.962  15.748  0.00  0.00    +0.000 N 
ATOM     12  C   UNL     1       5.930   4.964  14.929  0.00  0.00    +0.000 C 
ATOM     13  C   UNL     1       6.947   4.483  13.923  0.00  0.00    +0.000 C 
ATOM     14  O   UNL     1       5.592   6.141  14.947  0.00  0.00    +0.000 OA
ATOM     15  H   UNL     1       5.642   2.998  15.481  0.00  0.00    +0.000 HD
ENDBRANCH   7  11
ENDBRANCH   1   4
BRANCH   1  16
ATOM     16  N   UNL     1       2.271   6.006  21.313  0.00  0.00    +0.000 N 
ATOM     17  H   UNL     1       2.182   5.955  22.329  0.00  0.00    +0.000 HD
BRANCH  16  21
ATOM     18  C   UNL     1       0.777   9.518  19.489  0.00  0.00    +0.000 A 
ATOM     19  C   UNL     1       1.656   8.663  18.789  0.00  0.00    +0.000 A 
ATOM     20  C   UNL     1       2.179   7.508  19.378  0.00  0.00    +0.000 A 
ATOM     21  C   UNL     1       1.824   7.195  20.681  0.00  0.00    +0.000 A 
ATOM     22  C   UNL     1       0.970   8.031  21.395  0.00  0.00    +0.000 A 
ATOM     23  C   UNL     1       0.446   9.203  20.824  0.00  0.00    +0.000 A 
BRANCH  18  24
ATOM     24  C   UNL     1       0.281  10.696  18.705  0.00  0.00    +0.000 C 
ATOM     25  O   UNL     1       0.943  11.720  18.593  0.00  0.00    +0.000 OA
BRANCH  24  27
ATOM     26  C   UNL     1      -1.709  11.692  17.982  0.00  0.00    +0.000 C 
ATOM     27  O   UNL     1      -0.932  10.503  18.138  0.00  0.00    +0.000 OA
ENDBRANCH  24  27
ENDBRANCH  18  24
BRANCH  23  28
ATOM     28  O   UNL     1      -0.420  10.006  21.519  0.00  0.00    +0.000 OA
ATOM     29  C   UNL     1      -0.507   9.792  22.927  0.00  0.00    +0.000 C 
ENDBRANCH  23  28
ENDBRANCH  16  21
ENDBRANCH   1  16
TORSDOF 7
ENDMDL
MODEL 7
REMARK VINA RESULT:      -7.7      4.613      5.963
REMARK  Name = 
REMARK  10 active torsions:
REMARK  status: ('A' for Active; 'I' for Inactive)
REMARK    1  A    between atoms: C_1  and  O_2
REMARK    2  A    between atoms: O_2  and  C_3
REMARK    3  A    between atoms: C_3  and  C_5
REMARK    4  A    between atoms: C_8  and  N_9
REMARK    5  A    between atoms: N_9  and  S_10
REMARK    6  A    between atoms: S_10  and  C_13
REMARK    7  A    between atoms: C_16  and  N_17
REMARK    8  A    between atoms: C_18  and  C_19
REMARK    9  A    between atoms: C_25  and  O_26
REMARK   10  A    between atoms: O_26  and  C_27
REMARK                            x       y       z     vdW  Elec       q    Type
REMARK                         _______ _______ _______ _____ _____    ______ ____
ROOT
ATOM      1  S   UNL     1       1.062   9.877  18.875  0.00  0.00    +0.000 S 
ATOM      2  O   UNL     1       1.135   9.549  20.281  0.00  0.00    +0.000 OA
ATOM      3  O   UNL     1       1.961  10.848  18.286  0.00  0.00    +0.000 OA
ENDROOT
BRANCH   1   4
ATOM      4  C   UNL     1      -0.617  10.383  18.560  0.00  0.00    +0.000 A 
ATOM      5  C   UNL     1      -1.239   9.990  17.375  0.00  0.00    +0.000 A 
ATOM      6  C   UNL     1      -2.500  10.499  17.043  0.00  0.00    +0.000 A 
ATOM      7  C   UNL     1      -3.152  11.413  17.876  0.00  0.00    +0.000 A 
ATOM      8  C   UNL     1      -2.509  11.798  19.070  0.00  0.00    +0.000 A 
ATOM      9 CL   UNL     1      -3.227  12.969  20.125  0.00  0.00    +0.000 Cl
ATOM     10  C   UNL     1      -1.251  11.285  19.418  0.00  0.00    +0.000 A 
BRANCH   7  11
ATOM     11  N   UNL     1      -4.436  11.938  17.566  0.00  0.00    +0.000 N 
ATOM     12  C   UNL     1      -5.657  11.430  17.969  0.00  0.00    +0.000 C 
ATOM     13  C   UNL     1      -6.826  12.315  17.616  0.00  0.00    +0.000 C 
ATOM     14  O   UNL     1      -5.844  10.360  18.535  0.00  0.00    +0.000 OA
ATOM     15  H   UNL     1      -4.443  12.721  16.914  0.00  0.00    +0.000 HD
ENDBRANCH   7  11
ENDBRANCH   1   4
BRANCH   1  16
ATOM     16  N   UNL     1       1.218   8.413  18.055  0.00  0.00    +0.000 N 
ATOM     17  H   UNL     1       0.310   7.965  17.929  0.00  0.00    +0.000 HD
BRANCH  16  21
ATOM     18  C   UNL     1       4.517   5.856  18.745  0.00  0.00    +0.000 A 
ATOM     19  C   UNL     1       3.423   5.875  19.639  0.00  0.00    +0.000 A 
ATOM     20  C   UNL     1       2.332   6.727  19.443  0.00  0.00    +0.000 A 
ATOM     21  C   UNL     1       2.323   7.570  18.343  0.00  0.00    +0.000 A 
ATOM     22  C   UNL     1       3.396   7.579  17.457  0.00  0.00    +0.000 A 
ATOM     23  C   UNL     1       4.508   6.740  17.646  0.00  0.00    +0.000 A 
BRANCH  18  24
ATOM     24  C   UNL     1       5.590   4.864  19.080  0.00  0.00    +0.000 C 
ATOM     25  O   UNL     1       5.536   3.702  18.696  0.00  0.00    +0.000 OA
BRANCH  24  27
ATOM     26  C   UNL     1       7.800   5.634  19.081  0.00  0.00    +0.000 C 
ATOM     27  O   UNL     1       6.601   5.381  19.816  0.00  0.00    +0.000 OA
ENDBRANCH  24  27
ENDBRANCH  18  24
BRANCH  23  28
ATOM     28  O   UNL     1       5.548   6.727  16.753  0.00  0.00    +0.000 OA
ATOM     29  C   UNL     1       5.383   5.922  15.586  0.00  0.00    +0.000 C 
ENDBRANCH  23  28
ENDBRANCH  16  21
ENDBRANCH   1  16
TORSDOF 7
ENDMDL
MODEL 8
REMARK VINA RESULT:      -7.6      2.215      3.543
REMARK  Name = 
REMARK  10 active torsions:
REMARK  status: ('A' for Active; 'I' for Inactive)
REMARK    1  A    between atoms: C_1  and  O_2
REMARK    2  A    between atoms: O_2  and  C_3
REMARK    3  A    between atoms: C_3  and  C_5
REMARK    4  A    between atoms: C_8  and  N_9
REMARK    5  A    between atoms: N_9  and  S_10
REMARK    6  A    between atoms: S_10  and  C_13
REMARK    7  A    between atoms: C_16  and  N_17
REMARK    8  A    between atoms: C_18  and  C_19
REMARK    9  A    between atoms: C_25  and  O_26
REMARK   10  A    between atoms: O_26  and  C_27
REMARK                            x       y       z     vdW  Elec       q    Type
REMARK                         _______ _______ _______ _____ _____    ______ ____
ROOT
ATOM      1  S   UNL     1       2.509   5.428  19.771  0.00  0.00    +0.000 S 
ATOM      2  O   UNL     1       2.131   5.034  18.432  0.00  0.00    +0.000 OA
ATOM      3  O   UNL     1       2.117   4.640  20.921  0.00  0.00    +0.000 OA
ENDROOT
BRANCH   1   4
ATOM      4  C   UNL     1       1.927   7.097  19.992  0.00  0.00    +0.000 A 
ATOM      5  C   UNL     1       1.229   7.429  21.153  0.00  0.00    +0.000 A 
ATOM      6  C   UNL     1       0.636   8.692  21.277  0.00  0.00    +0.000 A 
ATOM      7  C   UNL     1       0.719   9.634  20.247  0.00  0.00    +0.000 A 
ATOM      8  C   UNL     1       1.429   9.280  19.081  0.00  0.00    +0.000 A 
ATOM      9 CL   UNL     1       1.528  10.370  17.739  0.00  0.00    +0.000 Cl
ATOM     10  C   UNL     1       2.037   8.023  18.951  0.00  0.00    +0.000 A 
BRANCH   7  11
ATOM     11  N   UNL     1       0.135  10.925  20.351  0.00  0.00    +0.000 N 
ATOM     12  C   UNL     1       0.760  12.085  20.770  0.00  0.00    +0.000 C 
ATOM     13  C   UNL     1      -0.088  13.321  20.605  0.00  0.00    +0.000 C 
ATOM     14  O   UNL     1       1.879  12.167  21.261  0.00  0.00    +0.000 OA
ATOM     15  H   UNL     1      -0.868  10.967  20.174  0.00  0.00    +0.000 HD
ENDBRANCH   7  11
ENDBRANCH   1   4
BRANCH   1  16
ATOM     16  N   UNL     1       4.188   5.571  19.748  0.00  0.00    +0.000 N 
ATOM     17  H   UNL     1       4.496   6.364  20.313  0.00  0.00    +0.000 HD
BRANCH  16  21
ATOM     18  C   UNL     1       6.274   5.004  16.112  0.00  0.00    +0.000 A 
ATOM     19  C   UNL     1       5.226   4.132  16.483  0.00  0.00    +0.000 A 
ATOM     20  C   UNL     1       4.536   4.287  17.689  0.00  0.00    +0.000 A 
ATOM     21  C   UNL     1       4.890   5.323  18.540  0.00  0.00    +0.000 A 
ATOM     22  C   UNL     1       5.929   6.185  18.202  0.00  0.00    +0.000 A 
ATOM     23  C   UNL     1       6.643   6.035  17.000  0.00  0.00    +0.000 A 
BRANCH  18  24
ATOM     24  C   UNL     1       6.889   4.720  14.774  0.00  0.00    +0.000 C 
ATOM     25  O   UNL     1       7.764   5.435  14.303  0.00  0.00    +0.000 OA
BRANCH  24  27
ATOM     26  C   UNL     1       6.322   3.699  12.746  0.00  0.00    +0.000 C 
ATOM     27  O   UNL     1       6.396   3.614  14.171  0.00  0.00    +0.000 OA
ENDBRANCH  24  27
ENDBRANCH  18  24
BRANCH  23  28
ATOM     28  O   UNL     1       7.643   6.906  16.655  0.00  0.00    +0.000 OA
ATOM     29  C   UNL     1       7.807   8.058  17.482  0.00  0.00    +0.000 C 
ENDBRANCH  23  28
ENDBRANCH  16  21
ENDBRANCH   1  16
TORSDOF 7
ENDMDL
MODEL 9
REMARK VINA RESULT:      -7.6      4.548      6.193
REMARK  Name = 
REMARK  10 active torsions:
REMARK  status: ('A' for Active; 'I' for Inactive)
REMARK    1  A    between atoms: C_1  and  O_2
REMARK    2  A    between atoms: O_2  and  C_3
REMARK    3  A    between atoms: C_3  and  C_5
REMARK    4  A    between atoms: C_8  and  N_9
REMARK    5  A    between atoms: N_9  and  S_10
REMARK    6  A    between atoms: S_10  and  C_13
REMARK    7  A    between atoms: C_16  and  N_17
REMARK    8  A    between atoms: C_18  and  C_19
REMARK    9  A    between atoms: C_25  and  O_26
REMARK   10  A    between atoms: O_26  and  C_27
REMARK                            x       y       z     vdW  Elec       q    Type
REMARK                         _______ _______ _______ _____ _____    ______ ____
ROOT
ATOM      1  S   UNL     1       1.129   9.748  18.787  0.00  0.00    +0.000 S 
ATOM      2  O   UNL     1       1.201   9.323  20.167  0.00  0.00    +0.000 OA
ATOM      3  O   UNL     1       2.037  10.748  18.264  0.00  0.00    +0.000 OA
ENDROOT
BRANCH   1   4
ATOM      4  C   UNL     1      -0.545  10.291  18.510  0.00  0.00    +0.000 A 
ATOM      5  C   UNL     1      -1.207   9.903  17.346  0.00  0.00    +0.000 A 
ATOM      6  C   UNL     1      -2.464  10.440  17.042  0.00  0.00    +0.000 A 
ATOM      7  C   UNL     1      -3.072  11.377  17.883  0.00  0.00    +0.000 A 
ATOM      8  C   UNL     1      -2.389  11.757  19.056  0.00  0.00    +0.000 A 
ATOM      9 CL   UNL     1      -3.051  12.954  20.119  0.00  0.00    +0.000 Cl
ATOM     10  C   UNL     1      -1.135  11.217  19.376  0.00  0.00    +0.000 A 
BRANCH   7  11
ATOM     11  N   UNL     1      -4.351  11.929  17.602  0.00  0.00    +0.000 N 
ATOM     12  C   UNL     1      -5.575  11.428  18.002  0.00  0.00    +0.000 C 
ATOM     13  C   UNL     1      -6.734  12.341  17.687  0.00  0.00    +0.000 C 
ATOM     14  O   UNL     1      -5.773  10.345  18.539  0.00  0.00    +0.000 OA
ATOM     15  H   UNL     1      -4.352  12.732  16.973  0.00  0.00    +0.000 HD
ENDBRANCH   7  11
ENDBRANCH   1   4
BRANCH   1  16
ATOM     16  N   UNL     1       1.269   8.343  17.867  0.00  0.00    +0.000 N 
ATOM     17  H   UNL     1       0.363   7.887  17.754  0.00  0.00    +0.000 HD
BRANCH  16  21
ATOM     18  C   UNL     1       4.611   5.850  18.581  0.00  0.00    +0.000 A 
ATOM     19  C   UNL     1       4.690   6.909  17.650  0.00  0.00    +0.000 A 
ATOM     20  C   UNL     1       3.593   7.733  17.382  0.00  0.00    +0.000 A 
ATOM     21  C   UNL     1       2.399   7.504  18.049  0.00  0.00    +0.000 A 
ATOM     22  C   UNL     1       2.294   6.458  18.960  0.00  0.00    +0.000 A 
ATOM     23  C   UNL     1       3.383   5.611  19.231  0.00  0.00    +0.000 A 
BRANCH  18  24
ATOM     24  C   UNL     1       5.884   5.082  18.776  0.00  0.00    +0.000 C 
ATOM     25  O   UNL     1       6.551   5.189  19.798  0.00  0.00    +0.000 OA
BRANCH  24  27
ATOM     26  C   UNL     1       7.432   4.592  17.090  0.00  0.00    +0.000 C 
ATOM     27  O   UNL     1       6.199   4.273  17.738  0.00  0.00    +0.000 OA
ENDBRANCH  24  27
ENDBRANCH  18  24
BRANCH  23  28
ATOM     28  O   UNL     1       3.285   4.602  20.153  0.00  0.00    +0.000 OA
ATOM     29  C   UNL     1       2.159   4.638  21.030  0.00  0.00    +0.000 C 
ENDBRANCH  23  28
ENDBRANCH  16  21
ENDBRANCH   1  16
TORSDOF 7
ENDMDL
