MODEL 1
REMARK VINA RESULT:      -6.0      0.000      0.000
REMARK  Name = 
REMARK  6 active torsions:
REMARK  status: ('A' for Active; 'I' for Inactive)
REMARK    1  A    between atoms: C_2  and  C_3
REMARK    2  A    between atoms: C_3  and  N_4
REMARK    3  A    between atoms: N_4  and  C_5
REMARK    4  A    between atoms: C_5  and  C_6
REMARK    5  A    between atoms: N_9  and  C_10
REMARK    6  A    between atoms: C_17  and  C_18
REMARK                            x       y       z     vdW  Elec       q    Type
REMARK                         _______ _______ _______ _____ _____    ______ ____
ROOT
ATOM      1  C   UNL     1      -2.740  12.982  20.889  0.00  0.00    +0.000 A 
ATOM      2  N   UNL     1      -2.758  13.633  22.079  0.00  0.00    +0.000 NA
ATOM      3  C   UNL     1      -3.912  13.834  22.721  0.00  0.00    +0.000 A 
ATOM      4  N   UNL     1      -5.119  13.483  22.310  0.00  0.00    +0.000 NA
ATOM      5  C   UNL     1      -5.107  12.878  21.111  0.00  0.00    +0.000 A 
ATOM      6  S   UNL     1      -6.597  12.424  20.437  0.00  0.00    +0.000 S 
ATOM      7  C   UNL     1      -5.850  11.818  19.042  0.00  0.00    +0.000 A 
ATOM      8  C   UNL     1      -4.462  11.910  19.078  0.00  0.00    +0.000 A 
ATOM      9  C   UNL     1      -3.998  12.571  20.318  0.00  0.00    +0.000 A 
ENDROOT
BRANCH   1  13
ATOM     10  C   UNL     1       0.904  12.341  18.818  0.00  0.00    +0.000 C 
ATOM     11  C   UNL     1      -0.138  13.393  18.361  0.00  0.00    +0.000 C 
ATOM     12  C   UNL     1      -0.982  13.987  19.497  0.00  0.00    +0.000 C 
ATOM     13  N   UNL     1      -1.507  12.855  20.271  0.00  0.00    +0.000 N 
ATOM     14  C   UNL     1      -0.456  12.214  21.040  0.00  0.00    +0.000 C 
ATOM     15  C   UNL     1       0.406  11.511  20.013  0.00  0.00    +0.000 C 
BRANCH  10  16
ATOM     16  C   UNL     1       2.305  12.904  19.060  0.00  0.00    +0.000 C 
BRANCH  16  17
ATOM     17  N   UNL     1       2.803  13.507  17.814  0.00  0.00    +0.000 NA
ATOM     18  H   UNL     1       3.415  12.855  17.327  0.00  0.00    +0.000 HD
BRANCH  17  19
ATOM     19  C   UNL     1       3.576  14.708  18.054  0.00  0.00    +0.000 C 
BRANCH  19  21
ATOM     20  C   UNL     1       2.781  16.862  19.066  0.00  0.00    +0.000 C 
ATOM     21  C   UNL     1       2.619  15.855  18.195  0.00  0.00    +0.000 C 
ENDBRANCH  19  21
ENDBRANCH  17  19
ENDBRANCH  16  17
ENDBRANCH  10  16
ENDBRANCH   1  13
BRANCH   8  22
ATOM     22  C   UNL     1      -3.752  11.329  17.927  0.00  0.00    +0.000 A 
ATOM     23  C   UNL     1      -2.594  10.572  18.081  0.00  0.00    +0.000 A 
ATOM     24  C   UNL     1      -2.045   9.883  16.981  0.00  0.00    +0.000 A 
ATOM     25  C   UNL     1      -2.614   9.997  15.714  0.00  0.00    +0.000 A 
ATOM     26  C   UNL     1      -3.666  10.882  15.522  0.00  0.00    +0.000 A 
ATOM     27  C   UNL     1      -4.229  11.545  16.618  0.00  0.00    +0.000 A 
ENDBRANCH   8  22
TORSDOF 6
ENDMDL
MODEL 2
REMARK VINA RESULT:      -5.8      7.994     10.017
REMARK  Name = 
REMARK  6 active torsions:
REMARK  status: ('A' for Active; 'I' for Inactive)
REMARK    1  A    between atoms: C_2  and  C_3
REMARK    2  A    between atoms: C_3  and  N_4
REMARK    3  A    between atoms: N_4  and  C_5
REMARK    4  A    between atoms: C_5  and  C_6
REMARK    5  A    between atoms: N_9  and  C_10
REMARK    6  A    between atoms: C_17  and  C_18
REMARK                            x       y       z     vdW  Elec       q    Type
REMARK                         _______ _______ _______ _____ _____    ______ ____
ROOT
ATOM      1  C   UNL     1       4.010   3.588  18.163  0.00  0.00    +0.000 A 
ATOM      2  N   UNL     1       4.518   2.363  17.880  0.00  0.00    +0.000 NA
ATOM      3  C   UNL     1       3.837   1.260  18.205  0.00  0.00    +0.000 A 
ATOM      4  N   UNL     1       2.672   1.202  18.829  0.00  0.00    +0.000 NA
ATOM      5  C   UNL     1       2.191   2.414  19.149  0.00  0.00    +0.000 A 
ATOM      6  S   UNL     1       0.726   2.485  20.004  0.00  0.00    +0.000 S 
ATOM      7  C   UNL     1       0.778   4.178  20.070  0.00  0.00    +0.000 A 
ATOM      8  C   UNL     1       1.878   4.720  19.415  0.00  0.00    +0.000 A 
ATOM      9  C   UNL     1       2.756   3.662  18.868  0.00  0.00    +0.000 A 
ENDROOT
BRANCH   1  13
ATOM     10  C   UNL     1       6.147   7.082  17.065  0.00  0.00    +0.000 C 
ATOM     11  C   UNL     1       5.720   6.794  18.527  0.00  0.00    +0.000 C 
ATOM     12  C   UNL     1       5.619   5.303  18.877  0.00  0.00    +0.000 C 
ATOM     13  N   UNL     1       4.801   4.677  17.832  0.00  0.00    +0.000 N 
ATOM     14  C   UNL     1       5.526   4.597  16.576  0.00  0.00    +0.000 C 
ATOM     15  C   UNL     1       5.612   6.026  16.084  0.00  0.00    +0.000 C 
BRANCH  10  16
ATOM     16  C   UNL     1       7.646   7.323  16.882  0.00  0.00    +0.000 C 
BRANCH  16  17
ATOM     17  N   UNL     1       8.179   7.977  18.087  0.00  0.00    +0.000 NA
ATOM     18  H   UNL     1       7.552   7.829  18.875  0.00  0.00    +0.000 HD
BRANCH  17  19
ATOM     19  C   UNL     1       8.313   9.410  17.921  0.00  0.00    +0.000 C 
BRANCH  19  21
ATOM     20  C   UNL     1       9.445  11.224  19.233  0.00  0.00    +0.000 C 
ATOM     21  C   UNL     1       9.190   9.925  19.025  0.00  0.00    +0.000 C 
ENDBRANCH  19  21
ENDBRANCH  17  19
ENDBRANCH  16  17
ENDBRANCH  10  16
ENDBRANCH   1  13
BRANCH   8  22
ATOM     22  C   UNL     1       1.937   6.190  19.372  0.00  0.00    +0.000 A 
ATOM     23  C   UNL     1       2.272   6.881  18.211  0.00  0.00    +0.000 A 
ATOM     24  C   UNL     1       2.142   8.284  18.157  0.00  0.00    +0.000 A 
ATOM     25  C   UNL     1       1.738   9.004  19.279  0.00  0.00    +0.000 A 
ATOM     26  C   UNL     1       1.566   8.338  20.485  0.00  0.00    +0.000 A 
ATOM     27  C   UNL     1       1.667   6.943  20.533  0.00  0.00    +0.000 A 
ENDBRANCH   8  22
TORSDOF 6
ENDMDL
MODEL 3
REMARK VINA RESULT:      -5.8      8.047     10.042
REMARK  Name = 
REMARK  6 active torsions:
REMARK  status: ('A' for Active; 'I' for Inactive)
REMARK    1  A    between atoms: C_2  and  C_3
REMARK    2  A    between atoms: C_3  and  N_4
REMARK    3  A    between atoms: N_4  and  C_5
REMARK    4  A    between atoms: C_5  and  C_6
REMARK    5  A    between atoms: N_9  and  C_10
REMARK    6  A    between atoms: C_17  and  C_18
REMARK                            x       y       z     vdW  Elec       q    Type
REMARK                         _______ _______ _______ _____ _____    ______ ____
ROOT
ATOM      1  C   UNL     1       4.210   3.523  18.285  0.00  0.00    +0.000 A 
ATOM      2  N   UNL     1       4.680   2.261  18.116  0.00  0.00    +0.000 NA
ATOM      3  C   UNL     1       3.918   1.210  18.430  0.00  0.00    +0.000 A 
ATOM      4  N   UNL     1       2.698   1.240  18.940  0.00  0.00    +0.000 NA
ATOM      5  C   UNL     1       2.250   2.489  19.148  0.00  0.00    +0.000 A 
ATOM      6  S   UNL     1       0.717   2.673  19.853  0.00  0.00    +0.000 S 
ATOM      7  C   UNL     1       0.846   4.363  19.837  0.00  0.00    +0.000 A 
ATOM      8  C   UNL     1       2.029   4.817  19.263  0.00  0.00    +0.000 A 
ATOM      9  C   UNL     1       2.900   3.692  18.860  0.00  0.00    +0.000 A 
ENDROOT
BRANCH   1  13
ATOM     10  C   UNL     1       7.114   6.445  17.279  0.00  0.00    +0.000 C 
ATOM     11  C   UNL     1       6.095   5.896  16.248  0.00  0.00    +0.000 C 
ATOM     12  C   UNL     1       4.759   5.444  16.854  0.00  0.00    +0.000 C 
ATOM     13  N   UNL     1       5.082   4.554  17.976  0.00  0.00    +0.000 N 
ATOM     14  C   UNL     1       5.632   5.300  19.094  0.00  0.00    +0.000 C 
ATOM     15  C   UNL     1       7.010   5.731  18.637  0.00  0.00    +0.000 C 
BRANCH  10  16
ATOM     16  C   UNL     1       7.098   7.966  17.433  0.00  0.00    +0.000 C 
BRANCH  16  17
ATOM     17  N   UNL     1       8.257   8.381  18.238  0.00  0.00    +0.000 NA
ATOM     18  H   UNL     1       8.086   8.197  19.224  0.00  0.00    +0.000 HD
BRANCH  17  19
ATOM     19  C   UNL     1       8.532   9.798  18.118  0.00  0.00    +0.000 C 
BRANCH  19  21
ATOM     20  C   UNL     1      10.081  11.325  19.368  0.00  0.00    +0.000 C 
ATOM     21  C   UNL     1       9.322  10.221  19.322  0.00  0.00    +0.000 C 
ENDBRANCH  19  21
ENDBRANCH  17  19
ENDBRANCH  16  17
ENDBRANCH  10  16
ENDBRANCH   1  13
BRANCH   8  22
ATOM     22  C   UNL     1       2.165   6.278  19.151  0.00  0.00    +0.000 A 
ATOM     23  C   UNL     1       2.522   6.896  17.955  0.00  0.00    +0.000 A 
ATOM     24  C   UNL     1       2.466   8.300  17.837  0.00  0.00    +0.000 A 
ATOM     25  C   UNL     1       2.114   9.092  18.927  0.00  0.00    +0.000 A 
ATOM     26  C   UNL     1       1.921   8.493  20.165  0.00  0.00    +0.000 A 
ATOM     27  C   UNL     1       1.950   7.098  20.277  0.00  0.00    +0.000 A 
ENDBRANCH   8  22
TORSDOF 6
ENDMDL
MODEL 4
REMARK VINA RESULT:      -5.7      3.551      5.921
REMARK  Name = 
REMARK  6 active torsions:
REMARK  status: ('A' for Active; 'I' for Inactive)
REMARK    1  A    between atoms: C_2  and  C_3
REMARK    2  A    between atoms: C_3  and  N_4
REMARK    3  A    between atoms: N_4  and  C_5
REMARK    4  A    between atoms: C_5  and  C_6
REMARK    5  A    between atoms: N_9  and  C_10
REMARK    6  A    between atoms: C_17  and  C_18
REMARK                            x       y       z     vdW  Elec       q    Type
REMARK                         _______ _______ _______ _____ _____    ______ ____
ROOT
ATOM      1  C   UNL     1      -1.914  12.213  22.666  0.00  0.00    +0.000 A 
ATOM      2  N   UNL     1      -2.921  11.840  23.495  0.00  0.00    +0.000 NA
ATOM      3  C   UNL     1      -3.792  12.746  23.947  0.00  0.00    +0.000 A 
ATOM      4  N   UNL     1      -3.786  14.046  23.699  0.00  0.00    +0.000 NA
ATOM      5  C   UNL     1      -2.763  14.422  22.914  0.00  0.00    +0.000 A 
ATOM      6  S   UNL     1      -2.601  16.074  22.560  0.00  0.00    +0.000 S 
ATOM      7  C   UNL     1      -1.201  15.802  21.645  0.00  0.00    +0.000 A 
ATOM      8  C   UNL     1      -0.855  14.458  21.557  0.00  0.00    +0.000 A 
ATOM      9  C   UNL     1      -1.781  13.610  22.339  0.00  0.00    +0.000 A 
ENDROOT
BRANCH   1  13
ATOM     10  C   UNL     1       1.036   9.397  21.505  0.00  0.00    +0.000 C 
ATOM     11  C   UNL     1       0.570   9.554  22.975  0.00  0.00    +0.000 C 
ATOM     12  C   UNL     1      -0.880  10.033  23.133  0.00  0.00    +0.000 C 
ATOM     13  N   UNL     1      -1.031  11.218  22.280  0.00  0.00    +0.000 N 
ATOM     14  C   UNL     1      -1.033  10.854  20.875  0.00  0.00    +0.000 C 
ATOM     15  C   UNL     1       0.393  10.440  20.576  0.00  0.00    +0.000 C 
BRANCH  10  16
ATOM     16  C   UNL     1       0.902   7.979  20.950  0.00  0.00    +0.000 C 
BRANCH  16  17
ATOM     17  N   UNL     1       2.244   7.435  20.690  0.00  0.00    +0.000 NA
ATOM     18  H   UNL     1       2.833   8.142  20.255  0.00  0.00    +0.000 HD
BRANCH  17  19
ATOM     19  C   UNL     1       2.214   6.302  19.789  0.00  0.00    +0.000 C 
BRANCH  19  21
ATOM     20  C   UNL     1       1.056   4.172  20.436  0.00  0.00    +0.000 C 
ATOM     21  C   UNL     1       2.046   5.058  20.612  0.00  0.00    +0.000 C 
ENDBRANCH  19  21
ENDBRANCH  17  19
ENDBRANCH  16  17
ENDBRANCH  10  16
ENDBRANCH   1  13
BRANCH   8  22
ATOM     22  C   UNL     1       0.310  14.152  20.711  0.00  0.00    +0.000 A 
ATOM     23  C   UNL     1       1.590  14.014  21.241  0.00  0.00    +0.000 A 
ATOM     24  C   UNL     1       2.646  13.544  20.433  0.00  0.00    +0.000 A 
ATOM     25  C   UNL     1       2.441  13.270  19.082  0.00  0.00    +0.000 A 
ATOM     26  C   UNL     1       1.210  13.566  18.511  0.00  0.00    +0.000 A 
ATOM     27  C   UNL     1       0.154  14.006  19.317  0.00  0.00    +0.000 A 
ENDBRANCH   8  22
TORSDOF 6
ENDMDL
MODEL 5
REMARK VINA RESULT:      -5.7      0.885      1.271
REMARK  Name = 
REMARK  6 active torsions:
REMARK  status: ('A' for Active; 'I' for Inactive)
REMARK    1  A    between atoms: C_2  and  C_3
REMARK    2  A    between atoms: C_3  and  N_4
REMARK    3  A    between atoms: N_4  and  C_5
REMARK    4  A    between atoms: C_5  and  C_6
REMARK    5  A    between atoms: N_9  and  C_10
REMARK    6  A    between atoms: C_17  and  C_18
REMARK                            x       y       z     vdW  Elec       q    Type
REMARK                         _______ _______ _______ _____ _____    ______ ____
ROOT
ATOM      1  C   UNL     1      -3.523  12.811  20.618  0.00  0.00    +0.000 A 
ATOM      2  N   UNL     1      -3.623  13.476  21.797  0.00  0.00    +0.000 NA
ATOM      3  C   UNL     1      -4.792  13.531  22.442  0.00  0.00    +0.000 A 
ATOM      4  N   UNL     1      -5.942  13.013  22.045  0.00  0.00    +0.000 NA
ATOM      5  C   UNL     1      -5.852  12.393  20.857  0.00  0.00    +0.000 A 
ATOM      6  S   UNL     1      -7.270  11.729  20.200  0.00  0.00    +0.000 S 
ATOM      7  C   UNL     1      -6.453  11.203  18.813  0.00  0.00    +0.000 A 
ATOM      8  C   UNL     1      -5.091  11.482  18.838  0.00  0.00    +0.000 A 
ATOM      9  C   UNL     1      -4.715  12.223  20.063  0.00  0.00    +0.000 A 
ENDROOT
BRANCH   1  13
ATOM     10  C   UNL     1       0.102  12.856  18.419  0.00  0.00    +0.000 C 
ATOM     11  C   UNL     1      -0.655  14.154  18.801  0.00  0.00    +0.000 C 
ATOM     12  C   UNL     1      -1.468  14.055  20.099  0.00  0.00    +0.000 C 
ATOM     13  N   UNL     1      -2.285  12.840  19.995  0.00  0.00    +0.000 N 
ATOM     14  C   UNL     1      -1.467  11.647  20.115  0.00  0.00    +0.000 C 
ATOM     15  C   UNL     1      -0.669  11.590  18.829  0.00  0.00    +0.000 C 
BRANCH  10  16
ATOM     16  C   UNL     1       1.557  12.813  18.887  0.00  0.00    +0.000 C 
BRANCH  16  17
ATOM     17  N   UNL     1       2.442  12.995  17.725  0.00  0.00    +0.000 NA
ATOM     18  H   UNL     1       2.884  12.112  17.477  0.00  0.00    +0.000 HD
BRANCH  17  19
ATOM     19  C   UNL     1       3.509  13.939  17.988  0.00  0.00    +0.000 C 
BRANCH  19  21
ATOM     20  C   UNL     1       3.425  16.397  18.484  0.00  0.00    +0.000 C 
ATOM     21  C   UNL     1       2.901  15.168  18.598  0.00  0.00    +0.000 C 
ENDBRANCH  19  21
ENDBRANCH  17  19
ENDBRANCH  16  17
ENDBRANCH  10  16
ENDBRANCH   1  13
BRANCH   8  22
ATOM     22  C   UNL     1      -4.313  10.981  17.694  0.00  0.00    +0.000 A 
ATOM     23  C   UNL     1      -4.327  11.620  16.457  0.00  0.00    +0.000 A 
ATOM     24  C   UNL     1      -3.434  11.220  15.441  0.00  0.00    +0.000 A 
ATOM     25  C   UNL     1      -2.571  10.143  15.636  0.00  0.00    +0.000 A 
ATOM     26  C   UNL     1      -2.672   9.398  16.803  0.00  0.00    +0.000 A 
ATOM     27  C   UNL     1      -3.538   9.810  17.822  0.00  0.00    +0.000 A 
ENDBRANCH   8  22
TORSDOF 6
ENDMDL
MODEL 6
REMARK VINA RESULT:      -5.7      7.531      9.733
REMARK  Name = 
REMARK  6 active torsions:
REMARK  status: ('A' for Active; 'I' for Inactive)
REMARK    1  A    between atoms: C_2  and  C_3
REMARK    2  A    between atoms: C_3  and  N_4
REMARK    3  A    between atoms: N_4  and  C_5
REMARK    4  A    between atoms: C_5  and  C_6
REMARK    5  A    between atoms: N_9  and  C_10
REMARK    6  A    between atoms: C_17  and  C_18
REMARK                            x       y       z     vdW  Elec       q    Type
REMARK                         _______ _______ _______ _____ _____    ______ ____
ROOT
ATOM      1  C   UNL     1       2.342   4.889  20.203  0.00  0.00    +0.000 A 
ATOM      2  N   UNL     1       1.426   4.495  21.122  0.00  0.00    +0.000 NA
ATOM      3  C   UNL     1       1.503   3.281  21.674  0.00  0.00    +0.000 A 
ATOM      4  N   UNL     1       2.396   2.343  21.405  0.00  0.00    +0.000 NA
ATOM      5  C   UNL     1       3.277   2.717  20.462  0.00  0.00    +0.000 A 
ATOM      6  S   UNL     1       4.448   1.587  19.979  0.00  0.00    +0.000 S 
ATOM      7  C   UNL     1       5.106   2.663  18.848  0.00  0.00    +0.000 A 
ATOM      8  C   UNL     1       4.480   3.905  18.842  0.00  0.00    +0.000 A 
ATOM      9  C   UNL     1       3.356   3.947  19.802  0.00  0.00    +0.000 A 
ENDROOT
BRANCH   1  13
ATOM     10  C   UNL     1       2.104   8.812  18.610  0.00  0.00    +0.000 C 
ATOM     11  C   UNL     1       2.515   7.589  17.751  0.00  0.00    +0.000 C 
ATOM     12  C   UNL     1       1.905   6.257  18.208  0.00  0.00    +0.000 C 
ATOM     13  N   UNL     1       2.162   6.147  19.650  0.00  0.00    +0.000 N 
ATOM     14  C   UNL     1       1.339   7.077  20.401  0.00  0.00    +0.000 C 
ATOM     15  C   UNL     1       1.912   8.444  20.091  0.00  0.00    +0.000 C 
BRANCH  10  16
ATOM     16  C   UNL     1       0.914   9.598  18.059  0.00  0.00    +0.000 C 
BRANCH  16  17
ATOM     17  N   UNL     1       0.313  10.386  19.146  0.00  0.00    +0.000 NA
ATOM     18  H   UNL     1       0.531   9.966  20.048  0.00  0.00    +0.000 HD
BRANCH  17  19
ATOM     19  C   UNL     1      -1.131  10.447  19.050  0.00  0.00    +0.000 C 
BRANCH  19  21
ATOM     20  C   UNL     1      -2.772   9.837  17.253  0.00  0.00    +0.000 C 
ATOM     21  C   UNL     1      -1.516  10.100  17.641  0.00  0.00    +0.000 C 
ENDBRANCH  19  21
ENDBRANCH  17  19
ENDBRANCH  16  17
ENDBRANCH  10  16
ENDBRANCH   1  13
BRANCH   8  22
ATOM     22  C   UNL     1       5.058   4.908  17.933  0.00  0.00    +0.000 A 
ATOM     23  C   UNL     1       5.884   5.931  18.392  0.00  0.00    +0.000 A 
ATOM     24  C   UNL     1       6.563   6.760  17.476  0.00  0.00    +0.000 A 
ATOM     25  C   UNL     1       6.370   6.612  16.104  0.00  0.00    +0.000 A 
ATOM     26  C   UNL     1       5.420   5.708  15.648  0.00  0.00    +0.000 A 
ATOM     27  C   UNL     1       4.767   4.865  16.555  0.00  0.00    +0.000 A 
ENDBRANCH   8  22
TORSDOF 6
ENDMDL
MODEL 7
REMARK VINA RESULT:      -5.7      2.498      5.002
REMARK  Name = 
REMARK  6 active torsions:
REMARK  status: ('A' for Active; 'I' for Inactive)
REMARK    1  A    between atoms: C_2  and  C_3
REMARK    2  A    between atoms: C_3  and  N_4
REMARK    3  A    between atoms: N_4  and  C_5
REMARK    4  A    between atoms: C_5  and  C_6
REMARK    5  A    between atoms: N_9  and  C_10
REMARK    6  A    between atoms: C_17  and  C_18
REMARK                            x       y       z     vdW  Elec       q    Type
REMARK                         _______ _______ _______ _____ _____    ______ ____
ROOT
ATOM      1  C   UNL     1      -3.532  11.782  18.521  0.00  0.00    +0.000 A 
ATOM      2  N   UNL     1      -4.041  11.321  17.351  0.00  0.00    +0.000 NA
ATOM      3  C   UNL     1      -5.345  11.441  17.089  0.00  0.00    +0.000 A 
ATOM      4  N   UNL     1      -6.268  11.959  17.882  0.00  0.00    +0.000 NA
ATOM      5  C   UNL     1      -5.772  12.375  19.059  0.00  0.00    +0.000 A 
ATOM      6  S   UNL     1      -6.858  13.011  20.197  0.00  0.00    +0.000 S 
ATOM      7  C   UNL     1      -5.622  13.259  21.328  0.00  0.00    +0.000 A 
ATOM      8  C   UNL     1      -4.364  12.904  20.853  0.00  0.00    +0.000 A 
ATOM      9  C   UNL     1      -4.441  12.346  19.486  0.00  0.00    +0.000 A 
ENDROOT
BRANCH   1  13
ATOM     10  C   UNL     1       0.570  11.276  19.472  0.00  0.00    +0.000 C 
ATOM     11  C   UNL     1      -0.464  10.129  19.610  0.00  0.00    +0.000 C 
ATOM     12  C   UNL     1      -1.642  10.214  18.631  0.00  0.00    +0.000 C 
ATOM     13  N   UNL     1      -2.177  11.578  18.729  0.00  0.00    +0.000 N 
ATOM     14  C   UNL     1      -1.273  12.540  18.127  0.00  0.00    +0.000 C 
ATOM     15  C   UNL     1      -0.089  12.606  19.068  0.00  0.00    +0.000 C 
BRANCH  10  16
ATOM     16  C   UNL     1       1.769  10.941  18.584  0.00  0.00    +0.000 C 
BRANCH  16  17
ATOM     17  N   UNL     1       1.451   9.756  17.773  0.00  0.00    +0.000 NA
ATOM     18  H   UNL     1       0.667   9.249  18.180  0.00  0.00    +0.000 HD
BRANCH  17  19
ATOM     19  C   UNL     1       2.558   8.826  17.700  0.00  0.00    +0.000 C 
BRANCH  19  21
ATOM     20  C   UNL     1       2.277   7.322  19.689  0.00  0.00    +0.000 C 
ATOM     21  C   UNL     1       2.140   7.552  18.375  0.00  0.00    +0.000 C 
ENDBRANCH  19  21
ENDBRANCH  17  19
ENDBRANCH  16  17
ENDBRANCH  10  16
ENDBRANCH   1  13
BRANCH   8  22
ATOM     22  C   UNL     1      -3.238  13.168  21.765  0.00  0.00    +0.000 A 
ATOM     23  C   UNL     1      -2.378  12.157  22.186  0.00  0.00    +0.000 A 
ATOM     24  C   UNL     1      -1.210  12.475  22.908  0.00  0.00    +0.000 A 
ATOM     25  C   UNL     1      -0.930  13.792  23.265  0.00  0.00    +0.000 A 
ATOM     26  C   UNL     1      -1.868  14.780  22.995  0.00  0.00    +0.000 A 
ATOM     27  C   UNL     1      -3.014  14.471  22.254  0.00  0.00    +0.000 A 
ENDBRANCH   8  22
TORSDOF 6
ENDMDL
MODEL 8
REMARK VINA RESULT:      -5.7      3.313      7.044
REMARK  Name = 
REMARK  6 active torsions:
REMARK  status: ('A' for Active; 'I' for Inactive)
REMARK    1  A    between atoms: C_2  and  C_3
REMARK    2  A    between atoms: C_3  and  N_4
REMARK    3  A    between atoms: N_4  and  C_5
REMARK    4  A    between atoms: C_5  and  C_6
REMARK    5  A    between atoms: N_9  and  C_10
REMARK    6  A    between atoms: C_17  and  C_18
REMARK                            x       y       z     vdW  Elec       q    Type
REMARK                         _______ _______ _______ _____ _____    ______ ____
ROOT
ATOM      1  C   UNL     1      -1.378  14.652  20.517  0.00  0.00    +0.000 A 
ATOM      2  N   UNL     1      -1.562  15.935  20.116  0.00  0.00    +0.000 NA
ATOM      3  C   UNL     1      -0.710  16.501  19.257  0.00  0.00    +0.000 A 
ATOM      4  N   UNL     1       0.373  15.949  18.734  0.00  0.00    +0.000 NA
ATOM      5  C   UNL     1       0.579  14.693  19.166  0.00  0.00    +0.000 A 
ATOM      6  S   UNL     1       1.966  13.884  18.616  0.00  0.00    +0.000 S 
ATOM      7  C   UNL     1       1.597  12.506  19.530  0.00  0.00    +0.000 A 
ATOM      8  C   UNL     1       0.402  12.617  20.233  0.00  0.00    +0.000 A 
ATOM      9  C   UNL     1      -0.217  13.946  20.039  0.00  0.00    +0.000 A 
ENDROOT
BRANCH   1  13
ATOM     10  C   UNL     1      -3.953  12.867  23.375  0.00  0.00    +0.000 C 
ATOM     11  C   UNL     1      -2.845  13.877  23.770  0.00  0.00    +0.000 C 
ATOM     12  C   UNL     1      -2.509  14.908  22.684  0.00  0.00    +0.000 C 
ATOM     13  N   UNL     1      -2.284  14.158  21.443  0.00  0.00    +0.000 N 
ATOM     14  C   UNL     1      -3.529  13.628  20.917  0.00  0.00    +0.000 C 
ATOM     15  C   UNL     1      -3.920  12.524  21.877  0.00  0.00    +0.000 C 
BRANCH  10  16
ATOM     16  C   UNL     1      -5.356  13.258  23.840  0.00  0.00    +0.000 C 
BRANCH  16  17
ATOM     17  N   UNL     1      -6.292  12.170  23.512  0.00  0.00    +0.000 NA
ATOM     18  H   UNL     1      -5.851  11.504  22.881  0.00  0.00    +0.000 HD
BRANCH  17  19
ATOM     19  C   UNL     1      -7.484  12.652  22.847  0.00  0.00    +0.000 C 
BRANCH  19  21
ATOM     20  C   UNL     1      -7.230  11.317  20.737  0.00  0.00    +0.000 C 
ATOM     21  C   UNL     1      -7.913  11.612  21.853  0.00  0.00    +0.000 C 
ENDBRANCH  19  21
ENDBRANCH  17  19
ENDBRANCH  16  17
ENDBRANCH  10  16
ENDBRANCH   1  13
BRANCH   8  22
ATOM     22  C   UNL     1      -0.011  11.421  20.985  0.00  0.00    +0.000 A 
ATOM     23  C   UNL     1       0.039  10.146  20.428  0.00  0.00    +0.000 A 
ATOM     24  C   UNL     1      -0.190   9.011  21.232  0.00  0.00    +0.000 A 
ATOM     25  C   UNL     1      -0.529   9.147  22.576  0.00  0.00    +0.000 A 
ATOM     26  C   UNL     1      -0.744  10.417  23.094  0.00  0.00    +0.000 A 
ATOM     27  C   UNL     1      -0.491  11.545  22.305  0.00  0.00    +0.000 A 
ENDBRANCH   8  22
TORSDOF 6
ENDMDL
MODEL 9
REMARK VINA RESULT:      -5.7      8.710     10.859
REMARK  Name = 
REMARK  6 active torsions:
REMARK  status: ('A' for Active; 'I' for Inactive)
REMARK    1  A    between atoms: C_2  and  C_3
REMARK    2  A    between atoms: C_3  and  N_4
REMARK    3  A    between atoms: N_4  and  C_5
REMARK    4  A    between atoms: C_5  and  C_6
REMARK    5  A    between atoms: N_9  and  C_10
REMARK    6  A    between atoms: C_17  and  C_18
REMARK                            x       y       z     vdW  Elec       q    Type
REMARK                         _______ _______ _______ _____ _____    ______ ____
ROOT
ATOM      1  C   UNL     1       3.701   6.766  17.916  0.00  0.00    +0.000 A 
ATOM      2  N   UNL     1       3.535   8.070  17.580  0.00  0.00    +0.000 NA
ATOM      3  C   UNL     1       2.657   8.830  18.241  0.00  0.00    +0.000 A 
ATOM      4  N   UNL     1       1.861   8.447  19.225  0.00  0.00    +0.000 NA
ATOM      5  C   UNL     1       1.995   7.146  19.529  0.00  0.00    +0.000 A 
ATOM      6  S   UNL     1       0.990   6.507  20.739  0.00  0.00    +0.000 S 
ATOM      7  C   UNL     1       1.649   4.957  20.552  0.00  0.00    +0.000 A 
ATOM      8  C   UNL     1       2.664   4.903  19.603  0.00  0.00    +0.000 A 
ATOM      9  C   UNL     1       2.871   6.218  18.958  0.00  0.00    +0.000 A 
ENDROOT
BRANCH   1  13
ATOM     10  C   UNL     1       6.583   4.430  15.861  0.00  0.00    +0.000 C 
ATOM     11  C   UNL     1       5.151   3.914  16.156  0.00  0.00    +0.000 C 
ATOM     12  C   UNL     1       4.084   5.014  16.235  0.00  0.00    +0.000 C 
ATOM     13  N   UNL     1       4.599   6.040  17.150  0.00  0.00    +0.000 N 
ATOM     14  C   UNL     1       5.688   6.783  16.543  0.00  0.00    +0.000 C 
ATOM     15  C   UNL     1       6.846   5.808  16.491  0.00  0.00    +0.000 C 
BRANCH  10  16
ATOM     16  C   UNL     1       6.973   4.396  14.383  0.00  0.00    +0.000 C 
BRANCH  16  17
ATOM     17  N   UNL     1       6.307   3.254  13.736  0.00  0.00    +0.000 NA
ATOM     18  H   UNL     1       6.901   2.428  13.781  0.00  0.00    +0.000 HD
BRANCH  17  19
ATOM     19  C   UNL     1       6.034   3.499  12.335  0.00  0.00    +0.000 C 
BRANCH  19  21
ATOM     20  C   UNL     1       3.983   3.254  10.911  0.00  0.00    +0.000 C 
ATOM     21  C   UNL     1       4.556   3.356  12.119  0.00  0.00    +0.000 C 
ENDBRANCH  19  21
ENDBRANCH  17  19
ENDBRANCH  16  17
ENDBRANCH  10  16
ENDBRANCH   1  13
BRANCH   8  22
ATOM     22  C   UNL     1       3.328   3.598  19.450  0.00  0.00    +0.000 A 
ATOM     23  C   UNL     1       4.412   3.226  20.242  0.00  0.00    +0.000 A 
ATOM     24  C   UNL     1       4.905   1.905  20.193  0.00  0.00    +0.000 A 
ATOM     25  C   UNL     1       4.359   0.974  19.312  0.00  0.00    +0.000 A 
ATOM     26  C   UNL     1       3.394   1.387  18.404  0.00  0.00    +0.000 A 
ATOM     27  C   UNL     1       2.884   2.688  18.470  0.00  0.00    +0.000 A 
ENDBRANCH   8  22
TORSDOF 6
ENDMDL
