MODEL 1
REMARK VINA RESULT:      -8.0      0.000      0.000
REMARK  Name = 
REMARK  5 active torsions:
REMARK  status: ('A' for Active; 'I' for Inactive)
REMARK    1  A    between atoms: C_1  and  O_2
REMARK    2  A    between atoms: O_2  and  C_3
REMARK    3  A    between atoms: C_3  and  C_4
REMARK    4  A    between atoms: C_12  and  C_14
REMARK    5  A    between atoms: C_24  and  C_25
REMARK                            x       y       z     vdW  Elec       q    Type
REMARK                         _______ _______ _______ _____ _____    ______ ____
ROOT
ATOM      1  C   UNL     1      -2.548  10.950  18.159  0.00  0.00    +0.000 A 
ATOM      2  C   UNL     1      -2.914  11.843  19.145  0.00  0.00    +0.000 A 
ATOM      3  N   UNL     1      -1.921  11.989  20.081  0.00  0.00    +0.000 NA
ATOM      4  C   UNL     1      -0.947  11.184  19.701  0.00  0.00    +0.000 A 
ATOM      5  N   UNL     1      -1.270  10.592  18.501  0.00  0.00    +0.000 N 
ATOM      6  C   UNL     1      -0.416   9.647  17.810  0.00  0.00    +0.000 C 
ATOM      7  C   UNL     1       1.014   9.727  18.340  0.00  0.00    +0.000 C 
ATOM      8  N   UNL     1       1.002   9.724  19.810  0.00  0.00    +0.000 N 
ATOM      9  C   UNL     1       1.433   8.694  20.658  0.00  0.00    +0.000 C 
ATOM     10  O   UNL     1       1.537   8.842  21.870  0.00  0.00    +0.000 OA
ATOM     11  C   UNL     1       0.362  10.918  20.414  0.00  0.00    +0.000 C 
ATOM     12  C   UNL     1       1.266  12.152  20.332  0.00  0.00    +0.000 C 
ENDROOT
BRANCH   9  13
ATOM     13  C   UNL     1       1.792   7.355  20.112  0.00  0.00    +0.000 A 
ATOM     14  C   UNL     1       2.560   7.248  18.965  0.00  0.00    +0.000 A 
ATOM     15  N   UNL     1       2.878   6.063  18.367  0.00  0.00    +0.000 NA
ATOM     16  C   UNL     1       2.414   4.923  18.920  0.00  0.00    +0.000 A 
ATOM     17  C   UNL     1       2.643   3.684  18.332  0.00  0.00    +0.000 A 
ATOM     18  C   UNL     1       2.137   2.500  18.880  0.00  0.00    +0.000 A 
ATOM     19  C   UNL     1       1.383   2.534  20.047  0.00  0.00    +0.000 A 
ATOM     20  C   UNL     1       1.157   3.752  20.672  0.00  0.00    +0.000 A 
ATOM     21  C   UNL     1       1.672   4.933  20.117  0.00  0.00    +0.000 A 
ATOM     22  C   UNL     1       1.439   6.162  20.727  0.00  0.00    +0.000 A 
ENDBRANCH   9  13
BRANCH   1  23
ATOM     23  C   UNL     1      -3.277  10.435  16.976  0.00  0.00    +0.000 C 
BRANCH  23  25
ATOM     24  C   UNL     1      -3.035  10.336  14.635  0.00  0.00    +0.000 C 
ATOM     25  O   UNL     1      -2.658  11.011  15.828  0.00  0.00    +0.000 OA
ENDBRANCH  23  25
ENDBRANCH   1  23
TORSDOF 3
ENDMDL
MODEL 2
REMARK VINA RESULT:      -7.8      3.293      7.826
REMARK  Name = 
REMARK  5 active torsions:
REMARK  status: ('A' for Active; 'I' for Inactive)
REMARK    1  A    between atoms: C_1  and  O_2
REMARK    2  A    between atoms: O_2  and  C_3
REMARK    3  A    between atoms: C_3  and  C_4
REMARK    4  A    between atoms: C_12  and  C_14
REMARK    5  A    between atoms: C_24  and  C_25
REMARK                            x       y       z     vdW  Elec       q    Type
REMARK                         _______ _______ _______ _____ _____    ______ ____
ROOT
ATOM      1  C   UNL     1       6.867   6.210  17.763  0.00  0.00    +0.000 A 
ATOM      2  C   UNL     1       7.368   4.999  18.194  0.00  0.00    +0.000 A 
ATOM      3  N   UNL     1       6.373   4.195  18.691  0.00  0.00    +0.000 NA
ATOM      4  C   UNL     1       5.260   4.897  18.593  0.00  0.00    +0.000 A 
ATOM      5  N   UNL     1       5.517   6.097  17.970  0.00  0.00    +0.000 N 
ATOM      6  C   UNL     1       4.510   7.106  17.710  0.00  0.00    +0.000 C 
ATOM      7  C   UNL     1       3.109   6.506  17.815  0.00  0.00    +0.000 C 
ATOM      8  N   UNL     1       3.002   5.699  19.039  0.00  0.00    +0.000 N 
ATOM      9  C   UNL     1       2.257   6.000  20.189  0.00  0.00    +0.000 C 
ATOM     10  O   UNL     1       2.097   5.192  21.097  0.00  0.00    +0.000 OA
ATOM     11  C   UNL     1       3.874   4.499  19.053  0.00  0.00    +0.000 C 
ATOM     12  C   UNL     1       3.322   3.384  18.160  0.00  0.00    +0.000 C 
ENDROOT
BRANCH   9  13
ATOM     13  C   UNL     1       1.615   7.334  20.356  0.00  0.00    +0.000 A 
ATOM     14  C   UNL     1       1.799   8.325  19.407  0.00  0.00    +0.000 A 
ATOM     15  N   UNL     1       1.299   9.591  19.518  0.00  0.00    +0.000 NA
ATOM     16  C   UNL     1       0.584   9.901  20.620  0.00  0.00    +0.000 A 
ATOM     17  C   UNL     1       0.097  11.186  20.831  0.00  0.00    +0.000 A 
ATOM     18  C   UNL     1      -0.616  11.525  21.987  0.00  0.00    +0.000 A 
ATOM     19  C   UNL     1      -0.863  10.569  22.965  0.00  0.00    +0.000 A 
ATOM     20  C   UNL     1      -0.412   9.271  22.772  0.00  0.00    +0.000 A 
ATOM     21  C   UNL     1       0.300   8.940  21.609  0.00  0.00    +0.000 A 
ATOM     22  C   UNL     1       0.769   7.645  21.412  0.00  0.00    +0.000 A 
ENDBRANCH   9  13
BRANCH   1  23
ATOM     23  C   UNL     1       7.534   7.407  17.198  0.00  0.00    +0.000 C 
BRANCH  23  25
ATOM     24  C   UNL     1       8.370   9.416  18.100  0.00  0.00    +0.000 C 
ATOM     25  O   UNL     1       8.270   8.008  18.262  0.00  0.00    +0.000 OA
ENDBRANCH  23  25
ENDBRANCH   1  23
TORSDOF 3
ENDMDL
MODEL 3
REMARK VINA RESULT:      -7.6      2.487      7.348
REMARK  Name = 
REMARK  5 active torsions:
REMARK  status: ('A' for Active; 'I' for Inactive)
REMARK    1  A    between atoms: C_1  and  O_2
REMARK    2  A    between atoms: O_2  and  C_3
REMARK    3  A    between atoms: C_3  and  C_4
REMARK    4  A    between atoms: C_12  and  C_14
REMARK    5  A    between atoms: C_24  and  C_25
REMARK                            x       y       z     vdW  Elec       q    Type
REMARK                         _______ _______ _______ _____ _____    ______ ____
ROOT
ATOM      1  C   UNL     1       1.926   3.234  18.565  0.00  0.00    +0.000 A 
ATOM      2  C   UNL     1       2.528   2.895  17.371  0.00  0.00    +0.000 A 
ATOM      3  N   UNL     1       3.239   3.948  16.852  0.00  0.00    +0.000 NA
ATOM      4  C   UNL     1       3.072   4.946  17.699  0.00  0.00    +0.000 A 
ATOM      5  N   UNL     1       2.337   4.523  18.783  0.00  0.00    +0.000 N 
ATOM      6  C   UNL     1       1.971   5.377  19.895  0.00  0.00    +0.000 C 
ATOM      7  C   UNL     1       2.842   6.632  19.919  0.00  0.00    +0.000 C 
ATOM      8  N   UNL     1       2.911   7.217  18.572  0.00  0.00    +0.000 N 
ATOM      9  C   UNL     1       2.326   8.415  18.138  0.00  0.00    +0.000 C 
ATOM     10  O   UNL     1       2.571   8.906  17.042  0.00  0.00    +0.000 OA
ATOM     11  C   UNL     1       3.597   6.361  17.573  0.00  0.00    +0.000 C 
ATOM     12  C   UNL     1       5.117   6.376  17.758  0.00  0.00    +0.000 C 
ENDROOT
BRANCH   9  13
ATOM     13  C   UNL     1       1.369   9.156  19.008  0.00  0.00    +0.000 A 
ATOM     14  C   UNL     1       0.652  10.229  18.506  0.00  0.00    +0.000 A 
ATOM     15  N   UNL     1      -0.193  10.998  19.253  0.00  0.00    +0.000 NA
ATOM     16  C   UNL     1      -0.339  10.702  20.562  0.00  0.00    +0.000 A 
ATOM     17  C   UNL     1      -1.133  11.478  21.398  0.00  0.00    +0.000 A 
ATOM     18  C   UNL     1      -1.264  11.198  22.763  0.00  0.00    +0.000 A 
ATOM     19  C   UNL     1      -0.594  10.117  23.325  0.00  0.00    +0.000 A 
ATOM     20  C   UNL     1       0.186   9.308  22.511  0.00  0.00    +0.000 A 
ATOM     21  C   UNL     1       0.308   9.594  21.143  0.00  0.00    +0.000 A 
ATOM     22  C   UNL     1       1.100   8.798  20.321  0.00  0.00    +0.000 A 
ENDBRANCH   9  13
BRANCH   1  23
ATOM     23  C   UNL     1       1.035   2.471  19.471  0.00  0.00    +0.000 C 
BRANCH  23  25
ATOM     24  C   UNL     1       1.483   2.562  21.782  0.00  0.00    +0.000 C 
ATOM     25  O   UNL     1       1.851   1.986  20.536  0.00  0.00    +0.000 OA
ENDBRANCH  23  25
ENDBRANCH   1  23
TORSDOF 3
ENDMDL
MODEL 4
REMARK VINA RESULT:      -7.5      0.929      1.710
REMARK  Name = 
REMARK  5 active torsions:
REMARK  status: ('A' for Active; 'I' for Inactive)
REMARK    1  A    between atoms: C_1  and  O_2
REMARK    2  A    between atoms: O_2  and  C_3
REMARK    3  A    between atoms: C_3  and  C_4
REMARK    4  A    between atoms: C_12  and  C_14
REMARK    5  A    between atoms: C_24  and  C_25
REMARK                            x       y       z     vdW  Elec       q    Type
REMARK                         _______ _______ _______ _____ _____    ______ ____
ROOT
ATOM      1  C   UNL     1      -2.574  10.868  18.068  0.00  0.00    +0.000 A 
ATOM      2  C   UNL     1      -2.963  11.769  19.037  0.00  0.00    +0.000 A 
ATOM      3  N   UNL     1      -1.976  11.954  19.973  0.00  0.00    +0.000 NA
ATOM      4  C   UNL     1      -0.983  11.165  19.610  0.00  0.00    +0.000 A 
ATOM      5  N   UNL     1      -1.290  10.544  18.420  0.00  0.00    +0.000 N 
ATOM      6  C   UNL     1      -0.413   9.607  17.747  0.00  0.00    +0.000 C 
ATOM      7  C   UNL     1       1.014   9.728  18.279  0.00  0.00    +0.000 C 
ATOM      8  N   UNL     1       0.998   9.751  19.749  0.00  0.00    +0.000 N 
ATOM      9  C   UNL     1       1.449   8.746  20.616  0.00  0.00    +0.000 C 
ATOM     10  O   UNL     1       1.547   8.917  21.826  0.00  0.00    +0.000 OA
ATOM     11  C   UNL     1       0.329  10.941  20.330  0.00  0.00    +0.000 C 
ATOM     12  C   UNL     1       1.206  12.193  20.228  0.00  0.00    +0.000 C 
ENDROOT
BRANCH   9  13
ATOM     13  C   UNL     1       1.840   7.406  20.094  0.00  0.00    +0.000 A 
ATOM     14  C   UNL     1       1.443   6.254  20.751  0.00  0.00    +0.000 A 
ATOM     15  N   UNL     1       1.813   4.995  20.375  0.00  0.00    +0.000 NA
ATOM     16  C   UNL     1       2.617   4.859  19.300  0.00  0.00    +0.000 A 
ATOM     17  C   UNL     1       3.085   3.614  18.896  0.00  0.00    +0.000 A 
ATOM     18  C   UNL     1       3.947   3.467  17.803  0.00  0.00    +0.000 A 
ATOM     19  C   UNL     1       4.360   4.580  17.080  0.00  0.00    +0.000 A 
ATOM     20  C   UNL     1       3.891   5.834  17.444  0.00  0.00    +0.000 A 
ATOM     21  C   UNL     1       3.024   5.971  18.539  0.00  0.00    +0.000 A 
ATOM     22  C   UNL     1       2.559   7.226  18.920  0.00  0.00    +0.000 A 
ENDBRANCH   9  13
BRANCH   1  23
ATOM     23  C   UNL     1      -3.289  10.315  16.893  0.00  0.00    +0.000 C 
BRANCH  23  25
ATOM     24  C   UNL     1      -2.990  10.249  14.558  0.00  0.00    +0.000 C 
ATOM     25  O   UNL     1      -2.785  10.999  15.747  0.00  0.00    +0.000 OA
ENDBRANCH  23  25
ENDBRANCH   1  23
TORSDOF 3
ENDMDL
MODEL 5
REMARK VINA RESULT:      -7.2      2.951      7.895
REMARK  Name = 
REMARK  5 active torsions:
REMARK  status: ('A' for Active; 'I' for Inactive)
REMARK    1  A    between atoms: C_1  and  O_2
REMARK    2  A    between atoms: O_2  and  C_3
REMARK    3  A    between atoms: C_3  and  C_4
REMARK    4  A    between atoms: C_12  and  C_14
REMARK    5  A    between atoms: C_24  and  C_25
REMARK                            x       y       z     vdW  Elec       q    Type
REMARK                         _______ _______ _______ _____ _____    ______ ____
ROOT
ATOM      1  C   UNL     1       6.399   5.950  17.743  0.00  0.00    +0.000 A 
ATOM      2  C   UNL     1       6.663   4.658  18.150  0.00  0.00    +0.000 A 
ATOM      3  N   UNL     1       5.542   4.058  18.666  0.00  0.00    +0.000 NA
ATOM      4  C   UNL     1       4.587   4.965  18.604  0.00  0.00    +0.000 A 
ATOM      5  N   UNL     1       5.059   6.101  17.985  0.00  0.00    +0.000 N 
ATOM      6  C   UNL     1       4.262   7.290  17.761  0.00  0.00    +0.000 C 
ATOM      7  C   UNL     1       2.774   6.975  17.898  0.00  0.00    +0.000 C 
ATOM      8  N   UNL     1       2.541   6.188  19.117  0.00  0.00    +0.000 N 
ATOM      9  C   UNL     1       1.898   6.612  20.289  0.00  0.00    +0.000 C 
ATOM     10  O   UNL     1       1.605   5.839  21.194  0.00  0.00    +0.000 OA
ATOM     11  C   UNL     1       3.161   4.840  19.098  0.00  0.00    +0.000 C 
ATOM     12  C   UNL     1       2.380   3.867  18.209  0.00  0.00    +0.000 C 
ENDROOT
BRANCH   9  13
ATOM     13  C   UNL     1       1.533   8.044  20.484  0.00  0.00    +0.000 A 
ATOM     14  C   UNL     1       1.498   8.591  21.755  0.00  0.00    +0.000 A 
ATOM     15  N   UNL     1       1.112   9.873  22.024  0.00  0.00    +0.000 NA
ATOM     16  C   UNL     1       0.737  10.657  20.991  0.00  0.00    +0.000 A 
ATOM     17  C   UNL     1       0.273  11.952  21.194  0.00  0.00    +0.000 A 
ATOM     18  C   UNL     1      -0.150  12.760  20.132  0.00  0.00    +0.000 A 
ATOM     19  C   UNL     1      -0.112  12.282  18.827  0.00  0.00    +0.000 A 
ATOM     20  C   UNL     1       0.370  11.003  18.590  0.00  0.00    +0.000 A 
ATOM     21  C   UNL     1       0.795  10.201  19.660  0.00  0.00    +0.000 A 
ATOM     22  C   UNL     1       1.267   8.912  19.434  0.00  0.00    +0.000 A 
ENDBRANCH   9  13
BRANCH   1  23
ATOM     23  C   UNL     1       7.274   7.001  17.171  0.00  0.00    +0.000 C 
BRANCH  23  25
ATOM     24  C   UNL     1       8.266   8.924  18.102  0.00  0.00    +0.000 C 
ATOM     25  O   UNL     1       8.042   7.529  18.251  0.00  0.00    +0.000 OA
ENDBRANCH  23  25
ENDBRANCH   1  23
TORSDOF 3
ENDMDL
MODEL 6
REMARK VINA RESULT:      -6.9      2.210      3.198
REMARK  Name = 
REMARK  5 active torsions:
REMARK  status: ('A' for Active; 'I' for Inactive)
REMARK    1  A    between atoms: C_1  and  O_2
REMARK    2  A    between atoms: O_2  and  C_3
REMARK    3  A    between atoms: C_3  and  C_4
REMARK    4  A    between atoms: C_12  and  C_14
REMARK    5  A    between atoms: C_24  and  C_25
REMARK                            x       y       z     vdW  Elec       q    Type
REMARK                         _______ _______ _______ _____ _____    ______ ____
ROOT
ATOM      1  C   UNL     1      -4.369  11.763  18.779  0.00  0.00    +0.000 A 
ATOM      2  C   UNL     1      -4.772  12.739  19.666  0.00  0.00    +0.000 A 
ATOM      3  N   UNL     1      -3.706  13.256  20.360  0.00  0.00    +0.000 NA
ATOM      4  C   UNL     1      -2.645  12.600  19.930  0.00  0.00    +0.000 A 
ATOM      5  N   UNL     1      -3.006  11.735  18.921  0.00  0.00    +0.000 N 
ATOM      6  C   UNL     1      -2.077  10.861  18.233  0.00  0.00    +0.000 C 
ATOM      7  C   UNL     1      -0.638  11.320  18.461  0.00  0.00    +0.000 C 
ATOM      8  N   UNL     1      -0.422  11.599  19.888  0.00  0.00    +0.000 N 
ATOM      9  C   UNL     1       0.356  10.857  20.787  0.00  0.00    +0.000 C 
ATOM     10  O   UNL     1       0.610  11.253  21.919  0.00  0.00    +0.000 OA
ATOM     11  C   UNL     1      -1.216  12.738  20.411  0.00  0.00    +0.000 C 
ATOM     12  C   UNL     1      -0.640  14.086  19.966  0.00  0.00    +0.000 C 
ENDROOT
BRANCH   9  13
ATOM     13  C   UNL     1       0.922   9.534  20.396  0.00  0.00    +0.000 A 
ATOM     14  C   UNL     1       0.771   8.435  21.223  0.00  0.00    +0.000 A 
ATOM     15  N   UNL     1       1.313   7.208  20.969  0.00  0.00    +0.000 NA
ATOM     16  C   UNL     1       2.046   7.053  19.846  0.00  0.00    +0.000 A 
ATOM     17  C   UNL     1       2.680   5.852  19.552  0.00  0.00    +0.000 A 
ATOM     18  C   UNL     1       3.470   5.693  18.407  0.00  0.00    +0.000 A 
ATOM     19  C   UNL     1       3.638   6.749  17.519  0.00  0.00    +0.000 A 
ATOM     20  C   UNL     1       2.997   7.953  17.771  0.00  0.00    +0.000 A 
ATOM     21  C   UNL     1       2.205   8.102  18.919  0.00  0.00    +0.000 A 
ATOM     22  C   UNL     1       1.570   9.310  19.189  0.00  0.00    +0.000 A 
ENDBRANCH   9  13
BRANCH   1  23
ATOM     23  C   UNL     1      -5.136  10.896  17.853  0.00  0.00    +0.000 C 
BRANCH  23  25
ATOM     24  C   UNL     1      -6.997   9.899  18.895  0.00  0.00    +0.000 C 
ATOM     25  O   UNL     1      -6.512  11.039  18.200  0.00  0.00    +0.000 OA
ENDBRANCH  23  25
ENDBRANCH   1  23
TORSDOF 3
ENDMDL
MODEL 7
REMARK VINA RESULT:      -6.9      3.227      7.742
REMARK  Name = 
REMARK  5 active torsions:
REMARK  status: ('A' for Active; 'I' for Inactive)
REMARK    1  A    between atoms: C_1  and  O_2
REMARK    2  A    between atoms: O_2  and  C_3
REMARK    3  A    between atoms: C_3  and  C_4
REMARK    4  A    between atoms: C_12  and  C_14
REMARK    5  A    between atoms: C_24  and  C_25
REMARK                            x       y       z     vdW  Elec       q    Type
REMARK                         _______ _______ _______ _____ _____    ______ ____
ROOT
ATOM      1  C   UNL     1       6.286   5.623  17.555  0.00  0.00    +0.000 A 
ATOM      2  C   UNL     1       6.767   4.445  18.087  0.00  0.00    +0.000 A 
ATOM      3  N   UNL     1       5.795   3.781  18.792  0.00  0.00    +0.000 NA
ATOM      4  C   UNL     1       4.718   4.539  18.723  0.00  0.00    +0.000 A 
ATOM      5  N   UNL     1       4.965   5.631  17.921  0.00  0.00    +0.000 N 
ATOM      6  C   UNL     1       3.990   6.665  17.640  0.00  0.00    +0.000 C 
ATOM      7  C   UNL     1       2.581   6.182  17.976  0.00  0.00    +0.000 C 
ATOM      8  N   UNL     1       2.574   5.546  19.301  0.00  0.00    +0.000 N 
ATOM      9  C   UNL     1       1.986   6.040  20.474  0.00  0.00    +0.000 C 
ATOM     10  O   UNL     1       1.890   5.367  21.494  0.00  0.00    +0.000 OA
ATOM     11  C   UNL     1       3.375   4.300  19.380  0.00  0.00    +0.000 C 
ATOM     12  C   UNL     1       2.664   3.121  18.709  0.00  0.00    +0.000 C 
ENDROOT
BRANCH   9  13
ATOM     13  C   UNL     1       1.440   7.426  20.530  0.00  0.00    +0.000 A 
ATOM     14  C   UNL     1       1.710   8.327  19.515  0.00  0.00    +0.000 A 
ATOM     15  N   UNL     1       1.302   9.630  19.523  0.00  0.00    +0.000 NA
ATOM     16  C   UNL     1       0.596  10.072  20.585  0.00  0.00    +0.000 A 
ATOM     17  C   UNL     1       0.202  11.401  20.692  0.00  0.00    +0.000 A 
ATOM     18  C   UNL     1      -0.501  11.876  21.806  0.00  0.00    +0.000 A 
ATOM     19  C   UNL     1      -0.830  11.016  22.847  0.00  0.00    +0.000 A 
ATOM     20  C   UNL     1      -0.472   9.679  22.758  0.00  0.00    +0.000 A 
ATOM     21  C   UNL     1       0.229   9.211  21.636  0.00  0.00    +0.000 A 
ATOM     22  C   UNL     1       0.605   7.874  21.544  0.00  0.00    +0.000 A 
ENDBRANCH   9  13
BRANCH   1  23
ATOM     23  C   UNL     1       6.946   6.690  16.766  0.00  0.00    +0.000 C 
BRANCH  23  25
ATOM     24  C   UNL     1       6.717   5.346  14.845  0.00  0.00    +0.000 C 
ATOM     25  O   UNL     1       7.622   6.046  15.688  0.00  0.00    +0.000 OA
ENDBRANCH  23  25
ENDBRANCH   1  23
TORSDOF 3
ENDMDL
MODEL 8
REMARK VINA RESULT:      -6.9      1.495      2.196
REMARK  Name = 
REMARK  5 active torsions:
REMARK  status: ('A' for Active; 'I' for Inactive)
REMARK    1  A    between atoms: C_1  and  O_2
REMARK    2  A    between atoms: O_2  and  C_3
REMARK    3  A    between atoms: C_3  and  C_4
REMARK    4  A    between atoms: C_12  and  C_14
REMARK    5  A    between atoms: C_24  and  C_25
REMARK                            x       y       z     vdW  Elec       q    Type
REMARK                         _______ _______ _______ _____ _____    ______ ____
ROOT
ATOM      1  C   UNL     1      -3.047  11.525  18.754  0.00  0.00    +0.000 A 
ATOM      2  C   UNL     1      -3.377  12.415  19.755  0.00  0.00    +0.000 A 
ATOM      3  N   UNL     1      -2.324  12.616  20.612  0.00  0.00    +0.000 NA
ATOM      4  C   UNL     1      -1.347  11.849  20.168  0.00  0.00    +0.000 A 
ATOM      5  N   UNL     1      -1.733  11.226  19.002  0.00  0.00    +0.000 N 
ATOM      6  C   UNL     1      -0.892  10.309  18.259  0.00  0.00    +0.000 C 
ATOM      7  C   UNL     1       0.568  10.457  18.679  0.00  0.00    +0.000 C 
ATOM      8  N   UNL     1       0.667  10.475  20.146  0.00  0.00    +0.000 N 
ATOM      9  C   UNL     1       1.204   9.476  20.970  0.00  0.00    +0.000 C 
ATOM     10  O   UNL     1       1.392   9.645  22.169  0.00  0.00    +0.000 OA
ATOM     11  C   UNL     1       0.022  11.649  20.783  0.00  0.00    +0.000 C 
ATOM     12  C   UNL     1       0.862  12.919  20.620  0.00  0.00    +0.000 C 
ENDROOT
BRANCH   9  13
ATOM     13  C   UNL     1       1.580   8.146  20.412  0.00  0.00    +0.000 A 
ATOM     14  C   UNL     1       1.197   6.982  21.056  0.00  0.00    +0.000 A 
ATOM     15  N   UNL     1       1.555   5.730  20.646  0.00  0.00    +0.000 NA
ATOM     16  C   UNL     1       2.333   5.614  19.550  0.00  0.00    +0.000 A 
ATOM     17  C   UNL     1       2.789   4.376  19.110  0.00  0.00    +0.000 A 
ATOM     18  C   UNL     1       3.624   4.250  17.993  0.00  0.00    +0.000 A 
ATOM     19  C   UNL     1       4.022   5.377  17.283  0.00  0.00    +0.000 A 
ATOM     20  C   UNL     1       3.563   6.624  17.683  0.00  0.00    +0.000 A 
ATOM     21  C   UNL     1       2.724   6.741  18.801  0.00  0.00    +0.000 A 
ATOM     22  C   UNL     1       2.270   7.988  19.218  0.00  0.00    +0.000 A 
ENDBRANCH   9  13
BRANCH   1  23
ATOM     23  C   UNL     1      -3.840  10.962  17.635  0.00  0.00    +0.000 C 
BRANCH  23  25
ATOM     24  C   UNL     1      -6.158  11.331  17.830  0.00  0.00    +0.000 C 
ATOM     25  O   UNL     1      -4.916  11.868  17.397  0.00  0.00    +0.000 OA
ENDBRANCH  23  25
ENDBRANCH   1  23
TORSDOF 3
ENDMDL
MODEL 9
REMARK VINA RESULT:      -6.7      2.923      7.804
REMARK  Name = 
REMARK  5 active torsions:
REMARK  status: ('A' for Active; 'I' for Inactive)
REMARK    1  A    between atoms: C_1  and  O_2
REMARK    2  A    between atoms: O_2  and  C_3
REMARK    3  A    between atoms: C_3  and  C_4
REMARK    4  A    between atoms: C_12  and  C_14
REMARK    5  A    between atoms: C_24  and  C_25
REMARK                            x       y       z     vdW  Elec       q    Type
REMARK                         _______ _______ _______ _____ _____    ______ ____
ROOT
ATOM      1  C   UNL     1       6.094   5.669  17.781  0.00  0.00    +0.000 A 
ATOM      2  C   UNL     1       6.315   4.390  18.248  0.00  0.00    +0.000 A 
ATOM      3  N   UNL     1       5.190   3.872  18.837  0.00  0.00    +0.000 NA
ATOM      4  C   UNL     1       4.274   4.819  18.761  0.00  0.00    +0.000 A 
ATOM      5  N   UNL     1       4.773   5.896  18.064  0.00  0.00    +0.000 N 
ATOM      6  C   UNL     1       4.023   7.109  17.804  0.00  0.00    +0.000 C 
ATOM      7  C   UNL     1       2.529   6.872  18.013  0.00  0.00    +0.000 C 
ATOM      8  N   UNL     1       2.308   6.163  19.282  0.00  0.00    +0.000 N 
ATOM      9  C   UNL     1       1.732   6.679  20.451  0.00  0.00    +0.000 C 
ATOM     10  O   UNL     1       1.440   5.969  21.407  0.00  0.00    +0.000 OA
ATOM     11  C   UNL     1       2.865   4.788  19.313  0.00  0.00    +0.000 C 
ATOM     12  C   UNL     1       2.006   3.808  18.508  0.00  0.00    +0.000 C 
ENDROOT
BRANCH   9  13
ATOM     13  C   UNL     1       1.440   8.135  20.581  0.00  0.00    +0.000 A 
ATOM     14  C   UNL     1       1.455   8.744  21.824  0.00  0.00    +0.000 A 
ATOM     15  N   UNL     1       1.137  10.055  22.034  0.00  0.00    +0.000 NA
ATOM     16  C   UNL     1       0.782  10.806  20.970  0.00  0.00    +0.000 A 
ATOM     17  C   UNL     1       0.385  12.130  21.116  0.00  0.00    +0.000 A 
ATOM     18  C   UNL     1      -0.018  12.906  20.022  0.00  0.00    +0.000 A 
ATOM     19  C   UNL     1      -0.026  12.363  18.742  0.00  0.00    +0.000 A 
ATOM     20  C   UNL     1       0.388  11.052  18.561  0.00  0.00    +0.000 A 
ATOM     21  C   UNL     1       0.793  10.283  19.663  0.00  0.00    +0.000 A 
ATOM     22  C   UNL     1       1.198   8.962  19.494  0.00  0.00    +0.000 A 
ENDBRANCH   9  13
BRANCH   1  23
ATOM     23  C   UNL     1       6.993   6.646  17.121  0.00  0.00    +0.000 C 
BRANCH  23  25
ATOM     24  C   UNL     1       6.631   5.487  15.102  0.00  0.00    +0.000 C 
ATOM     25  O   UNL     1       7.601   5.968  16.023  0.00  0.00    +0.000 OA
ENDBRANCH  23  25
ENDBRANCH   1  23
TORSDOF 3
ENDMDL
