MODEL 1
REMARK VINA RESULT:      -6.8      0.000      0.000
REMARK  Name = 
REMARK  4 active torsions:
REMARK  status: ('A' for Active; 'I' for Inactive)
REMARK    1  A    between atoms: C_4  and  C_5
REMARK    2  A    between atoms: C_6  and  C_7
REMARK    3  A    between atoms: C_7  and  N_8
REMARK    4  A    between atoms: C_9  and  C_11
REMARK                            x       y       z     vdW  Elec       q    Type
REMARK                         _______ _______ _______ _____ _____    ______ ____
ROOT
ATOM      1  C   UNL     1       6.753   5.181  15.701  0.00  0.00    +0.000 C 
ATOM      2  C   UNL     1       7.133   4.502  16.796  0.00  0.00    +0.000 C 
ENDROOT
BRANCH   1   6
ATOM      3  N   UNL     1       5.898   2.542  11.830  0.00  0.00    +0.000 N 
ATOM      4  C   UNL     1       6.358   3.469  12.678  0.00  0.00    +0.000 A 
ATOM      5  N   UNL     1       6.030   3.640  13.934  0.00  0.00    +0.000 NA
ATOM      6  C   UNL     1       6.798   4.693  14.366  0.00  0.00    +0.000 A 
ATOM      7  C   UNL     1       7.591   5.177  13.354  0.00  0.00    +0.000 A 
ATOM      8  N   UNL     1       7.298   4.381  12.280  0.00  0.00    +0.000 N 
ATOM      9  H   UNL     1       5.080   2.021  12.134  0.00  0.00    +0.000 HD
ATOM     10  H   UNL     1       5.993   2.619  10.827  0.00  0.00    +0.000 HD
ATOM     11  H   UNL     1       7.708   4.431  11.360  0.00  0.00    +0.000 HD
ENDBRANCH   1   6
BRANCH   2  12
ATOM     12  C   UNL     1       7.025   5.046  18.181  0.00  0.00    +0.000 C 
BRANCH  12  13
ATOM     13  N   UNL     1       5.904   4.433  18.853  0.00  0.00    +0.000 N 
ATOM     14  C   UNL     1       4.673   5.057  18.826  0.00  0.00    +0.000 C 
ATOM     15  O   UNL     1       4.478   6.132  18.264  0.00  0.00    +0.000 OA
ATOM     16  H   UNL     1       5.977   3.467  19.140  0.00  0.00    +0.000 HD
BRANCH  14  17
ATOM     17  C   UNL     1       3.548   4.364  19.492  0.00  0.00    +0.000 A 
ATOM     18  C   UNL     1       2.614   5.019  20.296  0.00  0.00    +0.000 A 
ATOM     19  C   UNL     1       1.564   4.291  20.854  0.00  0.00    +0.000 A 
ATOM     20  C   UNL     1       1.485   2.932  20.591  0.00  0.00    +0.000 A 
ATOM     21  N   UNL     1       2.367   2.269  19.814  0.00  0.00    +0.000 NA
ATOM     22  C   UNL     1       3.374   3.002  19.273  0.00  0.00    +0.000 A 
ENDBRANCH  14  17
ENDBRANCH  12  13
ENDBRANCH   2  12
TORSDOF 4
ENDMDL
MODEL 2
REMARK VINA RESULT:      -6.6      1.219      1.693
REMARK  Name = 
REMARK  4 active torsions:
REMARK  status: ('A' for Active; 'I' for Inactive)
REMARK    1  A    between atoms: C_4  and  C_5
REMARK    2  A    between atoms: C_6  and  C_7
REMARK    3  A    between atoms: C_7  and  N_8
REMARK    4  A    between atoms: C_9  and  C_11
REMARK                            x       y       z     vdW  Elec       q    Type
REMARK                         _______ _______ _______ _____ _____    ______ ____
ROOT
ATOM      1  C   UNL     1       6.448   4.449  16.368  0.00  0.00    +0.000 C 
ATOM      2  C   UNL     1       7.204   4.840  17.407  0.00  0.00    +0.000 C 
ENDROOT
BRANCH   1   6
ATOM      3  N   UNL     1       8.344   6.155  12.348  0.00  0.00    +0.000 N 
ATOM      4  C   UNL     1       7.675   5.419  13.242  0.00  0.00    +0.000 A 
ATOM      5  N   UNL     1       7.625   5.583  14.540  0.00  0.00    +0.000 NA
ATOM      6  C   UNL     1       6.786   4.598  14.995  0.00  0.00    +0.000 A 
ATOM      7  C   UNL     1       6.332   3.814  13.961  0.00  0.00    +0.000 A 
ATOM      8  N   UNL     1       6.911   4.355  12.845  0.00  0.00    +0.000 N 
ATOM      9  H   UNL     1       9.027   6.808  12.723  0.00  0.00    +0.000 HD
ATOM     10  H   UNL     1       8.549   5.832  11.412  0.00  0.00    +0.000 HD
ATOM     11  H   UNL     1       6.789   4.049  11.892  0.00  0.00    +0.000 HD
ENDBRANCH   1   6
BRANCH   2  12
ATOM     12  C   UNL     1       6.821   4.621  18.833  0.00  0.00    +0.000 C 
BRANCH  12  13
ATOM     13  N   UNL     1       5.543   3.951  18.890  0.00  0.00    +0.000 N 
ATOM     14  C   UNL     1       4.421   4.662  19.264  0.00  0.00    +0.000 C 
ATOM     15  O   UNL     1       4.452   5.852  19.571  0.00  0.00    +0.000 OA
ATOM     16  H   UNL     1       5.447   3.046  18.451  0.00  0.00    +0.000 HD
BRANCH  14  17
ATOM     17  C   UNL     1       3.130   3.940  19.263  0.00  0.00    +0.000 A 
ATOM     18  C   UNL     1       2.103   4.205  20.171  0.00  0.00    +0.000 A 
ATOM     19  C   UNL     1       0.905   3.499  20.072  0.00  0.00    +0.000 A 
ATOM     20  C   UNL     1       0.775   2.551  19.069  0.00  0.00    +0.000 A 
ATOM     21  N   UNL     1       1.744   2.274  18.172  0.00  0.00    +0.000 NA
ATOM     22  C   UNL     1       2.897   2.983  18.282  0.00  0.00    +0.000 A 
ENDBRANCH  14  17
ENDBRANCH  12  13
ENDBRANCH   2  12
TORSDOF 4
ENDMDL
MODEL 3
REMARK VINA RESULT:      -6.6      3.029      3.767
REMARK  Name = 
REMARK  4 active torsions:
REMARK  status: ('A' for Active; 'I' for Inactive)
REMARK    1  A    between atoms: C_4  and  C_5
REMARK    2  A    between atoms: C_6  and  C_7
REMARK    3  A    between atoms: C_7  and  N_8
REMARK    4  A    between atoms: C_9  and  C_11
REMARK                            x       y       z     vdW  Elec       q    Type
REMARK                         _______ _______ _______ _____ _____    ______ ____
ROOT
ATOM      1  C   UNL     1       5.320   4.544  16.382  0.00  0.00    +0.000 C 
ATOM      2  C   UNL     1       4.252   3.757  16.597  0.00  0.00    +0.000 C 
ENDROOT
BRANCH   1   6
ATOM      3  N   UNL     1       8.601   5.811  13.173  0.00  0.00    +0.000 N 
ATOM      4  C   UNL     1       7.588   5.209  13.807  0.00  0.00    +0.000 A 
ATOM      5  N   UNL     1       7.158   5.432  15.023  0.00  0.00    +0.000 NA
ATOM      6  C   UNL     1       6.088   4.589  15.187  0.00  0.00    +0.000 A 
ATOM      7  C   UNL     1       5.875   3.833  14.059  0.00  0.00    +0.000 A 
ATOM      8  N   UNL     1       6.845   4.244  13.185  0.00  0.00    +0.000 N 
ATOM      9  H   UNL     1       9.217   6.380  13.747  0.00  0.00    +0.000 HD
ATOM     10  H   UNL     1       9.041   5.426  12.348  0.00  0.00    +0.000 HD
ATOM     11  H   UNL     1       6.985   3.919  12.240  0.00  0.00    +0.000 HD
ENDBRANCH   1   6
BRANCH   2  12
ATOM     12  C   UNL     1       3.454   3.779  17.858  0.00  0.00    +0.000 C 
BRANCH  12  13
ATOM     13  N   UNL     1       2.773   5.047  17.975  0.00  0.00    +0.000 N 
ATOM     14  C   UNL     1       3.194   5.958  18.921  0.00  0.00    +0.000 C 
ATOM     15  O   UNL     1       4.124   5.741  19.695  0.00  0.00    +0.000 OA
ATOM     16  H   UNL     1       2.154   5.338  17.231  0.00  0.00    +0.000 HD
BRANCH  14  17
ATOM     17  C   UNL     1       2.492   7.260  18.969  0.00  0.00    +0.000 A 
ATOM     18  C   UNL     1       2.378   8.109  17.866  0.00  0.00    +0.000 A 
ATOM     19  C   UNL     1       1.666   9.301  17.993  0.00  0.00    +0.000 A 
ATOM     20  C   UNL     1       1.095   9.605  19.219  0.00  0.00    +0.000 A 
ATOM     21  N   UNL     1       1.180   8.805  20.302  0.00  0.00    +0.000 NA
ATOM     22  C   UNL     1       1.868   7.644  20.150  0.00  0.00    +0.000 A 
ENDBRANCH  14  17
ENDBRANCH  12  13
ENDBRANCH   2  12
TORSDOF 4
ENDMDL
MODEL 4
REMARK VINA RESULT:      -6.6      1.559      2.018
REMARK  Name = 
REMARK  4 active torsions:
REMARK  status: ('A' for Active; 'I' for Inactive)
REMARK    1  A    between atoms: C_4  and  C_5
REMARK    2  A    between atoms: C_6  and  C_7
REMARK    3  A    between atoms: C_7  and  N_8
REMARK    4  A    between atoms: C_9  and  C_11
REMARK                            x       y       z     vdW  Elec       q    Type
REMARK                         _______ _______ _______ _____ _____    ______ ____
ROOT
ATOM      1  C   UNL     1       6.040   4.885  16.675  0.00  0.00    +0.000 C 
ATOM      2  C   UNL     1       6.830   5.009  17.754  0.00  0.00    +0.000 C 
ENDROOT
BRANCH   1   6
ATOM      3  N   UNL     1       8.366   5.691  12.599  0.00  0.00    +0.000 N 
ATOM      4  C   UNL     1       7.570   5.181  13.546  0.00  0.00    +0.000 A 
ATOM      5  N   UNL     1       7.443   5.579  14.787  0.00  0.00    +0.000 NA
ATOM      6  C   UNL     1       6.486   4.760  15.331  0.00  0.00    +0.000 A 
ATOM      7  C   UNL     1       6.036   3.842  14.412  0.00  0.00    +0.000 A 
ATOM      8  N   UNL     1       6.741   4.127  13.273  0.00  0.00    +0.000 N 
ATOM      9  H   UNL     1       9.078   6.344  12.914  0.00  0.00    +0.000 HD
ATOM     10  H   UNL     1       8.606   5.191  11.754  0.00  0.00    +0.000 HD
ATOM     11  H   UNL     1       6.658   3.666  12.380  0.00  0.00    +0.000 HD
ENDBRANCH   1   6
BRANCH   2  12
ATOM     12  C   UNL     1       6.310   5.096  19.150  0.00  0.00    +0.000 C 
BRANCH  12  13
ATOM     13  N   UNL     1       4.898   4.795  19.157  0.00  0.00    +0.000 N 
ATOM     14  C   UNL     1       4.474   3.540  19.541  0.00  0.00    +0.000 C 
ATOM     15  O   UNL     1       5.246   2.642  19.869  0.00  0.00    +0.000 OA
ATOM     16  H   UNL     1       4.237   5.558  19.097  0.00  0.00    +0.000 HD
BRANCH  14  17
ATOM     17  C   UNL     1       3.014   3.298  19.574  0.00  0.00    +0.000 A 
ATOM     18  C   UNL     1       2.217   3.578  20.685  0.00  0.00    +0.000 A 
ATOM     19  C   UNL     1       0.843   3.352  20.614  0.00  0.00    +0.000 A 
ATOM     20  C   UNL     1       0.314   2.852  19.434  0.00  0.00    +0.000 A 
ATOM     21  N   UNL     1       1.054   2.576  18.340  0.00  0.00    +0.000 NA
ATOM     22  C   UNL     1       2.387   2.816  18.431  0.00  0.00    +0.000 A 
ENDBRANCH  14  17
ENDBRANCH  12  13
ENDBRANCH   2  12
TORSDOF 4
ENDMDL
MODEL 5
REMARK VINA RESULT:      -6.6      1.216      1.281
REMARK  Name = 
REMARK  4 active torsions:
REMARK  status: ('A' for Active; 'I' for Inactive)
REMARK    1  A    between atoms: C_4  and  C_5
REMARK    2  A    between atoms: C_6  and  C_7
REMARK    3  A    between atoms: C_7  and  N_8
REMARK    4  A    between atoms: C_9  and  C_11
REMARK                            x       y       z     vdW  Elec       q    Type
REMARK                         _______ _______ _______ _____ _____    ______ ____
ROOT
ATOM      1  C   UNL     1       6.575   5.202  15.501  0.00  0.00    +0.000 C 
ATOM      2  C   UNL     1       5.438   5.408  16.187  0.00  0.00    +0.000 C 
ENDROOT
BRANCH   1   6
ATOM      3  N   UNL     1       5.829   2.391  11.731  0.00  0.00    +0.000 N 
ATOM      4  C   UNL     1       6.273   3.350  12.552  0.00  0.00    +0.000 A 
ATOM      5  N   UNL     1       5.895   3.590  13.782  0.00  0.00    +0.000 NA
ATOM      6  C   UNL     1       6.666   4.648  14.195  0.00  0.00    +0.000 A 
ATOM      7  C   UNL     1       7.513   5.065  13.196  0.00  0.00    +0.000 A 
ATOM      8  N   UNL     1       7.248   4.222  12.151  0.00  0.00    +0.000 N 
ATOM      9  H   UNL     1       4.988   1.902  12.024  0.00  0.00    +0.000 HD
ATOM     10  H   UNL     1       5.968   2.416  10.730  0.00  0.00    +0.000 HD
ATOM     11  H   UNL     1       7.699   4.218  11.248  0.00  0.00    +0.000 HD
ENDBRANCH   1   6
BRANCH   2  12
ATOM     12  C   UNL     1       5.395   6.034  17.540  0.00  0.00    +0.000 C 
BRANCH  12  13
ATOM     13  N   UNL     1       4.276   5.501  18.282  0.00  0.00    +0.000 N 
ATOM     14  C   UNL     1       4.467   4.417  19.114  0.00  0.00    +0.000 C 
ATOM     15  O   UNL     1       5.554   3.861  19.250  0.00  0.00    +0.000 OA
ATOM     16  H   UNL     1       3.432   6.053  18.353  0.00  0.00    +0.000 HD
BRANCH  14  17
ATOM     17  C   UNL     1       3.298   3.939  19.884  0.00  0.00    +0.000 A 
ATOM     18  C   UNL     1       1.990   4.355  19.628  0.00  0.00    +0.000 A 
ATOM     19  C   UNL     1       0.945   3.824  20.382  0.00  0.00    +0.000 A 
ATOM     20  C   UNL     1       1.244   2.897  21.369  0.00  0.00    +0.000 A 
ATOM     21  N   UNL     1       2.495   2.469  21.639  0.00  0.00    +0.000 NA
ATOM     22  C   UNL     1       3.494   2.992  20.883  0.00  0.00    +0.000 A 
ENDBRANCH  14  17
ENDBRANCH  12  13
ENDBRANCH   2  12
TORSDOF 4
ENDMDL
MODEL 6
REMARK VINA RESULT:      -6.6      1.294      1.903
REMARK  Name = 
REMARK  4 active torsions:
REMARK  status: ('A' for Active; 'I' for Inactive)
REMARK    1  A    between atoms: C_4  and  C_5
REMARK    2  A    between atoms: C_6  and  C_7
REMARK    3  A    between atoms: C_7  and  N_8
REMARK    4  A    between atoms: C_9  and  C_11
REMARK                            x       y       z     vdW  Elec       q    Type
REMARK                         _______ _______ _______ _____ _____    ______ ____
ROOT
ATOM      1  C   UNL     1       6.273   4.632  16.801  0.00  0.00    +0.000 C 
ATOM      2  C   UNL     1       6.934   5.274  17.779  0.00  0.00    +0.000 C 
ENDROOT
BRANCH   1   6
ATOM      3  N   UNL     1       8.327   5.807  12.669  0.00  0.00    +0.000 N 
ATOM      4  C   UNL     1       7.593   5.213  13.617  0.00  0.00    +0.000 A 
ATOM      5  N   UNL     1       7.551   5.496  14.894  0.00  0.00    +0.000 NA
ATOM      6  C   UNL     1       6.629   4.629  15.425  0.00  0.00    +0.000 A 
ATOM      7  C   UNL     1       6.116   3.797  14.459  0.00  0.00    +0.000 A 
ATOM      8  N   UNL     1       6.744   4.185  13.306  0.00  0.00    +0.000 N 
ATOM      9  H   UNL     1       9.061   6.431  12.994  0.00  0.00    +0.000 HD
ATOM     10  H   UNL     1       8.508   5.386  11.768  0.00  0.00    +0.000 HD
ATOM     11  H   UNL     1       6.601   3.807  12.382  0.00  0.00    +0.000 HD
ENDBRANCH   1   6
BRANCH   2  12
ATOM     12  C   UNL     1       6.541   5.210  19.217  0.00  0.00    +0.000 C 
BRANCH  12  13
ATOM     13  N   UNL     1       5.350   4.405  19.356  0.00  0.00    +0.000 N 
ATOM     14  C   UNL     1       4.116   5.021  19.394  0.00  0.00    +0.000 C 
ATOM     15  O   UNL     1       3.973   6.240  19.330  0.00  0.00    +0.000 OA
ATOM     16  H   UNL     1       5.415   3.408  19.202  0.00  0.00    +0.000 HD
BRANCH  14  17
ATOM     17  C   UNL     1       2.925   4.148  19.490  0.00  0.00    +0.000 A 
ATOM     18  C   UNL     1       2.210   3.703  18.377  0.00  0.00    +0.000 A 
ATOM     19  C   UNL     1       1.121   2.852  18.561  0.00  0.00    +0.000 A 
ATOM     20  C   UNL     1       0.783   2.478  19.852  0.00  0.00    +0.000 A 
ATOM     21  N   UNL     1       1.455   2.885  20.949  0.00  0.00    +0.000 NA
ATOM     22  C   UNL     1       2.519   3.703  20.743  0.00  0.00    +0.000 A 
ENDBRANCH  14  17
ENDBRANCH  12  13
ENDBRANCH   2  12
TORSDOF 4
ENDMDL
MODEL 7
REMARK VINA RESULT:      -6.6      1.527      7.327
REMARK  Name = 
REMARK  4 active torsions:
REMARK  status: ('A' for Active; 'I' for Inactive)
REMARK    1  A    between atoms: C_4  and  C_5
REMARK    2  A    between atoms: C_6  and  C_7
REMARK    3  A    between atoms: C_7  and  N_8
REMARK    4  A    between atoms: C_9  and  C_11
REMARK                            x       y       z     vdW  Elec       q    Type
REMARK                         _______ _______ _______ _____ _____    ______ ____
ROOT
ATOM      1  C   UNL     1       3.693   4.493  18.721  0.00  0.00    +0.000 C 
ATOM      2  C   UNL     1       4.990   4.316  19.024  0.00  0.00    +0.000 C 
ENDROOT
BRANCH   1   6
ATOM      3  N   UNL     1       1.053   2.524  22.160  0.00  0.00    +0.000 N 
ATOM      4  C   UNL     1       1.477   3.039  21.000  0.00  0.00    +0.000 A 
ATOM      5  N   UNL     1       2.649   3.560  20.734  0.00  0.00    +0.000 NA
ATOM      6  C   UNL     1       2.595   3.909  19.408  0.00  0.00    +0.000 A 
ATOM      7  C   UNL     1       1.368   3.609  18.865  0.00  0.00    +0.000 A 
ATOM      8  N   UNL     1       0.665   3.052  19.899  0.00  0.00    +0.000 N 
ATOM      9  H   UNL     1       1.634   2.710  22.973  0.00  0.00    +0.000 HD
ATOM     10  H   UNL     1       0.076   2.376  22.372  0.00  0.00    +0.000 HD
ATOM     11  H   UNL     1      -0.276   2.690  19.864  0.00  0.00    +0.000 HD
ENDBRANCH   1   6
BRANCH   2  12
ATOM     12  C   UNL     1       6.105   4.988  18.295  0.00  0.00    +0.000 C 
BRANCH  12  13
ATOM     13  N   UNL     1       6.077   4.597  16.906  0.00  0.00    +0.000 N 
ATOM     14  C   UNL     1       6.812   5.313  15.984  0.00  0.00    +0.000 C 
ATOM     15  O   UNL     1       7.491   6.293  16.283  0.00  0.00    +0.000 OA
ATOM     16  H   UNL     1       5.706   3.689  16.663  0.00  0.00    +0.000 HD
BRANCH  14  17
ATOM     17  C   UNL     1       6.785   4.842  14.581  0.00  0.00    +0.000 A 
ATOM     18  C   UNL     1       7.666   5.305  13.601  0.00  0.00    +0.000 A 
ATOM     19  C   UNL     1       7.590   4.777  12.313  0.00  0.00    +0.000 A 
ATOM     20  C   UNL     1       6.635   3.808  12.048  0.00  0.00    +0.000 A 
ATOM     21  N   UNL     1       5.772   3.335  12.972  0.00  0.00    +0.000 NA
ATOM     22  C   UNL     1       5.874   3.856  14.222  0.00  0.00    +0.000 A 
ENDBRANCH  14  17
ENDBRANCH  12  13
ENDBRANCH   2  12
TORSDOF 4
ENDMDL
MODEL 8
REMARK VINA RESULT:      -6.6      4.921      6.690
REMARK  Name = 
REMARK  4 active torsions:
REMARK  status: ('A' for Active; 'I' for Inactive)
REMARK    1  A    between atoms: C_4  and  C_5
REMARK    2  A    between atoms: C_6  and  C_7
REMARK    3  A    between atoms: C_7  and  N_8
REMARK    4  A    between atoms: C_9  and  C_11
REMARK                            x       y       z     vdW  Elec       q    Type
REMARK                         _______ _______ _______ _____ _____    ______ ____
ROOT
ATOM      1  C   UNL     1       2.904   6.071  18.450  0.00  0.00    +0.000 C 
ATOM      2  C   UNL     1       3.184   7.324  18.055  0.00  0.00    +0.000 C 
ENDROOT
BRANCH   1   6
ATOM      3  N   UNL     1       4.892   1.988  19.880  0.00  0.00    +0.000 N 
ATOM      4  C   UNL     1       4.670   3.183  19.321  0.00  0.00    +0.000 A 
ATOM      5  N   UNL     1       3.557   3.873  19.319  0.00  0.00    +0.000 NA
ATOM      6  C   UNL     1       3.854   5.033  18.648  0.00  0.00    +0.000 A 
ATOM      7  C   UNL     1       5.161   5.040  18.223  0.00  0.00    +0.000 A 
ATOM      8  N   UNL     1       5.669   3.848  18.663  0.00  0.00    +0.000 N 
ATOM      9  H   UNL     1       4.070   1.476  20.189  0.00  0.00    +0.000 HD
ATOM     10  H   UNL     1       5.678   1.402  19.633  0.00  0.00    +0.000 HD
ATOM     11  H   UNL     1       6.614   3.515  18.551  0.00  0.00    +0.000 HD
ENDBRANCH   1   6
BRANCH   2  12
ATOM     12  C   UNL     1       2.151   8.390  17.902  0.00  0.00    +0.000 C 
BRANCH  12  13
ATOM     13  N   UNL     1       1.603   8.718  19.197  0.00  0.00    +0.000 N 
ATOM     14  C   UNL     1       0.637   9.699  19.297  0.00  0.00    +0.000 C 
ATOM     15  O   UNL     1       0.221  10.330  18.328  0.00  0.00    +0.000 OA
ATOM     16  H   UNL     1       1.767   8.087  19.969  0.00  0.00    +0.000 HD
BRANCH  14  17
ATOM     17  C   UNL     1       0.077   9.964  20.640  0.00  0.00    +0.000 A 
ATOM     18  C   UNL     1       0.297   9.132  21.739  0.00  0.00    +0.000 A 
ATOM     19  C   UNL     1      -0.242   9.481  22.977  0.00  0.00    +0.000 A 
ATOM     20  C   UNL     1      -0.984  10.647  23.073  0.00  0.00    +0.000 A 
ATOM     21  N   UNL     1      -1.211  11.476  22.033  0.00  0.00    +0.000 NA
ATOM     22  C   UNL     1      -0.666  11.121  20.841  0.00  0.00    +0.000 A 
ENDBRANCH  14  17
ENDBRANCH  12  13
ENDBRANCH   2  12
TORSDOF 4
ENDMDL
MODEL 9
REMARK VINA RESULT:      -6.6      0.808      1.168
REMARK  Name = 
REMARK  4 active torsions:
REMARK  status: ('A' for Active; 'I' for Inactive)
REMARK    1  A    between atoms: C_4  and  C_5
REMARK    2  A    between atoms: C_6  and  C_7
REMARK    3  A    between atoms: C_7  and  N_8
REMARK    4  A    between atoms: C_9  and  C_11
REMARK                            x       y       z     vdW  Elec       q    Type
REMARK                         _______ _______ _______ _____ _____    ______ ____
ROOT
ATOM      1  C   UNL     1       7.015   5.200  15.572  0.00  0.00    +0.000 C 
ATOM      2  C   UNL     1       7.154   4.471  16.692  0.00  0.00    +0.000 C 
ENDROOT
BRANCH   1   6
ATOM      3  N   UNL     1       5.744   2.508  11.856  0.00  0.00    +0.000 N 
ATOM      4  C   UNL     1       6.305   3.437  12.638  0.00  0.00    +0.000 A 
ATOM      5  N   UNL     1       6.093   3.647  13.913  0.00  0.00    +0.000 NA
ATOM      6  C   UNL     1       6.928   4.682  14.251  0.00  0.00    +0.000 A 
ATOM      7  C   UNL     1       7.646   5.117  13.163  0.00  0.00    +0.000 A 
ATOM      8  N   UNL     1       7.235   4.308  12.138  0.00  0.00    +0.000 N 
ATOM      9  H   UNL     1       4.940   2.022  12.242  0.00  0.00    +0.000 HD
ATOM     10  H   UNL     1       5.754   2.560  10.846  0.00  0.00    +0.000 HD
ATOM     11  H   UNL     1       7.566   4.323  11.186  0.00  0.00    +0.000 HD
ENDBRANCH   1   6
BRANCH   2  12
ATOM     12  C   UNL     1       7.198   5.064  18.060  0.00  0.00    +0.000 C 
BRANCH  12  13
ATOM     13  N   UNL     1       6.104   4.543  18.846  0.00  0.00    +0.000 N 
ATOM     14  C   UNL     1       4.866   5.147  18.771  0.00  0.00    +0.000 C 
ATOM     15  O   UNL     1       4.642   6.132  18.071  0.00  0.00    +0.000 OA
ATOM     16  H   UNL     1       6.196   3.626  19.261  0.00  0.00    +0.000 HD
BRANCH  14  17
ATOM     17  C   UNL     1       3.769   4.546  19.561  0.00  0.00    +0.000 A 
ATOM     18  C   UNL     1       3.747   3.203  19.941  0.00  0.00    +0.000 A 
ATOM     19  C   UNL     1       2.689   2.731  20.717  0.00  0.00    +0.000 A 
ATOM     20  C   UNL     1       1.688   3.616  21.083  0.00  0.00    +0.000 A 
ATOM     21  N   UNL     1       1.680   4.921  20.737  0.00  0.00    +0.000 NA
ATOM     22  C   UNL     1       2.727   5.359  19.992  0.00  0.00    +0.000 A 
ENDBRANCH  14  17
ENDBRANCH  12  13
ENDBRANCH   2  12
TORSDOF 4
ENDMDL
