MODEL 1
REMARK VINA RESULT:      -9.6      0.000      0.000
REMARK  Name = 
REMARK  2 active torsions:
REMARK  status: ('A' for Active; 'I' for Inactive)
REMARK    1  A    between atoms: C_9  and  C_10
REMARK    2  A    between atoms: N_20  and  C_21
REMARK                            x       y       z     vdW  Elec       q    Type
REMARK                         _______ _______ _______ _____ _____    ______ ____
ROOT
ATOM      1 CL   UNL     1       7.164   4.813  14.536  0.00  0.00    +0.000 Cl
ATOM      2  C   UNL     1       5.895   4.954  15.690  0.00  0.00    +0.000 A 
ATOM      3  C   UNL     1       5.442   3.829  16.355  0.00  0.00    +0.000 A 
ATOM      4  C   UNL     1       4.412   3.911  17.316  0.00  0.00    +0.000 A 
ATOM      5  C   UNL     1       3.826   5.165  17.543  0.00  0.00    +0.000 A 
ATOM      6  C   UNL     1       4.303   6.304  16.898  0.00  0.00    +0.000 A 
ATOM      7  C   UNL     1       5.348   6.210  15.961  0.00  0.00    +0.000 A 
ATOM      8  N   UNL     1       3.644   7.412  17.332  0.00  0.00    +0.000 NA
ATOM      9  C   UNL     1       2.788   7.032  18.271  0.00  0.00    +0.000 A 
ATOM     10  N   UNL     1       2.786   5.628  18.338  0.00  0.00    +0.000 N 
ENDROOT
BRANCH   9  11
ATOM     11  C   UNL     1       2.052   8.035  19.091  0.00  0.00    +0.000 A 
ATOM     12  C   UNL     1       1.833   7.744  20.450  0.00  0.00    +0.000 A 
ATOM     13  C   UNL     1       1.131   8.618  21.292  0.00  0.00    +0.000 A 
ATOM     14  C   UNL     1       0.512   9.758  20.770  0.00  0.00    +0.000 A 
ATOM     15  C   UNL     1      -0.281  10.601  21.559  0.00  0.00    +0.000 A 
ATOM     16  C   UNL     1      -1.172  11.487  20.952  0.00  0.00    +0.000 A 
ATOM     17  C   UNL     1      -1.145  11.666  19.573  0.00  0.00    +0.000 A 
ATOM     18  C   UNL     1      -0.182  11.006  18.812  0.00  0.00    +0.000 A 
ATOM     19  C   UNL     1       0.619  10.012  19.395  0.00  0.00    +0.000 A 
ATOM     20  C   UNL     1       1.465   9.212  18.610  0.00  0.00    +0.000 A 
ENDBRANCH   9  11
BRANCH  10  21
ATOM     21  C   UNL     1       1.896   4.812  19.135  0.00  0.00    +0.000 C 
ATOM     22  C   UNL     1       1.262   3.543  18.545  0.00  0.00    +0.000 C 
ATOM     23  C   UNL     1       0.708   2.816  19.769  0.00  0.00    +0.000 C 
ATOM     24  C   UNL     1       1.605   3.209  20.942  0.00  0.00    +0.000 C 
ATOM     25  C   UNL     1       2.536   4.302  20.435  0.00  0.00    +0.000 C 
ENDBRANCH  10  21
TORSDOF 2
ENDMDL
MODEL 2
REMARK VINA RESULT:      -9.5      0.608      1.565
REMARK  Name = 
REMARK  2 active torsions:
REMARK  status: ('A' for Active; 'I' for Inactive)
REMARK    1  A    between atoms: C_9  and  C_10
REMARK    2  A    between atoms: N_20  and  C_21
REMARK                            x       y       z     vdW  Elec       q    Type
REMARK                         _______ _______ _______ _____ _____    ______ ____
ROOT
ATOM      1 CL   UNL     1       7.469   5.046  15.017  0.00  0.00    +0.000 Cl
ATOM      2  C   UNL     1       6.108   5.151  16.065  0.00  0.00    +0.000 A 
ATOM      3  C   UNL     1       5.689   4.033  16.763  0.00  0.00    +0.000 A 
ATOM      4  C   UNL     1       4.586   4.088  17.640  0.00  0.00    +0.000 A 
ATOM      5  C   UNL     1       3.893   5.302  17.747  0.00  0.00    +0.000 A 
ATOM      6  C   UNL     1       4.334   6.438  17.071  0.00  0.00    +0.000 A 
ATOM      7  C   UNL     1       5.452   6.374  16.220  0.00  0.00    +0.000 A 
ATOM      8  N   UNL     1       3.564   7.514  17.388  0.00  0.00    +0.000 NA
ATOM      9  C   UNL     1       2.669   7.120  18.284  0.00  0.00    +0.000 A 
ATOM     10  N   UNL     1       2.765   5.726  18.436  0.00  0.00    +0.000 N 
ENDROOT
BRANCH   9  11
ATOM     11  C   UNL     1       1.801   8.107  18.987  0.00  0.00    +0.000 A 
ATOM     12  C   UNL     1       1.567   9.344  18.359  0.00  0.00    +0.000 A 
ATOM     13  C   UNL     1       0.784  10.342  18.956  0.00  0.00    +0.000 A 
ATOM     14  C   UNL     1       0.311  10.184  20.262  0.00  0.00    +0.000 A 
ATOM     15  C   UNL     1      -0.388  11.197  20.929  0.00  0.00    +0.000 A 
ATOM     16  C   UNL     1      -0.509  11.162  22.319  0.00  0.00    +0.000 A 
ATOM     17  C   UNL     1      -0.099  10.037  23.024  0.00  0.00    +0.000 A 
ATOM     18  C   UNL     1       0.373   8.923  22.332  0.00  0.00    +0.000 A 
ATOM     19  C   UNL     1       0.627   9.005  20.954  0.00  0.00    +0.000 A 
ATOM     20  C   UNL     1       1.270   7.958  20.274  0.00  0.00    +0.000 A 
ENDBRANCH   9  11
BRANCH  10  21
ATOM     21  C   UNL     1       1.878   4.889  19.215  0.00  0.00    +0.000 C 
ATOM     22  C   UNL     1       1.359   3.560  18.645  0.00  0.00    +0.000 C 
ATOM     23  C   UNL     1       0.777   2.850  19.866  0.00  0.00    +0.000 C 
ATOM     24  C   UNL     1       1.575   3.346  21.071  0.00  0.00    +0.000 C 
ATOM     25  C   UNL     1       2.468   4.473  20.571  0.00  0.00    +0.000 C 
ENDBRANCH  10  21
TORSDOF 2
ENDMDL
MODEL 3
REMARK VINA RESULT:      -8.6      1.014      1.795
REMARK  Name = 
REMARK  2 active torsions:
REMARK  status: ('A' for Active; 'I' for Inactive)
REMARK    1  A    between atoms: C_9  and  C_10
REMARK    2  A    between atoms: N_20  and  C_21
REMARK                            x       y       z     vdW  Elec       q    Type
REMARK                         _______ _______ _______ _____ _____    ______ ____
ROOT
ATOM      1 CL   UNL     1       7.667   4.968  13.848  0.00  0.00    +0.000 Cl
ATOM      2  C   UNL     1       6.444   5.002  15.059  0.00  0.00    +0.000 A 
ATOM      3  C   UNL     1       6.208   3.878  15.830  0.00  0.00    +0.000 A 
ATOM      4  C   UNL     1       5.223   3.876  16.839  0.00  0.00    +0.000 A 
ATOM      5  C   UNL     1       4.454   5.038  17.007  0.00  0.00    +0.000 A 
ATOM      6  C   UNL     1       4.713   6.181  16.255  0.00  0.00    +0.000 A 
ATOM      7  C   UNL     1       5.717   6.176  15.269  0.00  0.00    +0.000 A 
ATOM      8  N   UNL     1       3.906   7.204  16.644  0.00  0.00    +0.000 NA
ATOM      9  C   UNL     1       3.165   6.773  17.656  0.00  0.00    +0.000 A 
ATOM     10  N   UNL     1       3.391   5.396  17.825  0.00  0.00    +0.000 N 
ENDROOT
BRANCH   9  11
ATOM     11  C   UNL     1       2.317   7.712  18.442  0.00  0.00    +0.000 A 
ATOM     12  C   UNL     1       1.965   8.938  17.848  0.00  0.00    +0.000 A 
ATOM     13  C   UNL     1       1.190   9.893  18.520  0.00  0.00    +0.000 A 
ATOM     14  C   UNL     1       0.846   9.707  19.863  0.00  0.00    +0.000 A 
ATOM     15  C   UNL     1       0.161  10.682  20.598  0.00  0.00    +0.000 A 
ATOM     16  C   UNL     1       0.169  10.636  21.993  0.00  0.00    +0.000 A 
ATOM     17  C   UNL     1       0.698   9.531  22.649  0.00  0.00    +0.000 A 
ATOM     18  C   UNL     1       1.159   8.444  21.909  0.00  0.00    +0.000 A 
ATOM     19  C   UNL     1       1.283   8.543  20.514  0.00  0.00    +0.000 A 
ATOM     20  C   UNL     1       1.913   7.533  19.770  0.00  0.00    +0.000 A 
ENDBRANCH   9  11
BRANCH  10  21
ATOM     21  C   UNL     1       2.680   4.518  18.730  0.00  0.00    +0.000 C 
ATOM     22  C   UNL     1       1.726   3.444  18.186  0.00  0.00    +0.000 C 
ATOM     23  C   UNL     1       1.474   2.543  19.394  0.00  0.00    +0.000 C 
ATOM     24  C   UNL     1       2.730   2.628  20.260  0.00  0.00    +0.000 C 
ATOM     25  C   UNL     1       3.607   3.716  19.656  0.00  0.00    +0.000 C 
ENDBRANCH  10  21
TORSDOF 2
ENDMDL
MODEL 4
REMARK VINA RESULT:      -8.6      0.904      1.914
REMARK  Name = 
REMARK  2 active torsions:
REMARK  status: ('A' for Active; 'I' for Inactive)
REMARK    1  A    between atoms: C_9  and  C_10
REMARK    2  A    between atoms: N_20  and  C_21
REMARK                            x       y       z     vdW  Elec       q    Type
REMARK                         _______ _______ _______ _____ _____    ______ ____
ROOT
ATOM      1 CL   UNL     1       7.733   5.126  14.015  0.00  0.00    +0.000 Cl
ATOM      2  C   UNL     1       6.526   5.120  15.242  0.00  0.00    +0.000 A 
ATOM      3  C   UNL     1       6.379   4.013  16.058  0.00  0.00    +0.000 A 
ATOM      4  C   UNL     1       5.409   3.981  17.081  0.00  0.00    +0.000 A 
ATOM      5  C   UNL     1       4.561   5.090  17.216  0.00  0.00    +0.000 A 
ATOM      6  C   UNL     1       4.728   6.219  16.417  0.00  0.00    +0.000 A 
ATOM      7  C   UNL     1       5.718   6.246  15.417  0.00  0.00    +0.000 A 
ATOM      8  N   UNL     1       3.854   7.196  16.778  0.00  0.00    +0.000 NA
ATOM      9  C   UNL     1       3.158   6.753  17.816  0.00  0.00    +0.000 A 
ATOM     10  N   UNL     1       3.485   5.403  18.034  0.00  0.00    +0.000 N 
ENDROOT
BRANCH   9  11
ATOM     11  C   UNL     1       2.254   7.659  18.578  0.00  0.00    +0.000 A 
ATOM     12  C   UNL     1       1.742   8.790  17.915  0.00  0.00    +0.000 A 
ATOM     13  C   UNL     1       0.904   9.711  18.559  0.00  0.00    +0.000 A 
ATOM     14  C   UNL     1       0.650   9.598  19.929  0.00  0.00    +0.000 A 
ATOM     15  C   UNL     1      -0.100  10.553  20.629  0.00  0.00    +0.000 A 
ATOM     16  C   UNL     1      -0.017  10.620  22.020  0.00  0.00    +0.000 A 
ATOM     17  C   UNL     1       0.660   9.632  22.725  0.00  0.00    +0.000 A 
ATOM     18  C   UNL     1       1.198   8.543  22.042  0.00  0.00    +0.000 A 
ATOM     19  C   UNL     1       1.241   8.542  20.639  0.00  0.00    +0.000 A 
ATOM     20  C   UNL     1       1.938   7.546  19.937  0.00  0.00    +0.000 A 
ENDBRANCH   9  11
BRANCH  10  21
ATOM     21  C   UNL     1       2.849   4.513  18.982  0.00  0.00    +0.000 C 
ATOM     22  C   UNL     1       2.779   4.880  20.472  0.00  0.00    +0.000 C 
ATOM     23  C   UNL     1       1.757   3.894  21.036  0.00  0.00    +0.000 C 
ATOM     24  C   UNL     1       0.801   3.565  19.891  0.00  0.00    +0.000 C 
ATOM     25  C   UNL     1       1.384   4.201  18.637  0.00  0.00    +0.000 C 
ENDBRANCH  10  21
TORSDOF 2
ENDMDL
MODEL 5
REMARK VINA RESULT:      -8.1      2.432      4.592
REMARK  Name = 
REMARK  2 active torsions:
REMARK  status: ('A' for Active; 'I' for Inactive)
REMARK    1  A    between atoms: C_9  and  C_10
REMARK    2  A    between atoms: N_20  and  C_21
REMARK                            x       y       z     vdW  Elec       q    Type
REMARK                         _______ _______ _______ _____ _____    ______ ____
ROOT
ATOM      1 CL   UNL     1       5.918   2.505  11.086  0.00  0.00    +0.000 Cl
ATOM      2  C   UNL     1       6.104   3.436  12.522  0.00  0.00    +0.000 A 
ATOM      3  C   UNL     1       7.301   4.080  12.773  0.00  0.00    +0.000 A 
ATOM      4  C   UNL     1       7.483   4.862  13.933  0.00  0.00    +0.000 A 
ATOM      5  C   UNL     1       6.424   4.929  14.851  0.00  0.00    +0.000 A 
ATOM      6  C   UNL     1       5.206   4.308  14.584  0.00  0.00    +0.000 A 
ATOM      7  C   UNL     1       5.032   3.553  13.410  0.00  0.00    +0.000 A 
ATOM      8  N   UNL     1       4.305   4.575  15.567  0.00  0.00    +0.000 NA
ATOM      9  C   UNL     1       4.888   5.387  16.439  0.00  0.00    +0.000 A 
ATOM     10  N   UNL     1       6.242   5.526  16.091  0.00  0.00    +0.000 N 
ENDROOT
BRANCH   9  11
ATOM     11  C   UNL     1       4.104   6.028  17.532  0.00  0.00    +0.000 A 
ATOM     12  C   UNL     1       3.752   5.240  18.643  0.00  0.00    +0.000 A 
ATOM     13  C   UNL     1       2.996   5.752  19.707  0.00  0.00    +0.000 A 
ATOM     14  C   UNL     1       2.458   7.040  19.636  0.00  0.00    +0.000 A 
ATOM     15  C   UNL     1       1.615   7.550  20.631  0.00  0.00    +0.000 A 
ATOM     16  C   UNL     1       0.807   8.655  20.361  0.00  0.00    +0.000 A 
ATOM     17  C   UNL     1       0.967   9.360  19.173  0.00  0.00    +0.000 A 
ATOM     18  C   UNL     1       1.980   8.997  18.288  0.00  0.00    +0.000 A 
ATOM     19  C   UNL     1       2.699   7.808  18.487  0.00  0.00    +0.000 A 
ATOM     20  C   UNL     1       3.593   7.332  17.515  0.00  0.00    +0.000 A 
ENDBRANCH   9  11
BRANCH  10  21
ATOM     21  C   UNL     1       7.256   6.215  16.861  0.00  0.00    +0.000 C 
ATOM     22  C   UNL     1       7.184   7.736  17.061  0.00  0.00    +0.000 C 
ATOM     23  C   UNL     1       8.190   7.999  18.180  0.00  0.00    +0.000 C 
ATOM     24  C   UNL     1       8.223   6.732  19.033  0.00  0.00    +0.000 C 
ATOM     25  C   UNL     1       7.395   5.687  18.297  0.00  0.00    +0.000 C 
ENDBRANCH  10  21
TORSDOF 2
ENDMDL
MODEL 6
REMARK VINA RESULT:      -8.1      4.141      8.491
REMARK  Name = 
REMARK  2 active torsions:
REMARK  status: ('A' for Active; 'I' for Inactive)
REMARK    1  A    between atoms: C_9  and  C_10
REMARK    2  A    between atoms: N_20  and  C_21
REMARK                            x       y       z     vdW  Elec       q    Type
REMARK                         _______ _______ _______ _____ _____    ______ ____
ROOT
ATOM      1 CL   UNL     1      -2.321  14.461  23.932  0.00  0.00    +0.000 Cl
ATOM      2  C   UNL     1      -2.011  13.442  22.579  0.00  0.00    +0.000 A 
ATOM      3  C   UNL     1      -2.732  13.613  21.411  0.00  0.00    +0.000 A 
ATOM      4  C   UNL     1      -2.495  12.804  20.280  0.00  0.00    +0.000 A 
ATOM      5  C   UNL     1      -1.536  11.786  20.391  0.00  0.00    +0.000 A 
ATOM      6  C   UNL     1      -0.786  11.635  21.555  0.00  0.00    +0.000 A 
ATOM      7  C   UNL     1      -1.016  12.466  22.666  0.00  0.00    +0.000 A 
ATOM      8  N   UNL     1       0.136  10.646  21.407  0.00  0.00    +0.000 NA
ATOM      9  C   UNL     1       0.037  10.184  20.167  0.00  0.00    +0.000 A 
ATOM     10  N   UNL     1      -1.073  10.784  19.549  0.00  0.00    +0.000 N 
ENDROOT
BRANCH   9  11
ATOM     11  C   UNL     1       1.043   9.230  19.622  0.00  0.00    +0.000 A 
ATOM     12  C   UNL     1       1.541   9.463  18.327  0.00  0.00    +0.000 A 
ATOM     13  C   UNL     1       2.471   8.606  17.723  0.00  0.00    +0.000 A 
ATOM     14  C   UNL     1       2.841   7.411  18.349  0.00  0.00    +0.000 A 
ATOM     15  C   UNL     1       3.689   6.481  17.735  0.00  0.00    +0.000 A 
ATOM     16  C   UNL     1       3.734   5.166  18.200  0.00  0.00    +0.000 A 
ATOM     17  C   UNL     1       3.082   4.823  19.378  0.00  0.00    +0.000 A 
ATOM     18  C   UNL     1       2.439   5.809  20.124  0.00  0.00    +0.000 A 
ATOM     19  C   UNL     1       2.272   7.098  19.592  0.00  0.00    +0.000 A 
ATOM     20  C   UNL     1       1.474   8.051  20.244  0.00  0.00    +0.000 A 
ENDBRANCH   9  11
BRANCH  10  21
ATOM     21  C   UNL     1      -1.608  10.453  18.246  0.00  0.00    +0.000 C 
ATOM     22  C   UNL     1      -2.961   9.739  18.115  0.00  0.00    +0.000 C 
ATOM     23  C   UNL     1      -3.308   9.896  16.636  0.00  0.00    +0.000 C 
ATOM     24  C   UNL     1      -2.651  11.196  16.177  0.00  0.00    +0.000 C 
ATOM     25  C   UNL     1      -1.774  11.673  17.327  0.00  0.00    +0.000 C 
ENDBRANCH  10  21
TORSDOF 2
ENDMDL
MODEL 7
REMARK VINA RESULT:      -7.7      4.386      6.186
REMARK  Name = 
REMARK  2 active torsions:
REMARK  status: ('A' for Active; 'I' for Inactive)
REMARK    1  A    between atoms: C_9  and  C_10
REMARK    2  A    between atoms: N_20  and  C_21
REMARK                            x       y       z     vdW  Elec       q    Type
REMARK                         _______ _______ _______ _____ _____    ______ ____
ROOT
ATOM      1 CL   UNL     1       7.488   4.131  10.684  0.00  0.00    +0.000 Cl
ATOM      2  C   UNL     1       7.135   4.391  12.349  0.00  0.00    +0.000 A 
ATOM      3  C   UNL     1       7.872   5.310  13.073  0.00  0.00    +0.000 A 
ATOM      4  C   UNL     1       7.600   5.556  14.435  0.00  0.00    +0.000 A 
ATOM      5  C   UNL     1       6.588   4.804  15.048  0.00  0.00    +0.000 A 
ATOM      6  C   UNL     1       5.823   3.901  14.312  0.00  0.00    +0.000 A 
ATOM      7  C   UNL     1       6.089   3.685  12.948  0.00  0.00    +0.000 A 
ATOM      8  N   UNL     1       4.852   3.350  15.089  0.00  0.00    +0.000 NA
ATOM      9  C   UNL     1       4.934   3.903  16.292  0.00  0.00    +0.000 A 
ATOM     10  N   UNL     1       6.079   4.717  16.337  0.00  0.00    +0.000 N 
ENDROOT
BRANCH   9  11
ATOM     11  C   UNL     1       3.883   3.663  17.321  0.00  0.00    +0.000 A 
ATOM     12  C   UNL     1       2.647   4.316  17.166  0.00  0.00    +0.000 A 
ATOM     13  C   UNL     1       1.609   4.168  18.096  0.00  0.00    +0.000 A 
ATOM     14  C   UNL     1       1.818   3.459  19.283  0.00  0.00    +0.000 A 
ATOM     15  C   UNL     1       0.840   3.374  20.282  0.00  0.00    +0.000 A 
ATOM     16  C   UNL     1       1.197   3.000  21.577  0.00  0.00    +0.000 A 
ATOM     17  C   UNL     1       2.482   2.537  21.838  0.00  0.00    +0.000 A 
ATOM     18  C   UNL     1       3.387   2.388  20.789  0.00  0.00    +0.000 A 
ATOM     19  C   UNL     1       3.080   2.893  19.515  0.00  0.00    +0.000 A 
ATOM     20  C   UNL     1       4.044   2.917  18.495  0.00  0.00    +0.000 A 
ENDBRANCH   9  11
BRANCH  10  21
ATOM     21  C   UNL     1       6.604   5.389  17.506  0.00  0.00    +0.000 C 
ATOM     22  C   UNL     1       7.741   4.759  18.324  0.00  0.00    +0.000 C 
ATOM     23  C   UNL     1       8.220   5.904  19.214  0.00  0.00    +0.000 C 
ATOM     24  C   UNL     1       7.944   7.192  18.441  0.00  0.00    +0.000 C 
ATOM     25  C   UNL     1       7.136   6.800  17.211  0.00  0.00    +0.000 C 
ENDBRANCH  10  21
TORSDOF 2
ENDMDL
MODEL 8
REMARK VINA RESULT:      -7.7      3.034      7.447
REMARK  Name = 
REMARK  2 active torsions:
REMARK  status: ('A' for Active; 'I' for Inactive)
REMARK    1  A    between atoms: C_9  and  C_10
REMARK    2  A    between atoms: N_20  and  C_21
REMARK                            x       y       z     vdW  Elec       q    Type
REMARK                         _______ _______ _______ _____ _____    ______ ____
ROOT
ATOM      1 CL   UNL     1       0.494   8.844  20.950  0.00  0.00    +0.000 Cl
ATOM      2  C   UNL     1       1.457   7.572  20.303  0.00  0.00    +0.000 A 
ATOM      3  C   UNL     1       1.359   6.298  20.832  0.00  0.00    +0.000 A 
ATOM      4  C   UNL     1       2.124   5.231  20.317  0.00  0.00    +0.000 A 
ATOM      5  C   UNL     1       3.025   5.510  19.280  0.00  0.00    +0.000 A 
ATOM      6  C   UNL     1       3.101   6.785  18.724  0.00  0.00    +0.000 A 
ATOM      7  C   UNL     1       2.313   7.834  19.231  0.00  0.00    +0.000 A 
ATOM      8  N   UNL     1       3.976   6.803  17.683  0.00  0.00    +0.000 NA
ATOM      9  C   UNL     1       4.434   5.569  17.518  0.00  0.00    +0.000 A 
ATOM     10  N   UNL     1       3.960   4.768  18.571  0.00  0.00    +0.000 N 
ENDROOT
BRANCH   9  11
ATOM     11  C   UNL     1       5.261   5.209  16.332  0.00  0.00    +0.000 A 
ATOM     12  C   UNL     1       6.459   5.916  16.124  0.00  0.00    +0.000 A 
ATOM     13  C   UNL     1       7.289   5.663  15.023  0.00  0.00    +0.000 A 
ATOM     14  C   UNL     1       6.882   4.776  14.021  0.00  0.00    +0.000 A 
ATOM     15  C   UNL     1       7.635   4.572  12.857  0.00  0.00    +0.000 A 
ATOM     16  C   UNL     1       7.040   3.995  11.735  0.00  0.00    +0.000 A 
ATOM     17  C   UNL     1       5.760   3.458  11.825  0.00  0.00    +0.000 A 
ATOM     18  C   UNL     1       5.104   3.441  13.054  0.00  0.00    +0.000 A 
ATOM     19  C   UNL     1       5.637   4.142  14.147  0.00  0.00    +0.000 A 
ATOM     20  C   UNL     1       4.907   4.289  15.337  0.00  0.00    +0.000 A 
ENDBRANCH   9  11
BRANCH  10  21
ATOM     21  C   UNL     1       4.337   3.396  18.838  0.00  0.00    +0.000 C 
ATOM     22  C   UNL     1       4.417   2.875  20.280  0.00  0.00    +0.000 C 
ATOM     23  C   UNL     1       4.490   1.359  20.110  0.00  0.00    +0.000 C 
ATOM     24  C   UNL     1       3.746   1.037  18.815  0.00  0.00    +0.000 C 
ATOM     25  C   UNL     1       3.423   2.369  18.152  0.00  0.00    +0.000 C 
ENDBRANCH  10  21
TORSDOF 2
ENDMDL
MODEL 9
REMARK VINA RESULT:      -7.4      3.986      8.122
REMARK  Name = 
REMARK  2 active torsions:
REMARK  status: ('A' for Active; 'I' for Inactive)
REMARK    1  A    between atoms: C_9  and  C_10
REMARK    2  A    between atoms: N_20  and  C_21
REMARK                            x       y       z     vdW  Elec       q    Type
REMARK                         _______ _______ _______ _____ _____    ______ ____
ROOT
ATOM      1 CL   UNL     1       0.711  16.621  21.780  0.00  0.00    +0.000 Cl
ATOM      2  C   UNL     1       0.276  15.103  21.095  0.00  0.00    +0.000 A 
ATOM      3  C   UNL     1      -0.811  15.019  20.243  0.00  0.00    +0.000 A 
ATOM      4  C   UNL     1      -1.187  13.793  19.655  0.00  0.00    +0.000 A 
ATOM      5  C   UNL     1      -0.452  12.648  19.998  0.00  0.00    +0.000 A 
ATOM      6  C   UNL     1       0.662  12.737  20.829  0.00  0.00    +0.000 A 
ATOM      7  C   UNL     1       1.040  13.971  21.388  0.00  0.00    +0.000 A 
ATOM      8  N   UNL     1       1.264  11.524  20.956  0.00  0.00    +0.000 NA
ATOM      9  C   UNL     1       0.602  10.663  20.195  0.00  0.00    +0.000 A 
ATOM     10  N   UNL     1      -0.543  11.299  19.685  0.00  0.00    +0.000 N 
ENDROOT
BRANCH   9  11
ATOM     11  C   UNL     1       1.127   9.289  19.954  0.00  0.00    +0.000 A 
ATOM     12  C   UNL     1       1.034   8.354  21.001  0.00  0.00    +0.000 A 
ATOM     13  C   UNL     1       1.523   7.047  20.873  0.00  0.00    +0.000 A 
ATOM     14  C   UNL     1       2.238   6.667  19.733  0.00  0.00    +0.000 A 
ATOM     15  C   UNL     1       2.829   5.403  19.611  0.00  0.00    +0.000 A 
ATOM     16  C   UNL     1       3.830   5.190  18.663  0.00  0.00    +0.000 A 
ATOM     17  C   UNL     1       4.114   6.172  17.720  0.00  0.00    +0.000 A 
ATOM     18  C   UNL     1       3.353   7.338  17.688  0.00  0.00    +0.000 A 
ATOM     19  C   UNL     1       2.445   7.617  18.721  0.00  0.00    +0.000 A 
ATOM     20  C   UNL     1       1.803   8.863  18.804  0.00  0.00    +0.000 A 
ENDBRANCH   9  11
BRANCH  10  21
ATOM     21  C   UNL     1      -1.601  10.672  18.923  0.00  0.00    +0.000 C 
ATOM     22  C   UNL     1      -2.931  11.402  18.686  0.00  0.00    +0.000 C 
ATOM     23  C   UNL     1      -3.600  10.581  17.585  0.00  0.00    +0.000 C 
ATOM     24  C   UNL     1      -2.469   9.966  16.762  0.00  0.00    +0.000 C 
ATOM     25  C   UNL     1      -1.173  10.269  17.503  0.00  0.00    +0.000 C 
ENDBRANCH  10  21
TORSDOF 2
ENDMDL
