MODEL 1
REMARK VINA RESULT:      -8.2      0.000      0.000
REMARK  Name = 
REMARK  4 active torsions:
REMARK  status: ('A' for Active; 'I' for Inactive)
REMARK    1  A    between atoms: C_1  and  C_2
REMARK    2  A    between atoms: C_2  and  C_3
REMARK    3  A    between atoms: C_6  and  C_7
REMARK    4  A    between atoms: C_7  and  C_8
REMARK                            x       y       z     vdW  Elec       q    Type
REMARK                         _______ _______ _______ _____ _____    ______ ____
ROOT
ATOM      1  C   UNL     1       2.914   4.577  18.400  0.00  0.00    +0.000 C 
ATOM      2  C   UNL     1       2.609   3.579  17.254  0.00  0.00    +0.000 C 
ATOM      3  C   UNL     1       2.256   2.194  17.812  0.00  0.00    +0.000 C 
ATOM      4  C   UNL     1       3.466   1.642  18.581  0.00  0.00    +0.000 C 
ATOM      5  C   UNL     1       3.827   2.590  19.735  0.00  0.00    +0.000 C 
ATOM      6  C   UNL     1       2.626   2.666  20.691  0.00  0.00    +0.000 C 
ATOM      7  C   UNL     1       1.408   3.234  19.949  0.00  0.00    +0.000 C 
ATOM      8  C   UNL     1       1.051   2.332  18.756  0.00  0.00    +0.000 C 
ATOM      9  C   UNL     1       1.752   4.637  19.429  0.00  0.00    +0.000 C 
ATOM     10  C   UNL     1       4.143   3.998  19.173  0.00  0.00    +0.000 C 
ENDROOT
BRANCH   1  11
ATOM     11  C   UNL     1       3.239   5.980  17.825  0.00  0.00    +0.000 C 
BRANCH  11  17
ATOM     12  C   UNL     1       7.428   5.029  17.862  0.00  0.00    +0.000 C 
ATOM     13  C   UNL     1       6.776   6.328  17.393  0.00  0.00    +0.000 C 
ATOM     14  C   UNL     1       7.718   7.508  17.573  0.00  0.00    +0.000 C 
ATOM     15  O   UNL     1       6.394   6.197  16.028  0.00  0.00    +0.000 OA
ATOM     16  N   UNL     1       4.990   5.951  16.052  0.00  0.00    +0.000 NA
ATOM     17  C   UNL     1       4.634   6.150  17.278  0.00  0.00    +0.000 C 
ATOM     18  O   UNL     1       5.584   6.528  18.150  0.00  0.00    +0.000 OA
ENDBRANCH  11  17
ENDBRANCH   1  11
TORSDOF 2
ENDMDL
MODEL 2
REMARK VINA RESULT:      -8.2      0.107      1.798
REMARK  Name = 
REMARK  4 active torsions:
REMARK  status: ('A' for Active; 'I' for Inactive)
REMARK    1  A    between atoms: C_1  and  C_2
REMARK    2  A    between atoms: C_2  and  C_3
REMARK    3  A    between atoms: C_6  and  C_7
REMARK    4  A    between atoms: C_7  and  C_8
REMARK                            x       y       z     vdW  Elec       q    Type
REMARK                         _______ _______ _______ _____ _____    ______ ____
ROOT
ATOM      1  C   UNL     1       2.976   4.614  18.481  0.00  0.00    +0.000 C 
ATOM      2  C   UNL     1       1.769   4.664  19.452  0.00  0.00    +0.000 C 
ATOM      3  C   UNL     1       1.463   3.271  20.019  0.00  0.00    +0.000 C 
ATOM      4  C   UNL     1       1.075   2.335  18.864  0.00  0.00    +0.000 C 
ATOM      5  C   UNL     1       2.232   2.243  17.857  0.00  0.00    +0.000 C 
ATOM      6  C   UNL     1       3.455   1.657  18.579  0.00  0.00    +0.000 C 
ATOM      7  C   UNL     1       3.874   2.585  19.727  0.00  0.00    +0.000 C 
ATOM      8  C   UNL     1       2.717   2.739  20.729  0.00  0.00    +0.000 C 
ATOM      9  C   UNL     1       4.220   3.966  19.150  0.00  0.00    +0.000 C 
ATOM     10  C   UNL     1       2.566   3.656  17.317  0.00  0.00    +0.000 C 
ENDROOT
BRANCH   1  11
ATOM     11  C   UNL     1       3.295   6.032  17.939  0.00  0.00    +0.000 C 
BRANCH  11  17
ATOM     12  C   UNL     1       7.506   5.179  17.935  0.00  0.00    +0.000 C 
ATOM     13  C   UNL     1       6.814   6.439  17.417  0.00  0.00    +0.000 C 
ATOM     14  C   UNL     1       7.731   7.648  17.520  0.00  0.00    +0.000 C 
ATOM     15  O   UNL     1       6.409   6.232  16.069  0.00  0.00    +0.000 OA
ATOM     16  N   UNL     1       5.011   5.955  16.133  0.00  0.00    +0.000 NA
ATOM     17  C   UNL     1       4.675   6.206  17.355  0.00  0.00    +0.000 C 
ATOM     18  O   UNL     1       5.633   6.648  18.188  0.00  0.00    +0.000 OA
ENDBRANCH  11  17
ENDBRANCH   1  11
TORSDOF 2
ENDMDL
MODEL 3
REMARK VINA RESULT:      -8.2      0.177      1.756
REMARK  Name = 
REMARK  4 active torsions:
REMARK  status: ('A' for Active; 'I' for Inactive)
REMARK    1  A    between atoms: C_1  and  C_2
REMARK    2  A    between atoms: C_2  and  C_3
REMARK    3  A    between atoms: C_6  and  C_7
REMARK    4  A    between atoms: C_7  and  C_8
REMARK                            x       y       z     vdW  Elec       q    Type
REMARK                         _______ _______ _______ _____ _____    ______ ____
ROOT
ATOM      1  C   UNL     1       2.891   4.662  18.556  0.00  0.00    +0.000 C 
ATOM      2  C   UNL     1       4.103   4.053  19.307  0.00  0.00    +0.000 C 
ATOM      3  C   UNL     1       3.776   2.647  19.825  0.00  0.00    +0.000 C 
ATOM      4  C   UNL     1       2.622   2.741  20.834  0.00  0.00    +0.000 C 
ATOM      5  C   UNL     1       1.383   3.344  20.153  0.00  0.00    +0.000 C 
ATOM      6  C   UNL     1       0.962   2.412  19.005  0.00  0.00    +0.000 C 
ATOM      7  C   UNL     1       2.094   2.316  17.973  0.00  0.00    +0.000 C 
ATOM      8  C   UNL     1       3.366   1.763  18.637  0.00  0.00    +0.000 C 
ATOM      9  C   UNL     1       2.389   3.721  17.426  0.00  0.00    +0.000 C 
ATOM     10  C   UNL     1       1.726   4.746  19.593  0.00  0.00    +0.000 C 
ENDROOT
BRANCH   1  11
ATOM     11  C   UNL     1       3.243   6.070  18.009  0.00  0.00    +0.000 C 
BRANCH  11  17
ATOM     12  C   UNL     1       7.416   5.055  17.902  0.00  0.00    +0.000 C 
ATOM     13  C   UNL     1       6.765   6.353  17.428  0.00  0.00    +0.000 C 
ATOM     14  C   UNL     1       7.730   7.522  17.542  0.00  0.00    +0.000 C 
ATOM     15  O   UNL     1       6.326   6.196  16.083  0.00  0.00    +0.000 OA
ATOM     16  N   UNL     1       4.920   5.971  16.168  0.00  0.00    +0.000 NA
ATOM     17  C   UNL     1       4.617   6.205  17.402  0.00  0.00    +0.000 C 
ATOM     18  O   UNL     1       5.607   6.588  18.227  0.00  0.00    +0.000 OA
ENDBRANCH  11  17
ENDBRANCH   1  11
TORSDOF 2
ENDMDL
MODEL 4
REMARK VINA RESULT:      -7.9      1.226      1.601
REMARK  Name = 
REMARK  4 active torsions:
REMARK  status: ('A' for Active; 'I' for Inactive)
REMARK    1  A    between atoms: C_1  and  C_2
REMARK    2  A    between atoms: C_2  and  C_3
REMARK    3  A    between atoms: C_6  and  C_7
REMARK    4  A    between atoms: C_7  and  C_8
REMARK                            x       y       z     vdW  Elec       q    Type
REMARK                         _______ _______ _______ _____ _____    ______ ____
ROOT
ATOM      1  C   UNL     1       3.334   4.201  17.912  0.00  0.00    +0.000 C 
ATOM      2  C   UNL     1       1.807   4.226  17.650  0.00  0.00    +0.000 C 
ATOM      3  C   UNL     1       1.042   3.553  18.797  0.00  0.00    +0.000 C 
ATOM      4  C   UNL     1       1.461   2.078  18.881  0.00  0.00    +0.000 C 
ATOM      5  C   UNL     1       2.973   1.979  19.136  0.00  0.00    +0.000 C 
ATOM      6  C   UNL     1       3.280   2.657  20.482  0.00  0.00    +0.000 C 
ATOM      7  C   UNL     1       2.887   4.139  20.417  0.00  0.00    +0.000 C 
ATOM      8  C   UNL     1       1.385   4.273  20.111  0.00  0.00    +0.000 C 
ATOM      9  C   UNL     1       3.686   4.818  19.294  0.00  0.00    +0.000 C 
ATOM     10  C   UNL     1       3.742   2.695  17.999  0.00  0.00    +0.000 C 
ENDROOT
BRANCH   1  11
ATOM     11  C   UNL     1       4.094   4.911  16.762  0.00  0.00    +0.000 C 
BRANCH  11  17
ATOM     12  C   UNL     1       7.321   5.672  19.495  0.00  0.00    +0.000 C 
ATOM     13  C   UNL     1       7.193   6.157  18.052  0.00  0.00    +0.000 C 
ATOM     14  C   UNL     1       7.932   7.471  17.850  0.00  0.00    +0.000 C 
ATOM     15  O   UNL     1       7.700   5.159  17.174  0.00  0.00    +0.000 OA
ATOM     16  N   UNL     1       6.550   4.499  16.649  0.00  0.00    +0.000 NA
ATOM     17  C   UNL     1       5.546   5.214  17.036  0.00  0.00    +0.000 C 
ATOM     18  O   UNL     1       5.807   6.319  17.757  0.00  0.00    +0.000 OA
ENDBRANCH  11  17
ENDBRANCH   1  11
TORSDOF 2
ENDMDL
MODEL 5
REMARK VINA RESULT:      -7.9      1.255      1.553
REMARK  Name = 
REMARK  4 active torsions:
REMARK  status: ('A' for Active; 'I' for Inactive)
REMARK    1  A    between atoms: C_1  and  C_2
REMARK    2  A    between atoms: C_2  and  C_3
REMARK    3  A    between atoms: C_6  and  C_7
REMARK    4  A    between atoms: C_7  and  C_8
REMARK                            x       y       z     vdW  Elec       q    Type
REMARK                         _______ _______ _______ _____ _____    ______ ____
ROOT
ATOM      1  C   UNL     1       3.326   4.124  17.835  0.00  0.00    +0.000 C 
ATOM      2  C   UNL     1       3.719   2.634  17.999  0.00  0.00    +0.000 C 
ATOM      3  C   UNL     1       2.925   1.979  19.136  0.00  0.00    +0.000 C 
ATOM      4  C   UNL     1       3.268   2.684  20.457  0.00  0.00    +0.000 C 
ATOM      5  C   UNL     1       2.906   4.174  20.362  0.00  0.00    +0.000 C 
ATOM      6  C   UNL     1       1.392   4.288  20.119  0.00  0.00    +0.000 C 
ATOM      7  C   UNL     1       1.027   3.606  18.794  0.00  0.00    +0.000 C 
ATOM      8  C   UNL     1       1.424   2.121  18.838  0.00  0.00    +0.000 C 
ATOM      9  C   UNL     1       1.793   4.293  17.653  0.00  0.00    +0.000 C 
ATOM     10  C   UNL     1       3.677   4.825  19.187  0.00  0.00    +0.000 C 
ENDROOT
BRANCH   1  11
ATOM     11  C   UNL     1       4.113   4.768  16.663  0.00  0.00    +0.000 C 
BRANCH  11  17
ATOM     12  C   UNL     1       7.259   5.689  19.440  0.00  0.00    +0.000 C 
ATOM     13  C   UNL     1       7.155   6.121  17.979  0.00  0.00    +0.000 C 
ATOM     14  C   UNL     1       7.872   7.442  17.748  0.00  0.00    +0.000 C 
ATOM     15  O   UNL     1       7.702   5.103  17.148  0.00  0.00    +0.000 OA
ATOM     16  N   UNL     1       6.578   4.403  16.620  0.00  0.00    +0.000 NA
ATOM     17  C   UNL     1       5.551   5.110  16.959  0.00  0.00    +0.000 C 
ATOM     18  O   UNL     1       5.774   6.244  17.647  0.00  0.00    +0.000 OA
ENDBRANCH  11  17
ENDBRANCH   1  11
TORSDOF 2
ENDMDL
MODEL 6
REMARK VINA RESULT:      -7.8      1.567      2.642
REMARK  Name = 
REMARK  4 active torsions:
REMARK  status: ('A' for Active; 'I' for Inactive)
REMARK    1  A    between atoms: C_1  and  C_2
REMARK    2  A    between atoms: C_2  and  C_3
REMARK    3  A    between atoms: C_6  and  C_7
REMARK    4  A    between atoms: C_7  and  C_8
REMARK                            x       y       z     vdW  Elec       q    Type
REMARK                         _______ _______ _______ _____ _____    ______ ____
ROOT
ATOM      1  C   UNL     1       3.160   4.565  19.607  0.00  0.00    +0.000 C 
ATOM      2  C   UNL     1       2.135   4.738  20.757  0.00  0.00    +0.000 C 
ATOM      3  C   UNL     1       1.200   3.525  20.846  0.00  0.00    +0.000 C 
ATOM      4  C   UNL     1       0.399   3.415  19.540  0.00  0.00    +0.000 C 
ATOM      5  C   UNL     1       1.359   3.245  18.352  0.00  0.00    +0.000 C 
ATOM      6  C   UNL     1       2.154   1.944  18.556  0.00  0.00    +0.000 C 
ATOM      7  C   UNL     1       2.978   2.038  19.847  0.00  0.00    +0.000 C 
ATOM      8  C   UNL     1       2.048   2.260  21.052  0.00  0.00    +0.000 C 
ATOM      9  C   UNL     1       3.942   3.229  19.737  0.00  0.00    +0.000 C 
ATOM     10  C   UNL     1       2.329   4.450  18.289  0.00  0.00    +0.000 C 
ENDROOT
BRANCH   1  11
ATOM     11  C   UNL     1       4.120   5.782  19.547  0.00  0.00    +0.000 C 
BRANCH  11  17
ATOM     12  C   UNL     1       7.536   6.963  17.226  0.00  0.00    +0.000 C 
ATOM     13  C   UNL     1       7.034   5.543  17.481  0.00  0.00    +0.000 C 
ATOM     14  C   UNL     1       7.400   4.619  16.330  0.00  0.00    +0.000 C 
ATOM     15  O   UNL     1       7.584   5.062  18.702  0.00  0.00    +0.000 OA
ATOM     16  N   UNL     1       6.539   5.193  19.664  0.00  0.00    +0.000 NA
ATOM     17  C   UNL     1       5.488   5.501  18.978  0.00  0.00    +0.000 C 
ATOM     18  O   UNL     1       5.618   5.594  17.643  0.00  0.00    +0.000 OA
ENDBRANCH  11  17
ENDBRANCH   1  11
TORSDOF 2
ENDMDL
MODEL 7
REMARK VINA RESULT:      -7.8      1.240      2.159
REMARK  Name = 
REMARK  4 active torsions:
REMARK  status: ('A' for Active; 'I' for Inactive)
REMARK    1  A    between atoms: C_1  and  C_2
REMARK    2  A    between atoms: C_2  and  C_3
REMARK    3  A    between atoms: C_6  and  C_7
REMARK    4  A    between atoms: C_7  and  C_8
REMARK                            x       y       z     vdW  Elec       q    Type
REMARK                         _______ _______ _______ _____ _____    ______ ____
ROOT
ATOM      1  C   UNL     1       3.437   3.965  17.782  0.00  0.00    +0.000 C 
ATOM      2  C   UNL     1       2.544   5.114  18.315  0.00  0.00    +0.000 C 
ATOM      3  C   UNL     1       1.767   4.672  19.562  0.00  0.00    +0.000 C 
ATOM      4  C   UNL     1       0.833   3.513  19.185  0.00  0.00    +0.000 C 
ATOM      5  C   UNL     1       1.657   2.335  18.641  0.00  0.00    +0.000 C 
ATOM      6  C   UNL     1       2.611   1.861  19.750  0.00  0.00    +0.000 C 
ATOM      7  C   UNL     1       3.568   2.998  20.132  0.00  0.00    +0.000 C 
ATOM      8  C   UNL     1       2.769   4.213  20.633  0.00  0.00    +0.000 C 
ATOM      9  C   UNL     1       4.373   3.409  18.890  0.00  0.00    +0.000 C 
ATOM     10  C   UNL     1       2.472   2.794  17.407  0.00  0.00    +0.000 C 
ENDROOT
BRANCH   1  11
ATOM     11  C   UNL     1       4.240   4.433  16.541  0.00  0.00    +0.000 C 
BRANCH  11  17
ATOM     12  C   UNL     1       7.294   5.689  19.289  0.00  0.00    +0.000 C 
ATOM     13  C   UNL     1       7.126   6.115  17.832  0.00  0.00    +0.000 C 
ATOM     14  C   UNL     1       7.686   7.510  17.602  0.00  0.00    +0.000 C 
ATOM     15  O   UNL     1       7.774   5.171  16.987  0.00  0.00    +0.000 OA
ATOM     16  N   UNL     1       6.730   4.350  16.467  0.00  0.00    +0.000 NA
ATOM     17  C   UNL     1       5.634   4.935  16.823  0.00  0.00    +0.000 C 
ATOM     18  O   UNL     1       5.735   6.083  17.516  0.00  0.00    +0.000 OA
ENDBRANCH  11  17
ENDBRANCH   1  11
TORSDOF 2
ENDMDL
MODEL 8
REMARK VINA RESULT:      -7.7      1.312      2.185
REMARK  Name = 
REMARK  4 active torsions:
REMARK  status: ('A' for Active; 'I' for Inactive)
REMARK    1  A    between atoms: C_1  and  C_2
REMARK    2  A    between atoms: C_2  and  C_3
REMARK    3  A    between atoms: C_6  and  C_7
REMARK    4  A    between atoms: C_7  and  C_8
REMARK                            x       y       z     vdW  Elec       q    Type
REMARK                         _______ _______ _______ _____ _____    ______ ____
ROOT
ATOM      1  C   UNL     1       3.556   3.849  17.692  0.00  0.00    +0.000 C 
ATOM      2  C   UNL     1       4.455   3.486  18.901  0.00  0.00    +0.000 C 
ATOM      3  C   UNL     1       3.607   3.081  20.113  0.00  0.00    +0.000 C 
ATOM      4  C   UNL     1       2.740   4.275  20.539  0.00  0.00    +0.000 C 
ATOM      5  C   UNL     1       1.822   4.692  19.379  0.00  0.00    +0.000 C 
ATOM      6  C   UNL     1       0.902   3.507  19.043  0.00  0.00    +0.000 C 
ATOM      7  C   UNL     1       1.746   2.306  18.596  0.00  0.00    +0.000 C 
ATOM      8  C   UNL     1       2.713   1.895  19.719  0.00  0.00    +0.000 C 
ATOM      9  C   UNL     1       2.561   2.703  17.356  0.00  0.00    +0.000 C 
ATOM     10  C   UNL     1       2.678   5.061  18.143  0.00  0.00    +0.000 C 
ENDROOT
BRANCH   1  11
ATOM     11  C   UNL     1       4.424   4.226  16.463  0.00  0.00    +0.000 C 
BRANCH  11  17
ATOM     12  C   UNL     1       7.302   5.717  19.283  0.00  0.00    +0.000 C 
ATOM     13  C   UNL     1       7.168   6.093  17.808  0.00  0.00    +0.000 C 
ATOM     14  C   UNL     1       7.664   7.508  17.557  0.00  0.00    +0.000 C 
ATOM     15  O   UNL     1       7.896   5.160  17.017  0.00  0.00    +0.000 OA
ATOM     16  N   UNL     1       6.916   4.272  16.484  0.00  0.00    +0.000 NA
ATOM     17  C   UNL     1       5.778   4.808  16.781  0.00  0.00    +0.000 C 
ATOM     18  O   UNL     1       5.794   5.979  17.443  0.00  0.00    +0.000 OA
ENDBRANCH  11  17
ENDBRANCH   1  11
TORSDOF 2
ENDMDL
MODEL 9
REMARK VINA RESULT:      -7.7      1.560      1.899
REMARK  Name = 
REMARK  4 active torsions:
REMARK  status: ('A' for Active; 'I' for Inactive)
REMARK    1  A    between atoms: C_1  and  C_2
REMARK    2  A    between atoms: C_2  and  C_3
REMARK    3  A    between atoms: C_6  and  C_7
REMARK    4  A    between atoms: C_7  and  C_8
REMARK                            x       y       z     vdW  Elec       q    Type
REMARK                         _______ _______ _______ _____ _____    ______ ____
ROOT
ATOM      1  C   UNL     1       3.103   4.621  19.582  0.00  0.00    +0.000 C 
ATOM      2  C   UNL     1       2.236   4.479  18.305  0.00  0.00    +0.000 C 
ATOM      3  C   UNL     1       1.274   3.291  18.425  0.00  0.00    +0.000 C 
ATOM      4  C   UNL     1       2.090   1.997  18.562  0.00  0.00    +0.000 C 
ATOM      5  C   UNL     1       2.980   2.073  19.813  0.00  0.00    +0.000 C 
ATOM      6  C   UNL     1       2.071   2.216  21.044  0.00  0.00    +0.000 C 
ATOM      7  C   UNL     1       1.257   3.513  20.939  0.00  0.00    +0.000 C 
ATOM      8  C   UNL     1       0.392   3.490  19.668  0.00  0.00    +0.000 C 
ATOM      9  C   UNL     1       2.225   4.704  20.861  0.00  0.00    +0.000 C 
ATOM     10  C   UNL     1       3.923   3.297  19.709  0.00  0.00    +0.000 C 
ENDROOT
BRANCH   1  11
ATOM     11  C   UNL     1       4.050   5.844  19.462  0.00  0.00    +0.000 C 
BRANCH  11  17
ATOM     12  C   UNL     1       7.542   6.972  17.228  0.00  0.00    +0.000 C 
ATOM     13  C   UNL     1       7.019   5.559  17.481  0.00  0.00    +0.000 C 
ATOM     14  C   UNL     1       7.408   4.621  16.350  0.00  0.00    +0.000 C 
ATOM     15  O   UNL     1       7.529   5.084  18.722  0.00  0.00    +0.000 OA
ATOM     16  N   UNL     1       6.459   5.234  19.652  0.00  0.00    +0.000 NA
ATOM     17  C   UNL     1       5.430   5.545  18.935  0.00  0.00    +0.000 C 
ATOM     18  O   UNL     1       5.600   5.624  17.603  0.00  0.00    +0.000 OA
ENDBRANCH  11  17
ENDBRANCH   1  11
TORSDOF 2
ENDMDL
