MODEL 1
REMARK VINA RESULT:      -9.9      0.000      0.000
REMARK  Name = 
REMARK  3 active torsions:
REMARK  status: ('A' for Active; 'I' for Inactive)
REMARK    1  A    between atoms: C_1  and  C_2
REMARK    2  A    between atoms: C_2  and  C_3
REMARK    3  A    between atoms: C_12  and  N_13
REMARK                            x       y       z     vdW  Elec       q    Type
REMARK                         _______ _______ _______ _____ _____    ______ ____
ROOT
ATOM      1  C   UNL     1       3.638   1.422  18.198  0.00  0.00    +0.000 C 
ATOM      2  C   UNL     1       3.573   2.708  18.998  0.00  0.00    +0.000 C 
ATOM      3  C   UNL     1       4.212   2.512  20.395  0.00  0.00    +0.000 C 
ATOM      4  C   UNL     1       4.197   3.885  18.228  0.00  0.00    +0.000 C 
ATOM      5  O   UNL     1       5.230   3.847  17.572  0.00  0.00    +0.000 OA
ATOM      6  C   UNL     1       3.458   5.149  18.413  0.00  0.00    +0.000 A 
ATOM      7  C   UNL     1       3.644   6.378  17.813  0.00  0.00    +0.000 A 
ATOM      8  C   UNL     1       2.842   7.443  18.210  0.00  0.00    +0.000 A 
ATOM      9  N   UNL     1       2.753   8.519  17.418  0.00  0.00    +0.000 NA
ATOM     10  C   UNL     1       1.913   9.505  17.792  0.00  0.00    +0.000 A 
ATOM     11  C   UNL     1       1.316   9.563  19.037  0.00  0.00    +0.000 A 
ATOM     12  C   UNL     1       1.490   8.496  19.924  0.00  0.00    +0.000 A 
ATOM     13  C   UNL     1       2.083   7.331  19.409  0.00  0.00    +0.000 A 
ATOM     14  C   UNL     1       1.816   6.047  19.920  0.00  0.00    +0.000 A 
ATOM     15  C   UNL     1       2.386   4.988  19.256  0.00  0.00    +0.000 A 
ATOM     16  S   UNL     1       1.903   3.315  19.248  0.00  0.00    +0.000 S 
ATOM     17  O   UNL     1       1.395   2.988  20.557  0.00  0.00    +0.000 OA
ATOM     18  O   UNL     1       1.109   3.119  18.051  0.00  0.00    +0.000 OA
ENDROOT
BRANCH  12  19
ATOM     19  N   UNL     1       0.848   8.563  21.171  0.00  0.00    +0.000 N 
ATOM     20  C   UNL     1       0.277   9.528  21.933  0.00  0.00    +0.000 A 
ATOM     21  N   UNL     1       0.112   9.249  23.228  0.00  0.00    +0.000 NA
ATOM     22  N   UNL     1      -0.676  10.229  23.683  0.00  0.00    +0.000 N 
ATOM     23  C   UNL     1      -1.189  11.015  22.695  0.00  0.00    +0.000 A 
ATOM     24  C   UNL     1      -2.258  11.921  22.711  0.00  0.00    +0.000 A 
ATOM     25  C   UNL     1      -2.372  12.769  21.616  0.00  0.00    +0.000 A 
ATOM     26  C   UNL     1      -1.430  12.710  20.594  0.00  0.00    +0.000 A 
ATOM     27  F   UNL     1      -1.464  13.656  19.644  0.00  0.00    +0.000 F 
ATOM     28  C   UNL     1      -0.448  11.699  20.530  0.00  0.00    +0.000 A 
ATOM     29  C   UNL     1      -0.359  10.775  21.598  0.00  0.00    +0.000 A 
ATOM     30  H   UNL     1       0.993   7.708  21.701  0.00  0.00    +0.000 HD
ATOM     31  H   UNL     1      -0.824  10.316  24.681  0.00  0.00    +0.000 HD
ENDBRANCH  12  19
TORSDOF 1
ENDMDL
MODEL 2
REMARK VINA RESULT:      -8.6      6.593      9.109
REMARK  Name = 
REMARK  3 active torsions:
REMARK  status: ('A' for Active; 'I' for Inactive)
REMARK    1  A    between atoms: C_1  and  C_2
REMARK    2  A    between atoms: C_2  and  C_3
REMARK    3  A    between atoms: C_12  and  N_13
REMARK                            x       y       z     vdW  Elec       q    Type
REMARK                         _______ _______ _______ _____ _____    ______ ____
ROOT
ATOM      1  C   UNL     1       1.965  18.198  20.039  0.00  0.00    +0.000 C 
ATOM      2  C   UNL     1       1.736  16.930  19.239  0.00  0.00    +0.000 C 
ATOM      3  C   UNL     1       2.155  17.136  17.762  0.00  0.00    +0.000 C 
ATOM      4  C   UNL     1       2.437  15.721  19.883  0.00  0.00    +0.000 C 
ATOM      5  O   UNL     1       3.561  15.717  20.369  0.00  0.00    +0.000 OA
ATOM      6  C   UNL     1       1.640  14.482  19.796  0.00  0.00    +0.000 A 
ATOM      7  C   UNL     1       1.879  13.237  20.341  0.00  0.00    +0.000 A 
ATOM      8  C   UNL     1       0.993  12.202  20.057  0.00  0.00    +0.000 A 
ATOM      9  N   UNL     1       0.997  11.113  20.837  0.00  0.00    +0.000 NA
ATOM     10  C   UNL     1       0.079  10.159  20.584  0.00  0.00    +0.000 A 
ATOM     11  C   UNL     1      -0.706  10.142  19.447  0.00  0.00    +0.000 A 
ATOM     12  C   UNL     1      -0.641  11.222  18.560  0.00  0.00    +0.000 A 
ATOM     13  C   UNL     1       0.061  12.360  18.995  0.00  0.00    +0.000 A 
ATOM     14  C   UNL     1      -0.244  13.660  18.551  0.00  0.00    +0.000 A 
ATOM     15  C   UNL     1       0.455  14.690  19.135  0.00  0.00    +0.000 A 
ATOM     16  S   UNL     1       0.030  16.374  19.245  0.00  0.00    +0.000 S 
ATOM     17  O   UNL     1      -0.666  16.742  18.037  0.00  0.00    +0.000 OA
ATOM     18  O   UNL     1      -0.561  16.568  20.554  0.00  0.00    +0.000 OA
ENDROOT
BRANCH  12  19
ATOM     19  N   UNL     1      -1.472  11.198  17.429  0.00  0.00    +0.000 N 
ATOM     20  C   UNL     1      -2.806  11.160  17.188  0.00  0.00    +0.000 A 
ATOM     21  N   UNL     1      -3.184  10.766  15.970  0.00  0.00    +0.000 NA
ATOM     22  N   UNL     1      -4.488  11.054  15.915  0.00  0.00    +0.000 N 
ATOM     23  C   UNL     1      -4.923  11.800  16.970  0.00  0.00    +0.000 A 
ATOM     24  C   UNL     1      -6.097  12.547  17.137  0.00  0.00    +0.000 A 
ATOM     25  C   UNL     1      -6.379  12.984  18.426  0.00  0.00    +0.000 A 
ATOM     26  C   UNL     1      -5.528  12.643  19.473  0.00  0.00    +0.000 A 
ATOM     27  F   UNL     1      -5.918  12.925  20.724  0.00  0.00    +0.000 F 
ATOM     28  C   UNL     1      -4.284  12.014  19.261  0.00  0.00    +0.000 A 
ATOM     29  C   UNL     1      -3.938  11.626  17.944  0.00  0.00    +0.000 A 
ATOM     30  H   UNL     1      -0.937  10.994  16.589  0.00  0.00    +0.000 HD
ATOM     31  H   UNL     1      -5.034  10.711  15.135  0.00  0.00    +0.000 HD
ENDBRANCH  12  19
TORSDOF 1
ENDMDL
MODEL 3
REMARK VINA RESULT:      -8.3      5.685      8.055
REMARK  Name = 
REMARK  3 active torsions:
REMARK  status: ('A' for Active; 'I' for Inactive)
REMARK    1  A    between atoms: C_1  and  C_2
REMARK    2  A    between atoms: C_2  and  C_3
REMARK    3  A    between atoms: C_12  and  N_13
REMARK                            x       y       z     vdW  Elec       q    Type
REMARK                         _______ _______ _______ _____ _____    ______ ____
ROOT
ATOM      1  C   UNL     1       1.831  11.115  18.514  0.00  0.00    +0.000 C 
ATOM      2  C   UNL     1       0.853  11.160  19.673  0.00  0.00    +0.000 C 
ATOM      3  C   UNL     1       0.868   9.820  20.450  0.00  0.00    +0.000 C 
ATOM      4  C   UNL     1       1.116  12.370  20.587  0.00  0.00    +0.000 C 
ATOM      5  O   UNL     1       2.215  12.775  20.944  0.00  0.00    +0.000 OA
ATOM      6  C   UNL     1      -0.126  12.991  21.088  0.00  0.00    +0.000 A 
ATOM      7  C   UNL     1      -0.301  14.139  21.834  0.00  0.00    +0.000 A 
ATOM      8  C   UNL     1      -1.588  14.483  22.238  0.00  0.00    +0.000 A 
ATOM      9  N   UNL     1      -1.828  15.738  22.638  0.00  0.00    +0.000 NA
ATOM     10  C   UNL     1      -3.098  16.061  22.955  0.00  0.00    +0.000 A 
ATOM     11  C   UNL     1      -4.107  15.128  23.098  0.00  0.00    +0.000 A 
ATOM     12  C   UNL     1      -3.843  13.789  22.791  0.00  0.00    +0.000 A 
ATOM     13  C   UNL     1      -2.625  13.513  22.146  0.00  0.00    +0.000 A 
ATOM     14  C   UNL     1      -2.452  12.419  21.278  0.00  0.00    +0.000 A 
ATOM     15  C   UNL     1      -1.239  12.327  20.638  0.00  0.00    +0.000 A 
ATOM     16  S   UNL     1      -0.841  11.476  19.172  0.00  0.00    +0.000 S 
ATOM     17  O   UNL     1      -1.628  10.269  19.124  0.00  0.00    +0.000 OA
ATOM     18  O   UNL     1      -0.878  12.453  18.102  0.00  0.00    +0.000 OA
ENDROOT
BRANCH  12  19
ATOM     19  N   UNL     1      -4.893  12.865  22.914  0.00  0.00    +0.000 N 
ATOM     20  C   UNL     1      -5.907  12.419  22.133  0.00  0.00    +0.000 A 
ATOM     21  N   UNL     1      -6.918  11.808  22.755  0.00  0.00    +0.000 NA
ATOM     22  N   UNL     1      -7.634  11.259  21.769  0.00  0.00    +0.000 N 
ATOM     23  C   UNL     1      -7.020  11.319  20.554  0.00  0.00    +0.000 A 
ATOM     24  C   UNL     1      -7.274  10.619  19.367  0.00  0.00    +0.000 A 
ATOM     25  C   UNL     1      -6.646  11.090  18.219  0.00  0.00    +0.000 A 
ATOM     26  C   UNL     1      -5.843  12.224  18.287  0.00  0.00    +0.000 A 
ATOM     27  F   UNL     1      -5.398  12.756  17.139  0.00  0.00    +0.000 F 
ATOM     28  C   UNL     1      -5.489  12.827  19.512  0.00  0.00    +0.000 A 
ATOM     29  C   UNL     1      -6.055  12.317  20.705  0.00  0.00    +0.000 A 
ATOM     30  H   UNL     1      -5.018  12.583  23.882  0.00  0.00    +0.000 HD
ATOM     31  H   UNL     1      -8.540  10.861  21.983  0.00  0.00    +0.000 HD
ENDBRANCH  12  19
TORSDOF 1
ENDMDL
MODEL 4
REMARK VINA RESULT:      -8.2      5.275      8.828
REMARK  Name = 
REMARK  3 active torsions:
REMARK  status: ('A' for Active; 'I' for Inactive)
REMARK    1  A    between atoms: C_1  and  C_2
REMARK    2  A    between atoms: C_2  and  C_3
REMARK    3  A    between atoms: C_12  and  N_13
REMARK                            x       y       z     vdW  Elec       q    Type
REMARK                         _______ _______ _______ _____ _____    ______ ____
ROOT
ATOM      1  C   UNL     1       3.426  16.739  20.810  0.00  0.00    +0.000 C 
ATOM      2  C   UNL     1       3.381  15.233  20.634  0.00  0.00    +0.000 C 
ATOM      3  C   UNL     1       4.703  14.589  21.119  0.00  0.00    +0.000 C 
ATOM      4  C   UNL     1       2.146  14.622  21.318  0.00  0.00    +0.000 C 
ATOM      5  O   UNL     1       1.706  14.932  22.418  0.00  0.00    +0.000 OA
ATOM      6  C   UNL     1       1.546  13.520  20.540  0.00  0.00    +0.000 A 
ATOM      7  C   UNL     1       0.387  12.806  20.769  0.00  0.00    +0.000 A 
ATOM      8  C   UNL     1       0.067  11.759  19.910  0.00  0.00    +0.000 A 
ATOM      9  N   UNL     1      -1.190  11.298  19.890  0.00  0.00    +0.000 NA
ATOM     10  C   UNL     1      -1.488  10.333  18.996  0.00  0.00    +0.000 A 
ATOM     11  C   UNL     1      -0.534   9.652  18.265  0.00  0.00    +0.000 A 
ATOM     12  C   UNL     1       0.804  10.049  18.359  0.00  0.00    +0.000 A 
ATOM     13  C   UNL     1       1.063  11.259  19.026  0.00  0.00    +0.000 A 
ATOM     14  C   UNL     1       2.172  12.074  18.727  0.00  0.00    +0.000 A 
ATOM     15  C   UNL     1       2.247  13.277  19.386  0.00  0.00    +0.000 A 
ATOM     16  S   UNL     1       3.118  14.716  18.936  0.00  0.00    +0.000 S 
ATOM     17  O   UNL     1       4.345  14.316  18.293  0.00  0.00    +0.000 OA
ATOM     18  O   UNL     1       2.165  15.590  18.282  0.00  0.00    +0.000 OA
ENDROOT
BRANCH  12  19
ATOM     19  N   UNL     1       1.752   9.363  17.582  0.00  0.00    +0.000 N 
ATOM     20  C   UNL     1       2.630   8.348  17.771  0.00  0.00    +0.000 A 
ATOM     21  N   UNL     1       3.622   8.241  16.885  0.00  0.00    +0.000 NA
ATOM     22  N   UNL     1       4.174   7.051  17.142  0.00  0.00    +0.000 N 
ATOM     23  C   UNL     1       3.455   6.299  18.022  0.00  0.00    +0.000 A 
ATOM     24  C   UNL     1       3.513   4.929  18.314  0.00  0.00    +0.000 A 
ATOM     25  C   UNL     1       2.833   4.505  19.449  0.00  0.00    +0.000 A 
ATOM     26  C   UNL     1       2.170   5.433  20.246  0.00  0.00    +0.000 A 
ATOM     27  F   UNL     1       1.678   5.021  21.423  0.00  0.00    +0.000 F 
ATOM     28  C   UNL     1       2.006   6.779  19.859  0.00  0.00    +0.000 A 
ATOM     29  C   UNL     1       2.626   7.220  18.666  0.00  0.00    +0.000 A 
ATOM     30  H   UNL     1       1.939   9.859  16.715  0.00  0.00    +0.000 HD
ATOM     31  H   UNL     1       5.047   6.807  16.691  0.00  0.00    +0.000 HD
ENDBRANCH  12  19
TORSDOF 1
ENDMDL
MODEL 5
REMARK VINA RESULT:      -8.2      9.223     11.525
REMARK  Name = 
REMARK  3 active torsions:
REMARK  status: ('A' for Active; 'I' for Inactive)
REMARK    1  A    between atoms: C_1  and  C_2
REMARK    2  A    between atoms: C_2  and  C_3
REMARK    3  A    between atoms: C_12  and  N_13
REMARK                            x       y       z     vdW  Elec       q    Type
REMARK                         _______ _______ _______ _____ _____    ______ ____
ROOT
ATOM      1  C   UNL     1       0.734  15.086  19.212  0.00  0.00    +0.000 C 
ATOM      2  C   UNL     1       2.217  14.769  19.165  0.00  0.00    +0.000 C 
ATOM      3  C   UNL     1       2.458  13.388  18.509  0.00  0.00    +0.000 C 
ATOM      4  C   UNL     1       3.013  15.892  18.477  0.00  0.00    +0.000 C 
ATOM      5  O   UNL     1       2.677  16.494  17.465  0.00  0.00    +0.000 OA
ATOM      6  C   UNL     1       4.317  16.148  19.120  0.00  0.00    +0.000 A 
ATOM      7  C   UNL     1       5.252  17.129  18.861  0.00  0.00    +0.000 A 
ATOM      8  C   UNL     1       6.447  17.119  19.575  0.00  0.00    +0.000 A 
ATOM      9  N   UNL     1       7.194  18.229  19.605  0.00  0.00    +0.000 NA
ATOM     10  C   UNL     1       8.309  18.213  20.363  0.00  0.00    +0.000 A 
ATOM     11  C   UNL     1       8.830  17.063  20.925  0.00  0.00    +0.000 A 
ATOM     12  C   UNL     1       8.116  15.866  20.807  0.00  0.00    +0.000 A 
ATOM     13  C   UNL     1       6.804  15.955  20.311  0.00  0.00    +0.000 A 
ATOM     14  C   UNL     1       5.793  15.038  20.657  0.00  0.00    +0.000 A 
ATOM     15  C   UNL     1       4.532  15.303  20.180  0.00  0.00    +0.000 A 
ATOM     16  S   UNL     1       2.997  14.744  20.782  0.00  0.00    +0.000 S 
ATOM     17  O   UNL     1       3.171  13.403  21.281  0.00  0.00    +0.000 OA
ATOM     18  O   UNL     1       2.467  15.804  21.616  0.00  0.00    +0.000 OA
ENDROOT
BRANCH  12  19
ATOM     19  N   UNL     1       8.649  14.717  21.413  0.00  0.00    +0.000 N 
ATOM     20  C   UNL     1       9.157  13.532  20.997  0.00  0.00    +0.000 A 
ATOM     21  N   UNL     1       9.210  12.552  21.902  0.00  0.00    +0.000 NA
ATOM     22  N   UNL     1       9.960  11.606  21.329  0.00  0.00    +0.000 N 
ATOM     23  C   UNL     1      10.560  12.016  20.175  0.00  0.00    +0.000 A 
ATOM     24  C   UNL     1      11.629  11.464  19.456  0.00  0.00    +0.000 A 
ATOM     25  C   UNL     1      11.841  11.962  18.176  0.00  0.00    +0.000 A 
ATOM     26  C   UNL     1      10.990  12.935  17.663  0.00  0.00    +0.000 A 
ATOM     27  F   UNL     1      11.110  13.265  16.369  0.00  0.00    +0.000 F 
ATOM     28  C   UNL     1      10.012  13.576  18.452  0.00  0.00    +0.000 A 
ATOM     29  C   UNL     1       9.826  13.138  19.785  0.00  0.00    +0.000 A 
ATOM     30  H   UNL     1       8.454  14.709  22.410  0.00  0.00    +0.000 HD
ATOM     31  H   UNL     1      10.023  10.696  21.767  0.00  0.00    +0.000 HD
ENDBRANCH  12  19
TORSDOF 1
ENDMDL
MODEL 6
REMARK VINA RESULT:      -8.1      3.039      4.172
REMARK  Name = 
REMARK  3 active torsions:
REMARK  status: ('A' for Active; 'I' for Inactive)
REMARK    1  A    between atoms: C_1  and  C_2
REMARK    2  A    between atoms: C_2  and  C_3
REMARK    3  A    between atoms: C_12  and  N_13
REMARK                            x       y       z     vdW  Elec       q    Type
REMARK                         _______ _______ _______ _____ _____    ______ ____
ROOT
ATOM      1  C   UNL     1       7.086   4.124  15.899  0.00  0.00    +0.000 C 
ATOM      2  C   UNL     1       5.898   5.044  16.106  0.00  0.00    +0.000 C 
ATOM      3  C   UNL     1       5.543   5.777  14.789  0.00  0.00    +0.000 C 
ATOM      4  C   UNL     1       4.696   4.289  16.700  0.00  0.00    +0.000 C 
ATOM      5  O   UNL     1       4.315   3.174  16.371  0.00  0.00    +0.000 OA
ATOM      6  C   UNL     1       3.953   5.087  17.695  0.00  0.00    +0.000 A 
ATOM      7  C   UNL     1       2.898   4.725  18.508  0.00  0.00    +0.000 A 
ATOM      8  C   UNL     1       2.324   5.692  19.327  0.00  0.00    +0.000 A 
ATOM      9  N   UNL     1       1.564   5.300  20.358  0.00  0.00    +0.000 NA
ATOM     10  C   UNL     1       1.081   6.256  21.178  0.00  0.00    +0.000 A 
ATOM     11  C   UNL     1       1.142   7.606  20.890  0.00  0.00    +0.000 A 
ATOM     12  C   UNL     1       1.838   8.027  19.753  0.00  0.00    +0.000 A 
ATOM     13  C   UNL     1       2.618   7.064  19.091  0.00  0.00    +0.000 A 
ATOM     14  C   UNL     1       3.774   7.390  18.357  0.00  0.00    +0.000 A 
ATOM     15  C   UNL     1       4.496   6.338  17.847  0.00  0.00    +0.000 A 
ATOM     16  S   UNL     1       6.169   6.294  17.365  0.00  0.00    +0.000 S 
ATOM     17  O   UNL     1       6.507   7.575  16.796  0.00  0.00    +0.000 OA
ATOM     18  O   UNL     1       6.907   5.737  18.481  0.00  0.00    +0.000 OA
ENDROOT
BRANCH  12  19
ATOM     19  N   UNL     1       1.914   9.407  19.499  0.00  0.00    +0.000 N 
ATOM     20  C   UNL     1       1.202  10.317  18.791  0.00  0.00    +0.000 A 
ATOM     21  N   UNL     1       1.819  11.463  18.497  0.00  0.00    +0.000 NA
ATOM     22  N   UNL     1       0.848  12.258  18.036  0.00  0.00    +0.000 N 
ATOM     23  C   UNL     1      -0.402  11.742  18.208  0.00  0.00    +0.000 A 
ATOM     24  C   UNL     1      -1.660  12.358  18.151  0.00  0.00    +0.000 A 
ATOM     25  C   UNL     1      -2.764  11.515  18.109  0.00  0.00    +0.000 A 
ATOM     26  C   UNL     1      -2.581  10.136  18.091  0.00  0.00    +0.000 A 
ATOM     27  F   UNL     1      -3.650   9.357  17.871  0.00  0.00    +0.000 F 
ATOM     28  C   UNL     1      -1.319   9.539  18.292  0.00  0.00    +0.000 A 
ATOM     29  C   UNL     1      -0.186  10.378  18.414  0.00  0.00    +0.000 A 
ATOM     30  H   UNL     1       2.816   9.779  19.783  0.00  0.00    +0.000 HD
ATOM     31  H   UNL     1       1.098  13.141  17.608  0.00  0.00    +0.000 HD
ENDBRANCH  12  19
TORSDOF 1
ENDMDL
MODEL 7
REMARK VINA RESULT:      -8.1      2.611      3.822
REMARK  Name = 
REMARK  3 active torsions:
REMARK  status: ('A' for Active; 'I' for Inactive)
REMARK    1  A    between atoms: C_1  and  C_2
REMARK    2  A    between atoms: C_2  and  C_3
REMARK    3  A    between atoms: C_12  and  N_13
REMARK                            x       y       z     vdW  Elec       q    Type
REMARK                         _______ _______ _______ _____ _____    ______ ____
ROOT
ATOM      1  C   UNL     1       7.106   4.046  16.022  0.00  0.00    +0.000 C 
ATOM      2  C   UNL     1       5.874   4.922  16.148  0.00  0.00    +0.000 C 
ATOM      3  C   UNL     1       5.443   5.457  14.760  0.00  0.00    +0.000 C 
ATOM      4  C   UNL     1       4.733   4.190  16.875  0.00  0.00    +0.000 C 
ATOM      5  O   UNL     1       4.406   3.022  16.705  0.00  0.00    +0.000 OA
ATOM      6  C   UNL     1       3.972   5.071  17.783  0.00  0.00    +0.000 A 
ATOM      7  C   UNL     1       2.962   4.763  18.671  0.00  0.00    +0.000 A 
ATOM      8  C   UNL     1       2.356   5.798  19.378  0.00  0.00    +0.000 A 
ATOM      9  N   UNL     1       1.648   5.505  20.476  0.00  0.00    +0.000 NA
ATOM     10  C   UNL     1       1.133   6.533  21.181  0.00  0.00    +0.000 A 
ATOM     11  C   UNL     1       1.110   7.835  20.720  0.00  0.00    +0.000 A 
ATOM     12  C   UNL     1       1.751   8.140  19.514  0.00  0.00    +0.000 A 
ATOM     13  C   UNL     1       2.566   7.140  18.957  0.00  0.00    +0.000 A 
ATOM     14  C   UNL     1       3.682   7.428  18.148  0.00  0.00    +0.000 A 
ATOM     15  C   UNL     1       4.449   6.357  17.753  0.00  0.00    +0.000 A 
ATOM     16  S   UNL     1       6.107   6.338  17.225  0.00  0.00    +0.000 S 
ATOM     17  O   UNL     1       6.357   7.550  16.484  0.00  0.00    +0.000 OA
ATOM     18  O   UNL     1       6.906   5.972  18.378  0.00  0.00    +0.000 OA
ENDROOT
BRANCH  12  19
ATOM     19  N   UNL     1       1.742   9.476  19.082  0.00  0.00    +0.000 N 
ATOM     20  C   UNL     1       0.984  10.578  19.306  0.00  0.00    +0.000 A 
ATOM     21  N   UNL     1       1.080  11.562  18.410  0.00  0.00    +0.000 NA
ATOM     22  N   UNL     1       0.451  12.595  18.980  0.00  0.00    +0.000 N 
ATOM     23  C   UNL     1       0.129  12.380  20.287  0.00  0.00    +0.000 A 
ATOM     24  C   UNL     1      -0.242  13.278  21.296  0.00  0.00    +0.000 A 
ATOM     25  C   UNL     1      -0.765  12.727  22.459  0.00  0.00    +0.000 A 
ATOM     26  C   UNL     1      -0.926  11.349  22.560  0.00  0.00    +0.000 A 
ATOM     27  F   UNL     1      -1.594  10.864  23.616  0.00  0.00    +0.000 F 
ATOM     28  C   UNL     1      -0.417  10.457  21.593  0.00  0.00    +0.000 A 
ATOM     29  C   UNL     1       0.190  10.992  20.432  0.00  0.00    +0.000 A 
ATOM     30  H   UNL     1       2.356   9.603  18.282  0.00  0.00    +0.000 HD
ATOM     31  H   UNL     1       0.262  13.422  18.426  0.00  0.00    +0.000 HD
ENDBRANCH  12  19
TORSDOF 1
ENDMDL
MODEL 8
REMARK VINA RESULT:      -8.0      6.019      8.237
REMARK  Name = 
REMARK  3 active torsions:
REMARK  status: ('A' for Active; 'I' for Inactive)
REMARK    1  A    between atoms: C_1  and  C_2
REMARK    2  A    between atoms: C_2  and  C_3
REMARK    3  A    between atoms: C_12  and  N_13
REMARK                            x       y       z     vdW  Elec       q    Type
REMARK                         _______ _______ _______ _____ _____    ______ ____
ROOT
ATOM      1  C   UNL     1       2.639  16.425  18.819  0.00  0.00    +0.000 C 
ATOM      2  C   UNL     1       1.449  15.588  19.247  0.00  0.00    +0.000 C 
ATOM      3  C   UNL     1       0.141  16.154  18.640  0.00  0.00    +0.000 C 
ATOM      4  C   UNL     1       1.655  14.101  18.912  0.00  0.00    +0.000 C 
ATOM      5  O   UNL     1       2.133  13.657  17.876  0.00  0.00    +0.000 OA
ATOM      6  C   UNL     1       1.133  13.199  19.958  0.00  0.00    +0.000 A 
ATOM      7  C   UNL     1       1.223  11.826  20.067  0.00  0.00    +0.000 A 
ATOM      8  C   UNL     1       0.585  11.197  21.131  0.00  0.00    +0.000 A 
ATOM      9  N   UNL     1       0.945   9.950  21.458  0.00  0.00    +0.000 NA
ATOM     10  C   UNL     1       0.361   9.392  22.538  0.00  0.00    +0.000 A 
ATOM     11  C   UNL     1      -0.728   9.945  23.183  0.00  0.00    +0.000 A 
ATOM     12  C   UNL     1      -1.190  11.202  22.781  0.00  0.00    +0.000 A 
ATOM     13  C   UNL     1      -0.379  11.922  21.887  0.00  0.00    +0.000 A 
ATOM     14  C   UNL     1      -0.356  13.328  21.839  0.00  0.00    +0.000 A 
ATOM     15  C   UNL     1       0.558  13.901  20.988  0.00  0.00    +0.000 A 
ATOM     16  S   UNL     1       1.229  15.507  21.026  0.00  0.00    +0.000 S 
ATOM     17  O   UNL     1       0.206  16.411  21.490  0.00  0.00    +0.000 OA
ATOM     18  O   UNL     1       2.513  15.404  21.690  0.00  0.00    +0.000 OA
ENDROOT
BRANCH  12  19
ATOM     19  N   UNL     1      -2.279  11.758  23.473  0.00  0.00    +0.000 N 
ATOM     20  C   UNL     1      -3.348  12.532  23.166  0.00  0.00    +0.000 A 
ATOM     21  N   UNL     1      -3.947  13.156  24.182  0.00  0.00    +0.000 NA
ATOM     22  N   UNL     1      -5.084  13.629  23.661  0.00  0.00    +0.000 N 
ATOM     23  C   UNL     1      -5.338  13.166  22.404  0.00  0.00    +0.000 A 
ATOM     24  C   UNL     1      -6.521  13.168  21.653  0.00  0.00    +0.000 A 
ATOM     25  C   UNL     1      -6.401  12.861  20.302  0.00  0.00    +0.000 A 
ATOM     26  C   UNL     1      -5.145  12.606  19.760  0.00  0.00    +0.000 A 
ATOM     27  F   UNL     1      -5.041  12.491  18.429  0.00  0.00    +0.000 F 
ATOM     28  C   UNL     1      -3.991  12.470  20.559  0.00  0.00    +0.000 A 
ATOM     29  C   UNL     1      -4.101  12.703  21.951  0.00  0.00    +0.000 A 
ATOM     30  H   UNL     1      -2.139  11.699  24.478  0.00  0.00    +0.000 HD
ATOM     31  H   UNL     1      -5.645  14.271  24.207  0.00  0.00    +0.000 HD
ENDBRANCH  12  19
TORSDOF 1
ENDMDL
MODEL 9
REMARK VINA RESULT:      -8.0      6.580      9.041
REMARK  Name = 
REMARK  3 active torsions:
REMARK  status: ('A' for Active; 'I' for Inactive)
REMARK    1  A    between atoms: C_1  and  C_2
REMARK    2  A    between atoms: C_2  and  C_3
REMARK    3  A    between atoms: C_12  and  N_13
REMARK                            x       y       z     vdW  Elec       q    Type
REMARK                         _______ _______ _______ _____ _____    ______ ____
ROOT
ATOM      1  C   UNL     1       1.685  12.732  19.659  0.00  0.00    +0.000 C 
ATOM      2  C   UNL     1       0.580  12.483  20.669  0.00  0.00    +0.000 C 
ATOM      3  C   UNL     1       0.786  11.120  21.374  0.00  0.00    +0.000 C 
ATOM      4  C   UNL     1       0.455  13.647  21.667  0.00  0.00    +0.000 C 
ATOM      5  O   UNL     1       1.384  14.243  22.196  0.00  0.00    +0.000 OA
ATOM      6  C   UNL     1      -0.946  13.955  22.017  0.00  0.00    +0.000 A 
ATOM      7  C   UNL     1      -1.460  14.980  22.784  0.00  0.00    +0.000 A 
ATOM      8  C   UNL     1      -2.832  15.016  23.018  0.00  0.00    +0.000 A 
ATOM      9  N   UNL     1      -3.388  16.159  23.440  0.00  0.00    +0.000 NA
ATOM     10  C   UNL     1      -4.727  16.186  23.588  0.00  0.00    +0.000 A 
ATOM     11  C   UNL     1      -5.520  15.055  23.542  0.00  0.00    +0.000 A 
ATOM     12  C   UNL     1      -4.935  13.828  23.212  0.00  0.00    +0.000 A 
ATOM     13  C   UNL     1      -3.613  13.862  22.733  0.00  0.00    +0.000 A 
ATOM     14  C   UNL     1      -3.097  12.898  21.847  0.00  0.00    +0.000 A 
ATOM     15  C   UNL     1      -1.822  13.110  21.382  0.00  0.00    +0.000 A 
ATOM     16  S   UNL     1      -1.063  12.477  19.948  0.00  0.00    +0.000 S 
ATOM     17  O   UNL     1      -1.557  11.140  19.731  0.00  0.00    +0.000 OA
ATOM     18  O   UNL     1      -1.174  13.505  18.932  0.00  0.00    +0.000 OA
ENDROOT
BRANCH  12  19
ATOM     19  N   UNL     1      -5.766  12.698  23.139  0.00  0.00    +0.000 N 
ATOM     20  C   UNL     1      -6.540  12.106  22.198  0.00  0.00    +0.000 A 
ATOM     21  N   UNL     1      -7.471  11.256  22.637  0.00  0.00    +0.000 NA
ATOM     22  N   UNL     1      -7.907  10.638  21.534  0.00  0.00    +0.000 N 
ATOM     23  C   UNL     1      -7.157  10.909  20.429  0.00  0.00    +0.000 A 
ATOM     24  C   UNL     1      -7.085  10.255  19.192  0.00  0.00    +0.000 A 
ATOM     25  C   UNL     1      -6.420  10.925  18.171  0.00  0.00    +0.000 A 
ATOM     26  C   UNL     1      -5.899  12.194  18.402  0.00  0.00    +0.000 A 
ATOM     27  F   UNL     1      -5.425  12.885  17.355  0.00  0.00    +0.000 F 
ATOM     28  C   UNL     1      -5.859  12.772  19.688  0.00  0.00    +0.000 A 
ATOM     29  C   UNL     1      -6.462  12.074  20.761  0.00  0.00    +0.000 A 
ATOM     30  H   UNL     1      -5.961  12.331  24.067  0.00  0.00    +0.000 HD
ATOM     31  H   UNL     1      -8.727  10.047  21.594  0.00  0.00    +0.000 HD
ENDBRANCH  12  19
TORSDOF 1
ENDMDL
