MODEL 1
REMARK VINA RESULT:      -8.2      0.000      0.000
REMARK  Name = 
REMARK  5 active torsions:
REMARK  status: ('A' for Active; 'I' for Inactive)
REMARK    1  A    between atoms: C_1  and  C_2
REMARK    2  A    between atoms: C_16  and  C_17
REMARK    3  A    between atoms: C_21  and  C_22
REMARK    4  A    between atoms: C_27  and  C_28
REMARK    5  A    between atoms: C_28  and  O_30
REMARK                            x       y       z     vdW  Elec       q    Type
REMARK                         _______ _______ _______ _____ _____    ______ ____
ROOT
ATOM      1  C   UNL     1       2.458  14.148  17.830  0.00  0.00    +0.000 C 
ATOM      2  C   UNL     1       2.684  15.104  19.001  0.00  0.00    +0.000 C 
ATOM      3  C   UNL     1       2.715  16.549  18.421  0.00  0.00    +0.000 C 
ATOM      4  O   UNL     1       2.914  17.550  19.434  0.00  0.00    +0.000 OA
ATOM      5  C   UNL     1       1.856  17.485  20.401  0.00  0.00    +0.000 C 
ATOM      6  C   UNL     1       1.815  16.107  21.067  0.00  0.00    +0.000 C 
ATOM      7  N   UNL     1       1.623  15.075  20.032  0.00  0.00    +0.000 N 
ATOM      8  C   UNL     1       1.068  13.903  20.513  0.00  0.00    +0.000 A 
ATOM      9  N   UNL     1      -0.013  14.018  21.291  0.00  0.00    +0.000 NA
ATOM     10  C   UNL     1      -0.669  12.935  21.732  0.00  0.00    +0.000 A 
ATOM     11  N   UNL     1      -1.804  13.219  22.489  0.00  0.00    +0.000 N 
ATOM     12  C   UNL     1      -2.958  12.304  22.512  0.00  0.00    +0.000 C 
ATOM     13  C   UNL     1      -4.235  13.028  22.943  0.00  0.00    +0.000 C 
ATOM     14  O   UNL     1      -4.059  13.610  24.240  0.00  0.00    +0.000 OA
ATOM     15  C   UNL     1      -2.998  14.575  24.193  0.00  0.00    +0.000 C 
ATOM     16  C   UNL     1      -1.637  13.948  23.785  0.00  0.00    +0.000 C 
ATOM     17  C   UNL     1      -0.604  15.071  23.801  0.00  0.00    +0.000 C 
ATOM     18  C   UNL     1      -0.208  11.657  21.361  0.00  0.00    +0.000 A 
ATOM     19  C   UNL     1      -0.746  10.405  21.737  0.00  0.00    +0.000 A 
ATOM     20  C   UNL     1      -0.191   9.221  21.299  0.00  0.00    +0.000 A 
ATOM     21  C   UNL     1       0.919   9.281  20.483  0.00  0.00    +0.000 A 
ATOM     22  N   UNL     1       1.469  10.463  20.131  0.00  0.00    +0.000 NA
ATOM     23  C   UNL     1       0.932  11.623  20.549  0.00  0.00    +0.000 A 
ATOM     24  N   UNL     1       1.546  12.722  20.150  0.00  0.00    +0.000 NA
ENDROOT
BRANCH  21  25
ATOM     25  C   UNL     1       1.569   8.045  20.008  0.00  0.00    +0.000 A 
ATOM     26  C   UNL     1       2.325   8.041  18.816  0.00  0.00    +0.000 A 
ATOM     27  C   UNL     1       2.841   6.860  18.286  0.00  0.00    +0.000 A 
ATOM     28  C   UNL     1       2.625   5.663  18.955  0.00  0.00    +0.000 A 
ATOM     29  F   UNL     1       3.112   4.539  18.408  0.00  0.00    +0.000 F 
ATOM     30  C   UNL     1       1.918   5.628  20.153  0.00  0.00    +0.000 A 
ATOM     31  C   UNL     1       1.398   6.821  20.680  0.00  0.00    +0.000 A 
BRANCH  30  32
ATOM     32  C   UNL     1       1.658   4.355  20.884  0.00  0.00    +0.000 C 
ATOM     33  O   UNL     1       2.362   3.984  21.806  0.00  0.00    +0.000 OA
BRANCH  32  34
ATOM     34  O   UNL     1       0.583   3.652  20.475  0.00  0.00    +0.000 OA
ATOM     35  H   UNL     1       0.730   2.701  20.307  0.00  0.00    +0.000 HD
ENDBRANCH  32  34
ENDBRANCH  30  32
ENDBRANCH  21  25
TORSDOF 3
ENDMDL
MODEL 2
REMARK VINA RESULT:      -7.3      1.281      1.420
REMARK  Name = 
REMARK  5 active torsions:
REMARK  status: ('A' for Active; 'I' for Inactive)
REMARK    1  A    between atoms: C_1  and  C_2
REMARK    2  A    between atoms: C_16  and  C_17
REMARK    3  A    between atoms: C_21  and  C_22
REMARK    4  A    between atoms: C_27  and  C_28
REMARK    5  A    between atoms: C_28  and  O_30
REMARK                            x       y       z     vdW  Elec       q    Type
REMARK                         _______ _______ _______ _____ _____    ______ ____
ROOT
ATOM      1  C   UNL     1       3.315  14.818  17.993  0.00  0.00    +0.000 C 
ATOM      2  C   UNL     1       3.135  15.640  19.270  0.00  0.00    +0.000 C 
ATOM      3  C   UNL     1       3.347  17.136  18.892  0.00  0.00    +0.000 C 
ATOM      4  O   UNL     1       3.193  18.019  20.017  0.00  0.00    +0.000 OA
ATOM      5  C   UNL     1       1.875  17.885  20.569  0.00  0.00    +0.000 C 
ATOM      6  C   UNL     1       1.625  16.447  21.030  0.00  0.00    +0.000 C 
ATOM      7  N   UNL     1       1.793  15.535  19.884  0.00  0.00    +0.000 N 
ATOM      8  C   UNL     1       1.117  14.337  20.024  0.00  0.00    +0.000 A 
ATOM      9  N   UNL     1      -0.161  14.401  20.410  0.00  0.00    +0.000 NA
ATOM     10  C   UNL     1      -0.919  13.299  20.491  0.00  0.00    +0.000 A 
ATOM     11  N   UNL     1      -2.242  13.536  20.857  0.00  0.00    +0.000 N 
ATOM     12  C   UNL     1      -3.333  12.659  20.399  0.00  0.00    +0.000 C 
ATOM     13  C   UNL     1      -4.685  13.372  20.461  0.00  0.00    +0.000 C 
ATOM     14  O   UNL     1      -4.952  13.810  21.799  0.00  0.00    +0.000 OA
ATOM     15  C   UNL     1      -3.941  14.742  22.210  0.00  0.00    +0.000 C 
ATOM     16  C   UNL     1      -2.518  14.120  22.207  0.00  0.00    +0.000 C 
ATOM     17  C   UNL     1      -1.556  15.204  22.684  0.00  0.00    +0.000 C 
ATOM     18  C   UNL     1      -0.354  12.053  20.155  0.00  0.00    +0.000 A 
ATOM     19  C   UNL     1      -0.978  10.786  20.196  0.00  0.00    +0.000 A 
ATOM     20  C   UNL     1      -0.302   9.638  19.839  0.00  0.00    +0.000 A 
ATOM     21  C   UNL     1       1.015   9.749  19.445  0.00  0.00    +0.000 A 
ATOM     22  N   UNL     1       1.643  10.945  19.425  0.00  0.00    +0.000 NA
ATOM     23  C   UNL     1       0.991  12.070  19.766  0.00  0.00    +0.000 A 
ATOM     24  N   UNL     1       1.696  13.186  19.713  0.00  0.00    +0.000 NA
ENDROOT
BRANCH  21  25
ATOM     25  C   UNL     1       1.793   8.551  19.080  0.00  0.00    +0.000 A 
ATOM     26  C   UNL     1       2.589   8.536  17.914  0.00  0.00    +0.000 A 
ATOM     27  C   UNL     1       3.229   7.375  17.486  0.00  0.00    +0.000 A 
ATOM     28  C   UNL     1       3.102   6.213  18.233  0.00  0.00    +0.000 A 
ATOM     29  F   UNL     1       3.710   5.104  17.783  0.00  0.00    +0.000 F 
ATOM     30  C   UNL     1       2.359   6.193  19.410  0.00  0.00    +0.000 A 
ATOM     31  C   UNL     1       1.713   7.366  19.834  0.00  0.00    +0.000 A 
BRANCH  30  32
ATOM     32  C   UNL     1       2.192   4.956  20.223  0.00  0.00    +0.000 C 
ATOM     33  O   UNL     1       1.747   3.926  19.749  0.00  0.00    +0.000 OA
BRANCH  32  34
ATOM     34  O   UNL     1       2.584   5.041  21.510  0.00  0.00    +0.000 OA
ATOM     35  H   UNL     1       2.757   4.195  21.964  0.00  0.00    +0.000 HD
ENDBRANCH  32  34
ENDBRANCH  30  32
ENDBRANCH  21  25
TORSDOF 3
ENDMDL
MODEL 3
REMARK VINA RESULT:      -7.3      1.399      1.708
REMARK  Name = 
REMARK  5 active torsions:
REMARK  status: ('A' for Active; 'I' for Inactive)
REMARK    1  A    between atoms: C_1  and  C_2
REMARK    2  A    between atoms: C_16  and  C_17
REMARK    3  A    between atoms: C_21  and  C_22
REMARK    4  A    between atoms: C_27  and  C_28
REMARK    5  A    between atoms: C_28  and  O_30
REMARK                            x       y       z     vdW  Elec       q    Type
REMARK                         _______ _______ _______ _____ _____    ______ ____
ROOT
ATOM      1  C   UNL     1       3.109  15.621  19.688  0.00  0.00    +0.000 C 
ATOM      2  C   UNL     1       3.076  16.172  21.114  0.00  0.00    +0.000 C 
ATOM      3  C   UNL     1       3.319  17.708  21.023  0.00  0.00    +0.000 C 
ATOM      4  O   UNL     1       3.300  18.349  22.310  0.00  0.00    +0.000 OA
ATOM      5  C   UNL     1       2.030  18.139  22.944  0.00  0.00    +0.000 C 
ATOM      6  C   UNL     1       1.759  16.645  23.132  0.00  0.00    +0.000 C 
ATOM      7  N   UNL     1       1.788  15.979  21.817  0.00  0.00    +0.000 N 
ATOM      8  C   UNL     1       1.076  14.794  21.779  0.00  0.00    +0.000 A 
ATOM      9  N   UNL     1      -0.160  14.811  22.287  0.00  0.00    +0.000 NA
ATOM     10  C   UNL     1      -0.956  13.734  22.217  0.00  0.00    +0.000 A 
ATOM     11  N   UNL     1      -2.231  13.926  22.744  0.00  0.00    +0.000 N 
ATOM     12  C   UNL     1      -3.394  13.187  22.225  0.00  0.00    +0.000 C 
ATOM     13  C   UNL     1      -4.704  13.905  22.553  0.00  0.00    +0.000 C 
ATOM     14  O   UNL     1      -4.835  14.071  23.970  0.00  0.00    +0.000 OA
ATOM     15  C   UNL     1      -3.754  14.876  24.462  0.00  0.00    +0.000 C 
ATOM     16  C   UNL     1      -2.364  14.232  24.203  0.00  0.00    +0.000 C 
ATOM     17  C   UNL     1      -1.319  15.173  24.794  0.00  0.00    +0.000 C 
ATOM     18  C   UNL     1      -0.475  12.568  21.589  0.00  0.00    +0.000 A 
ATOM     19  C   UNL     1      -1.147  11.335  21.435  0.00  0.00    +0.000 A 
ATOM     20  C   UNL     1      -0.555  10.266  20.796  0.00  0.00    +0.000 A 
ATOM     21  C   UNL     1       0.727  10.422  20.312  0.00  0.00    +0.000 A 
ATOM     22  N   UNL     1       1.402  11.581  20.471  0.00  0.00    +0.000 NA
ATOM     23  C   UNL     1       0.830  12.630  21.088  0.00  0.00    +0.000 A 
ATOM     24  N   UNL     1       1.576  13.716  21.193  0.00  0.00    +0.000 NA
ENDROOT
BRANCH  21  25
ATOM     25  C   UNL     1       1.418   9.303  19.645  0.00  0.00    +0.000 A 
ATOM     26  C   UNL     1       1.875   9.427  18.315  0.00  0.00    +0.000 A 
ATOM     27  C   UNL     1       2.417   8.344  17.627  0.00  0.00    +0.000 A 
ATOM     28  C   UNL     1       2.530   7.118  18.269  0.00  0.00    +0.000 A 
ATOM     29  F   UNL     1       3.032   6.086  17.574  0.00  0.00    +0.000 F 
ATOM     30  C   UNL     1       2.127   6.961  19.592  0.00  0.00    +0.000 A 
ATOM     31  C   UNL     1       1.579   8.057  20.279  0.00  0.00    +0.000 A 
BRANCH  30  32
ATOM     32  C   UNL     1       2.222   5.654  20.301  0.00  0.00    +0.000 C 
ATOM     33  O   UNL     1       1.243   5.098  20.765  0.00  0.00    +0.000 OA
BRANCH  32  34
ATOM     34  O   UNL     1       3.455   5.116  20.378  0.00  0.00    +0.000 OA
ATOM     35  H   UNL     1       4.040   5.269  19.611  0.00  0.00    +0.000 HD
ENDBRANCH  32  34
ENDBRANCH  30  32
ENDBRANCH  21  25
TORSDOF 3
ENDMDL
MODEL 4
REMARK VINA RESULT:      -7.3      3.033      5.018
REMARK  Name = 
REMARK  5 active torsions:
REMARK  status: ('A' for Active; 'I' for Inactive)
REMARK    1  A    between atoms: C_1  and  C_2
REMARK    2  A    between atoms: C_16  and  C_17
REMARK    3  A    between atoms: C_21  and  C_22
REMARK    4  A    between atoms: C_27  and  C_28
REMARK    5  A    between atoms: C_28  and  O_30
REMARK                            x       y       z     vdW  Elec       q    Type
REMARK                         _______ _______ _______ _____ _____    ______ ____
ROOT
ATOM      1  C   UNL     1      -5.465  10.401  18.655  0.00  0.00    +0.000 C 
ATOM      2  C   UNL     1      -5.826  11.856  18.354  0.00  0.00    +0.000 C 
ATOM      3  C   UNL     1      -7.380  11.954  18.338  0.00  0.00    +0.000 C 
ATOM      4  O   UNL     1      -7.849  13.287  18.073  0.00  0.00    +0.000 OA
ATOM      5  C   UNL     1      -7.359  14.188  19.077  0.00  0.00    +0.000 C 
ATOM      6  C   UNL     1      -5.829  14.196  19.098  0.00  0.00    +0.000 C 
ATOM      7  N   UNL     1      -5.341  12.829  19.358  0.00  0.00    +0.000 N 
ATOM      8  C   UNL     1      -4.070  12.787  19.900  0.00  0.00    +0.000 A 
ATOM      9  N   UNL     1      -3.824  13.595  20.935  0.00  0.00    +0.000 NA
ATOM     10  C   UNL     1      -2.648  13.562  21.579  0.00  0.00    +0.000 A 
ATOM     11  N   UNL     1      -2.564  14.427  22.668  0.00  0.00    +0.000 N 
ATOM     12  C   UNL     1      -1.714  14.116  23.830  0.00  0.00    +0.000 C 
ATOM     13  C   UNL     1      -2.164  14.885  25.073  0.00  0.00    +0.000 C 
ATOM     14  O   UNL     1      -2.133  16.295  24.820  0.00  0.00    +0.000 OA
ATOM     15  C   UNL     1      -3.038  16.611  23.752  0.00  0.00    +0.000 C 
ATOM     16  C   UNL     1      -2.665  15.899  22.423  0.00  0.00    +0.000 C 
ATOM     17  C   UNL     1      -3.685  16.342  21.378  0.00  0.00    +0.000 C 
ATOM     18  C   UNL     1      -1.661  12.651  21.155  0.00  0.00    +0.000 A 
ATOM     19  C   UNL     1      -0.363  12.480  21.685  0.00  0.00    +0.000 A 
ATOM     20  C   UNL     1       0.509  11.545  21.170  0.00  0.00    +0.000 A 
ATOM     21  C   UNL     1       0.090  10.775  20.105  0.00  0.00    +0.000 A 
ATOM     22  N   UNL     1      -1.136  10.939  19.561  0.00  0.00    +0.000 NA
ATOM     23  C   UNL     1      -1.995  11.844  20.061  0.00  0.00    +0.000 A 
ATOM     24  N   UNL     1      -3.167  11.925  19.456  0.00  0.00    +0.000 NA
ENDROOT
BRANCH  21  25
ATOM     25  C   UNL     1       0.992   9.780  19.496  0.00  0.00    +0.000 A 
ATOM     26  C   UNL     1       1.539   9.994  18.212  0.00  0.00    +0.000 A 
ATOM     27  C   UNL     1       2.290   9.013  17.569  0.00  0.00    +0.000 A 
ATOM     28  C   UNL     1       2.525   7.805  18.212  0.00  0.00    +0.000 A 
ATOM     29  F   UNL     1       3.230   6.870  17.559  0.00  0.00    +0.000 F 
ATOM     30  C   UNL     1       2.037   7.568  19.494  0.00  0.00    +0.000 A 
ATOM     31  C   UNL     1       1.277   8.560  20.135  0.00  0.00    +0.000 A 
BRANCH  30  32
ATOM     32  C   UNL     1       2.260   6.275  20.202  0.00  0.00    +0.000 C 
ATOM     33  O   UNL     1       1.357   5.682  20.764  0.00  0.00    +0.000 OA
BRANCH  32  34
ATOM     34  O   UNL     1       3.518   5.794  20.163  0.00  0.00    +0.000 OA
ATOM     35  H   UNL     1       4.145   6.276  19.590  0.00  0.00    +0.000 HD
ENDBRANCH  32  34
ENDBRANCH  30  32
ENDBRANCH  21  25
TORSDOF 3
ENDMDL
MODEL 5
REMARK VINA RESULT:      -7.3      1.430      1.803
REMARK  Name = 
REMARK  5 active torsions:
REMARK  status: ('A' for Active; 'I' for Inactive)
REMARK    1  A    between atoms: C_1  and  C_2
REMARK    2  A    between atoms: C_16  and  C_17
REMARK    3  A    between atoms: C_21  and  C_22
REMARK    4  A    between atoms: C_27  and  C_28
REMARK    5  A    between atoms: C_28  and  O_30
REMARK                            x       y       z     vdW  Elec       q    Type
REMARK                         _______ _______ _______ _____ _____    ______ ____
ROOT
ATOM      1  C   UNL     1       2.560  13.682  17.770  0.00  0.00    +0.000 C 
ATOM      2  C   UNL     1       2.807  14.702  18.882  0.00  0.00    +0.000 C 
ATOM      3  C   UNL     1       2.884  16.107  18.214  0.00  0.00    +0.000 C 
ATOM      4  O   UNL     1       3.106  17.162  19.166  0.00  0.00    +0.000 OA
ATOM      5  C   UNL     1       2.041  17.188  20.126  0.00  0.00    +0.000 C 
ATOM      6  C   UNL     1       1.955  15.856  20.876  0.00  0.00    +0.000 C 
ATOM      7  N   UNL     1       1.739  14.768  19.904  0.00  0.00    +0.000 N 
ATOM      8  C   UNL     1       1.146  13.645  20.451  0.00  0.00    +0.000 A 
ATOM      9  N   UNL     1       0.065  13.838  21.212  0.00  0.00    +0.000 NA
ATOM     10  C   UNL     1      -0.626  12.804  21.714  0.00  0.00    +0.000 A 
ATOM     11  N   UNL     1      -1.757  13.168  22.442  0.00  0.00    +0.000 N 
ATOM     12  C   UNL     1      -2.938  12.290  22.512  0.00  0.00    +0.000 C 
ATOM     13  C   UNL     1      -4.196  13.076  22.888  0.00  0.00    +0.000 C 
ATOM     14  O   UNL     1      -4.011  13.732  24.148  0.00  0.00    +0.000 OA
ATOM     15  C   UNL     1      -2.921  14.661  24.050  0.00  0.00    +0.000 C 
ATOM     16  C   UNL     1      -1.577  13.970  23.692  0.00  0.00    +0.000 C 
ATOM     17  C   UNL     1      -0.512  15.061  23.647  0.00  0.00    +0.000 C 
ATOM     18  C   UNL     1      -0.201  11.493  21.426  0.00  0.00    +0.000 A 
ATOM     19  C   UNL     1      -0.778  10.283  21.874  0.00  0.00    +0.000 A 
ATOM     20  C   UNL     1      -0.256   9.059  21.514  0.00  0.00    +0.000 A 
ATOM     21  C   UNL     1       0.860   9.035  20.705  0.00  0.00    +0.000 A 
ATOM     22  N   UNL     1       1.448  10.178  20.286  0.00  0.00    +0.000 NA
ATOM     23  C   UNL     1       0.942  11.376  20.627  0.00  0.00    +0.000 A 
ATOM     24  N   UNL     1       1.592  12.430  20.166  0.00  0.00    +0.000 NA
ENDROOT
BRANCH  21  25
ATOM     25  C   UNL     1       1.476   7.754  20.313  0.00  0.00    +0.000 A 
ATOM     26  C   UNL     1       1.315   6.602  21.113  0.00  0.00    +0.000 A 
ATOM     27  C   UNL     1       1.991   5.418  20.828  0.00  0.00    +0.000 A 
ATOM     28  C   UNL     1       2.825   5.361  19.720  0.00  0.00    +0.000 A 
ATOM     29  F   UNL     1       3.482   4.215  19.484  0.00  0.00    +0.000 F 
ATOM     30  C   UNL     1       2.982   6.461  18.882  0.00  0.00    +0.000 A 
ATOM     31  C   UNL     1       2.300   7.653  19.177  0.00  0.00    +0.000 A 
BRANCH  30  32
ATOM     32  C   UNL     1       3.882   6.433  17.694  0.00  0.00    +0.000 C 
ATOM     33  O   UNL     1       4.551   7.396  17.368  0.00  0.00    +0.000 OA
BRANCH  32  34
ATOM     34  O   UNL     1       3.925   5.268  17.018  0.00  0.00    +0.000 OA
ATOM     35  H   UNL     1       3.884   5.334  16.045  0.00  0.00    +0.000 HD
ENDBRANCH  32  34
ENDBRANCH  30  32
ENDBRANCH  21  25
TORSDOF 3
ENDMDL
MODEL 6
REMARK VINA RESULT:      -7.2      2.559      3.033
REMARK  Name = 
REMARK  5 active torsions:
REMARK  status: ('A' for Active; 'I' for Inactive)
REMARK    1  A    between atoms: C_1  and  C_2
REMARK    2  A    between atoms: C_16  and  C_17
REMARK    3  A    between atoms: C_21  and  C_22
REMARK    4  A    between atoms: C_27  and  C_28
REMARK    5  A    between atoms: C_28  and  O_30
REMARK                            x       y       z     vdW  Elec       q    Type
REMARK                         _______ _______ _______ _____ _____    ______ ____
ROOT
ATOM      1  C   UNL     1       3.618  14.328  17.731  0.00  0.00    +0.000 C 
ATOM      2  C   UNL     1       3.203  15.154  18.948  0.00  0.00    +0.000 C 
ATOM      3  C   UNL     1       3.393  16.655  18.576  0.00  0.00    +0.000 C 
ATOM      4  O   UNL     1       3.024  17.542  19.646  0.00  0.00    +0.000 OA
ATOM      5  C   UNL     1       1.647  17.344  19.994  0.00  0.00    +0.000 C 
ATOM      6  C   UNL     1       1.403  15.901  20.443  0.00  0.00    +0.000 C 
ATOM      7  N   UNL     1       1.791  14.985  19.354  0.00  0.00    +0.000 N 
ATOM      8  C   UNL     1       1.164  13.753  19.416  0.00  0.00    +0.000 A 
ATOM      9  N   UNL     1      -0.159  13.754  19.603  0.00  0.00    +0.000 NA
ATOM     10  C   UNL     1      -0.863  12.613  19.590  0.00  0.00    +0.000 A 
ATOM     11  N   UNL     1      -2.237  12.783  19.747  0.00  0.00    +0.000 N 
ATOM     12  C   UNL     1      -3.198  11.842  19.148  0.00  0.00    +0.000 C 
ATOM     13  C   UNL     1      -4.579  12.481  18.990  0.00  0.00    +0.000 C 
ATOM     14  O   UNL     1      -5.069  12.921  20.263  0.00  0.00    +0.000 OA
ATOM     15  C   UNL     1      -4.182  13.912  20.802  0.00  0.00    +0.000 C 
ATOM     16  C   UNL     1      -2.745  13.368  21.027  0.00  0.00    +0.000 C 
ATOM     17  C   UNL     1      -1.923  14.508  21.621  0.00  0.00    +0.000 C 
ATOM     18  C   UNL     1      -0.189  11.395  19.370  0.00  0.00    +0.000 A 
ATOM     19  C   UNL     1      -0.746  10.097  19.342  0.00  0.00    +0.000 A 
ATOM     20  C   UNL     1       0.035   8.983  19.116  0.00  0.00    +0.000 A 
ATOM     21  C   UNL     1       1.389   9.160  18.923  0.00  0.00    +0.000 A 
ATOM     22  N   UNL     1       1.950  10.388  18.974  0.00  0.00    +0.000 NA
ATOM     23  C   UNL     1       1.196  11.480  19.189  0.00  0.00    +0.000 A 
ATOM     24  N   UNL     1       1.843  12.632  19.220  0.00  0.00    +0.000 NA
ENDROOT
BRANCH  21  25
ATOM     25  C   UNL     1       2.274   8.001  18.706  0.00  0.00    +0.000 A 
ATOM     26  C   UNL     1       2.221   6.882  19.565  0.00  0.00    +0.000 A 
ATOM     27  C   UNL     1       3.133   5.835  19.453  0.00  0.00    +0.000 A 
ATOM     28  C   UNL     1       4.102   5.881  18.460  0.00  0.00    +0.000 A 
ATOM     29  F   UNL     1       4.982   4.870  18.391  0.00  0.00    +0.000 F 
ATOM     30  C   UNL     1       4.166   6.946  17.567  0.00  0.00    +0.000 A 
ATOM     31  C   UNL     1       3.246   8.000  17.688  0.00  0.00    +0.000 A 
BRANCH  30  32
ATOM     32  C   UNL     1       5.205   7.029  16.502  0.00  0.00    +0.000 C 
ATOM     33  O   UNL     1       4.933   6.896  15.323  0.00  0.00    +0.000 OA
BRANCH  32  34
ATOM     34  O   UNL     1       6.460   7.280  16.925  0.00  0.00    +0.000 OA
ATOM     35  H   UNL     1       6.705   6.903  17.792  0.00  0.00    +0.000 HD
ENDBRANCH  32  34
ENDBRANCH  30  32
ENDBRANCH  21  25
TORSDOF 3
ENDMDL
MODEL 7
REMARK VINA RESULT:      -7.2      2.322      2.769
REMARK  Name = 
REMARK  5 active torsions:
REMARK  status: ('A' for Active; 'I' for Inactive)
REMARK    1  A    between atoms: C_1  and  C_2
REMARK    2  A    between atoms: C_16  and  C_17
REMARK    3  A    between atoms: C_21  and  C_22
REMARK    4  A    between atoms: C_27  and  C_28
REMARK    5  A    between atoms: C_28  and  O_30
REMARK                            x       y       z     vdW  Elec       q    Type
REMARK                         _______ _______ _______ _____ _____    ______ ____
ROOT
ATOM      1  C   UNL     1       3.765  14.238  17.881  0.00  0.00    +0.000 C 
ATOM      2  C   UNL     1       3.210  14.886  19.150  0.00  0.00    +0.000 C 
ATOM      3  C   UNL     1       3.371  16.427  18.992  0.00  0.00    +0.000 C 
ATOM      4  O   UNL     1       2.874  17.156  20.127  0.00  0.00    +0.000 OA
ATOM      5  C   UNL     1       1.480  16.875  20.317  0.00  0.00    +0.000 C 
ATOM      6  C   UNL     1       1.256  15.379  20.553  0.00  0.00    +0.000 C 
ATOM      7  N   UNL     1       1.775  14.624  19.397  0.00  0.00    +0.000 N 
ATOM      8  C   UNL     1       1.196  13.378  19.243  0.00  0.00    +0.000 A 
ATOM      9  N   UNL     1      -0.137  13.316  19.304  0.00  0.00    +0.000 NA
ATOM     10  C   UNL     1      -0.791  12.167  19.080  0.00  0.00    +0.000 A 
ATOM     11  N   UNL     1      -2.179  12.276  19.129  0.00  0.00    +0.000 N 
ATOM     12  C   UNL     1      -3.045  11.394  18.327  0.00  0.00    +0.000 C 
ATOM     13  C   UNL     1      -4.431  12.009  18.124  0.00  0.00    +0.000 C 
ATOM     14  O   UNL     1      -5.049  12.264  19.391  0.00  0.00    +0.000 OA
ATOM     15  C   UNL     1      -4.254  13.201  20.132  0.00  0.00    +0.000 C 
ATOM     16  C   UNL     1      -2.822  12.674  20.420  0.00  0.00    +0.000 C 
ATOM     17  C   UNL     1      -2.103  13.750  21.229  0.00  0.00    +0.000 C 
ATOM     18  C   UNL     1      -0.051  11.009  18.770  0.00  0.00    +0.000 A 
ATOM     19  C   UNL     1      -0.550   9.709  18.525  0.00  0.00    +0.000 A 
ATOM     20  C   UNL     1       0.291   8.658  18.232  0.00  0.00    +0.000 A 
ATOM     21  C   UNL     1       1.649   8.897  18.192  0.00  0.00    +0.000 A 
ATOM     22  N   UNL     1       2.154  10.123  18.451  0.00  0.00    +0.000 NA
ATOM     23  C   UNL     1       1.340  11.156  18.732  0.00  0.00    +0.000 A 
ATOM     24  N   UNL     1       1.934  12.312  18.970  0.00  0.00    +0.000 NA
ENDROOT
BRANCH  21  25
ATOM     25  C   UNL     1       2.596   7.802  17.911  0.00  0.00    +0.000 A 
ATOM     26  C   UNL     1       3.825   8.060  17.264  0.00  0.00    +0.000 A 
ATOM     27  C   UNL     1       4.674   7.026  16.879  0.00  0.00    +0.000 A 
ATOM     28  C   UNL     1       4.318   5.714  17.155  0.00  0.00    +0.000 A 
ATOM     29  F   UNL     1       5.144   4.737  16.750  0.00  0.00    +0.000 F 
ATOM     30  C   UNL     1       3.135   5.417  17.825  0.00  0.00    +0.000 A 
ATOM     31  C   UNL     1       2.281   6.464  18.208  0.00  0.00    +0.000 A 
BRANCH  30  32
ATOM     32  C   UNL     1       2.719   4.017  18.121  0.00  0.00    +0.000 C 
ATOM     33  O   UNL     1       2.969   3.480  19.185  0.00  0.00    +0.000 OA
BRANCH  32  34
ATOM     34  O   UNL     1       2.033   3.389  17.145  0.00  0.00    +0.000 OA
ATOM     35  H   UNL     1       2.556   2.817  16.552  0.00  0.00    +0.000 HD
ENDBRANCH  32  34
ENDBRANCH  30  32
ENDBRANCH  21  25
TORSDOF 3
ENDMDL
MODEL 8
REMARK VINA RESULT:      -7.1      4.637     10.703
REMARK  Name = 
REMARK  5 active torsions:
REMARK  status: ('A' for Active; 'I' for Inactive)
REMARK    1  A    between atoms: C_1  and  C_2
REMARK    2  A    between atoms: C_16  and  C_17
REMARK    3  A    between atoms: C_21  and  C_22
REMARK    4  A    between atoms: C_27  and  C_28
REMARK    5  A    between atoms: C_28  and  O_30
REMARK                            x       y       z     vdW  Elec       q    Type
REMARK                         _______ _______ _______ _____ _____    ______ ____
ROOT
ATOM      1  C   UNL     1       1.099   3.502  20.955  0.00  0.00    +0.000 C 
ATOM      2  C   UNL     1       2.531   3.147  21.358  0.00  0.00    +0.000 C 
ATOM      3  C   UNL     1       2.570   1.614  21.627  0.00  0.00    +0.000 C 
ATOM      4  O   UNL     1       3.877   1.151  22.008  0.00  0.00    +0.000 OA
ATOM      5  C   UNL     1       4.823   1.441  20.969  0.00  0.00    +0.000 C 
ATOM      6  C   UNL     1       4.889   2.947  20.702  0.00  0.00    +0.000 C 
ATOM      7  N   UNL     1       3.549   3.431  20.322  0.00  0.00    +0.000 N 
ATOM      8  C   UNL     1       3.570   4.598  19.581  0.00  0.00    +0.000 A 
ATOM      9  N   UNL     1       4.415   4.647  18.548  0.00  0.00    +0.000 NA
ATOM     10  C   UNL     1       4.443   5.703  17.722  0.00  0.00    +0.000 A 
ATOM     11  N   UNL     1       5.341   5.582  16.663  0.00  0.00    +0.000 N 
ATOM     12  C   UNL     1       5.094   6.243  15.371  0.00  0.00    +0.000 C 
ATOM     13  C   UNL     1       5.880   5.572  14.242  0.00  0.00    +0.000 C 
ATOM     14  O   UNL     1       7.282   5.598  14.534  0.00  0.00    +0.000 OA
ATOM     15  C   UNL     1       7.535   4.868  15.743  0.00  0.00    +0.000 C 
ATOM     16  C   UNL     1       6.801   5.474  16.971  0.00  0.00    +0.000 C 
ATOM     17  C   UNL     1       7.176   4.623  18.180  0.00  0.00    +0.000 C 
ATOM     18  C   UNL     1       3.559   6.776  17.952  0.00  0.00    +0.000 A 
ATOM     19  C   UNL     1       3.452   7.976  17.214  0.00  0.00    +0.000 A 
ATOM     20  C   UNL     1       2.537   8.950  17.552  0.00  0.00    +0.000 A 
ATOM     21  C   UNL     1       1.723   8.734  18.644  0.00  0.00    +0.000 A 
ATOM     22  N   UNL     1       1.825   7.608  19.383  0.00  0.00    +0.000 NA
ATOM     23  C   UNL     1       2.711   6.650  19.058  0.00  0.00    +0.000 A 
ATOM     24  N   UNL     1       2.731   5.589  19.846  0.00  0.00    +0.000 NA
ENDROOT
BRANCH  21  25
ATOM     25  C   UNL     1       0.746   9.754  19.066  0.00  0.00    +0.000 A 
ATOM     26  C   UNL     1       0.770  10.275  20.378  0.00  0.00    +0.000 A 
ATOM     27  C   UNL     1      -0.219  11.144  20.834  0.00  0.00    +0.000 A 
ATOM     28  C   UNL     1      -1.239  11.525  19.974  0.00  0.00    +0.000 A 
ATOM     29  F   UNL     1      -2.191  12.343  20.447  0.00  0.00    +0.000 F 
ATOM     30  C   UNL     1      -1.279  11.066  18.660  0.00  0.00    +0.000 A 
ATOM     31  C   UNL     1      -0.281  10.187  18.208  0.00  0.00    +0.000 A 
BRANCH  30  32
ATOM     32  C   UNL     1      -2.371  11.446  17.719  0.00  0.00    +0.000 C 
ATOM     33  O   UNL     1      -3.545  11.395  18.038  0.00  0.00    +0.000 OA
BRANCH  32  34
ATOM     34  O   UNL     1      -1.976  11.869  16.502  0.00  0.00    +0.000 OA
ATOM     35  H   UNL     1      -2.632  12.382  15.991  0.00  0.00    +0.000 HD
ENDBRANCH  32  34
ENDBRANCH  30  32
ENDBRANCH  21  25
TORSDOF 3
ENDMDL
MODEL 9
REMARK VINA RESULT:      -7.1      3.013      4.706
REMARK  Name = 
REMARK  5 active torsions:
REMARK  status: ('A' for Active; 'I' for Inactive)
REMARK    1  A    between atoms: C_1  and  C_2
REMARK    2  A    between atoms: C_16  and  C_17
REMARK    3  A    between atoms: C_21  and  C_22
REMARK    4  A    between atoms: C_27  and  C_28
REMARK    5  A    between atoms: C_28  and  O_30
REMARK                            x       y       z     vdW  Elec       q    Type
REMARK                         _______ _______ _______ _____ _____    ______ ____
ROOT
ATOM      1  C   UNL     1      -0.046  14.499  22.620  0.00  0.00    +0.000 C 
ATOM      2  C   UNL     1      -1.299  14.293  23.472  0.00  0.00    +0.000 C 
ATOM      3  C   UNL     1      -1.552  15.617  24.252  0.00  0.00    +0.000 C 
ATOM      4  O   UNL     1      -2.719  15.553  25.090  0.00  0.00    +0.000 OA
ATOM      5  C   UNL     1      -3.881  15.281  24.292  0.00  0.00    +0.000 C 
ATOM      6  C   UNL     1      -3.729  13.950  23.552  0.00  0.00    +0.000 C 
ATOM      7  N   UNL     1      -2.527  14.005  22.699  0.00  0.00    +0.000 N 
ATOM      8  C   UNL     1      -2.561  13.123  21.634  0.00  0.00    +0.000 A 
ATOM      9  N   UNL     1      -3.677  13.101  20.900  0.00  0.00    +0.000 NA
ATOM     10  C   UNL     1      -3.769  12.341  19.798  0.00  0.00    +0.000 A 
ATOM     11  N   UNL     1      -4.976  12.466  19.113  0.00  0.00    +0.000 N 
ATOM     12  C   UNL     1      -5.052  12.275  17.655  0.00  0.00    +0.000 C 
ATOM     13  C   UNL     1      -6.289  12.956  17.066  0.00  0.00    +0.000 C 
ATOM     14  O   UNL     1      -7.476  12.438  17.680  0.00  0.00    +0.000 OA
ATOM     15  C   UNL     1      -7.447  12.713  19.088  0.00  0.00    +0.000 C 
ATOM     16  C   UNL     1      -6.237  12.050  19.801  0.00  0.00    +0.000 C 
ATOM     17  C   UNL     1      -6.346  12.400  21.282  0.00  0.00    +0.000 C 
ATOM     18  C   UNL     1      -2.663  11.559  19.412  0.00  0.00    +0.000 A 
ATOM     19  C   UNL     1      -2.572  10.685  18.306  0.00  0.00    +0.000 A 
ATOM     20  C   UNL     1      -1.421   9.974  18.042  0.00  0.00    +0.000 A 
ATOM     21  C   UNL     1      -0.348  10.125  18.895  0.00  0.00    +0.000 A 
ATOM     22  N   UNL     1      -0.419  10.932  19.976  0.00  0.00    +0.000 NA
ATOM     23  C   UNL     1      -1.536  11.634  20.237  0.00  0.00    +0.000 A 
ATOM     24  N   UNL     1      -1.501  12.393  21.319  0.00  0.00    +0.000 NA
ENDROOT
BRANCH  21  25
ATOM     25  C   UNL     1       0.898   9.367  18.676  0.00  0.00    +0.000 A 
ATOM     26  C   UNL     1       1.859   9.814  17.744  0.00  0.00    +0.000 A 
ATOM     27  C   UNL     1       2.980   9.048  17.432  0.00  0.00    +0.000 A 
ATOM     28  C   UNL     1       3.170   7.829  18.066  0.00  0.00    +0.000 A 
ATOM     29  F   UNL     1       4.245   7.102  17.728  0.00  0.00    +0.000 F 
ATOM     30  C   UNL     1       2.267   7.368  19.021  0.00  0.00    +0.000 A 
ATOM     31  C   UNL     1       1.137   8.143  19.328  0.00  0.00    +0.000 A 
BRANCH  30  32
ATOM     32  C   UNL     1       2.436   6.056  19.706  0.00  0.00    +0.000 C 
ATOM     33  O   UNL     1       2.718   5.040  19.096  0.00  0.00    +0.000 OA
BRANCH  32  34
ATOM     34  O   UNL     1       2.279   6.068  21.044  0.00  0.00    +0.000 OA
ATOM     35  H   UNL     1       3.011   5.689  21.567  0.00  0.00    +0.000 HD
ENDBRANCH  32  34
ENDBRANCH  30  32
ENDBRANCH  21  25
TORSDOF 3
ENDMDL
