MODEL 1
REMARK VINA RESULT:      -7.1      0.000      0.000
REMARK  Name = 
REMARK  3 active torsions:
REMARK  status: ('A' for Active; 'I' for Inactive)
REMARK    1  A    between atoms: C_1  and  C_2
REMARK    2  A    between atoms: C_8  and  C_10
REMARK    3  A    between atoms: C_13  and  C_14
REMARK                            x       y       z     vdW  Elec       q    Type
REMARK                         _______ _______ _______ _____ _____    ______ ____
ROOT
ATOM      1  C   UNL     1       0.480   9.838  19.671  0.00  0.00    +0.000 A 
ATOM      2  C   UNL     1       0.649   9.454  20.985  0.00  0.00    +0.000 A 
ATOM      3  C   UNL     1       1.491   8.309  20.975  0.00  0.00    +0.000 A 
ATOM      4  C   UNL     1       1.820   8.069  19.655  0.00  0.00    +0.000 A 
ATOM      5  O   UNL     1       1.225   9.016  18.875  0.00  0.00    +0.000 OA
ENDROOT
BRANCH   1  13
ATOM      6  C   UNL     1       3.713  15.844  18.207  0.00  0.00    +0.000 C 
ATOM      7  C   UNL     1       2.219  15.876  18.415  0.00  0.00    +0.000 C 
ATOM      8  O   UNL     1       1.573  16.882  18.123  0.00  0.00    +0.000 OA
ATOM      9  N   UNL     1       1.629  14.716  18.880  0.00  0.00    +0.000 N 
ATOM     10  C   UNL     1       0.164  14.615  18.961  0.00  0.00    +0.000 C 
ATOM     11  C   UNL     1      -0.343  13.301  18.330  0.00  0.00    +0.000 C 
ATOM     12  N   UNL     1       0.407  12.139  18.826  0.00  0.00    +0.000 N 
ATOM     13  C   UNL     1      -0.270  10.939  19.085  0.00  0.00    +0.000 C 
ATOM     14  O   UNL     1      -1.463  10.812  18.804  0.00  0.00    +0.000 OA
ATOM     15  C   UNL     1       1.865  12.276  18.704  0.00  0.00    +0.000 C 
ATOM     16  C   UNL     1       2.346  13.549  19.402  0.00  0.00    +0.000 C 
ENDBRANCH   1  13
BRANCH   4  17
ATOM     17  C   UNL     1       2.546   7.010  18.946  0.00  0.00    +0.000 A 
ATOM     18  C   UNL     1       3.369   7.381  17.863  0.00  0.00    +0.000 A 
ATOM     19  C   UNL     1       4.172   6.446  17.201  0.00  0.00    +0.000 A 
ATOM     20  C   UNL     1       4.168   5.116  17.605  0.00  0.00    +0.000 A 
ATOM     21  C   UNL     1       3.336   4.717  18.647  0.00  0.00    +0.000 A 
ATOM     22  C   UNL     1       2.523   5.648  19.309  0.00  0.00    +0.000 A 
ATOM     23 CL   UNL     1       1.496   4.996  20.545  0.00  0.00    +0.000 Cl
ENDBRANCH   4  17
TORSDOF 2
ENDMDL
MODEL 2
REMARK VINA RESULT:      -7.1      3.493      4.223
REMARK  Name = 
REMARK  3 active torsions:
REMARK  status: ('A' for Active; 'I' for Inactive)
REMARK    1  A    between atoms: C_1  and  C_2
REMARK    2  A    between atoms: C_8  and  C_10
REMARK    3  A    between atoms: C_13  and  C_14
REMARK                            x       y       z     vdW  Elec       q    Type
REMARK                         _______ _______ _______ _____ _____    ______ ____
ROOT
ATOM      1  C   UNL     1       1.581   8.755  19.811  0.00  0.00    +0.000 A 
ATOM      2  C   UNL     1       1.756   9.455  18.635  0.00  0.00    +0.000 A 
ATOM      3  C   UNL     1       2.265   8.534  17.679  0.00  0.00    +0.000 A 
ATOM      4  C   UNL     1       2.347   7.309  18.312  0.00  0.00    +0.000 A 
ATOM      5  O   UNL     1       1.905   7.446  19.594  0.00  0.00    +0.000 OA
ENDROOT
BRANCH   1  13
ATOM      6  C   UNL     1      -4.044  12.863  20.205  0.00  0.00    +0.000 C 
ATOM      7  C   UNL     1      -3.080  12.868  21.366  0.00  0.00    +0.000 C 
ATOM      8  O   UNL     1      -3.390  13.409  22.427  0.00  0.00    +0.000 OA
ATOM      9  N   UNL     1      -1.889  12.190  21.190  0.00  0.00    +0.000 N 
ATOM     10  C   UNL     1      -0.966  12.015  22.322  0.00  0.00    +0.000 C 
ATOM     11  C   UNL     1      -0.498  10.550  22.443  0.00  0.00    +0.000 C 
ATOM     12  N   UNL     1      -0.034  10.023  21.152  0.00  0.00    +0.000 N 
ATOM     13  C   UNL     1       1.084   9.179  21.112  0.00  0.00    +0.000 C 
ATOM     14  O   UNL     1       1.619   8.787  22.150  0.00  0.00    +0.000 OA
ATOM     15  C   UNL     1      -0.997  10.200  20.056  0.00  0.00    +0.000 C 
ATOM     16  C   UNL     1      -1.386  11.672  19.914  0.00  0.00    +0.000 C 
ENDBRANCH   1  13
BRANCH   4  17
ATOM     17  C   UNL     1       2.878   5.991  17.948  0.00  0.00    +0.000 A 
ATOM     18  C   UNL     1       2.029   4.874  18.084  0.00  0.00    +0.000 A 
ATOM     19  C   UNL     1       2.423   3.600  17.663  0.00  0.00    +0.000 A 
ATOM     20  C   UNL     1       3.679   3.412  17.098  0.00  0.00    +0.000 A 
ATOM     21  C   UNL     1       4.551   4.491  16.987  0.00  0.00    +0.000 A 
ATOM     22  C   UNL     1       4.164   5.769  17.414  0.00  0.00    +0.000 A 
ATOM     23 CL   UNL     1       5.374   7.002  17.269  0.00  0.00    +0.000 Cl
ENDBRANCH   4  17
TORSDOF 2
ENDMDL
MODEL 3
REMARK VINA RESULT:      -7.1      3.188      4.348
REMARK  Name = 
REMARK  3 active torsions:
REMARK  status: ('A' for Active; 'I' for Inactive)
REMARK    1  A    between atoms: C_1  and  C_2
REMARK    2  A    between atoms: C_8  and  C_10
REMARK    3  A    between atoms: C_13  and  C_14
REMARK                            x       y       z     vdW  Elec       q    Type
REMARK                         _______ _______ _______ _____ _____    ______ ____
ROOT
ATOM      1  C   UNL     1       1.315   9.667  19.418  0.00  0.00    +0.000 A 
ATOM      2  C   UNL     1       1.796   9.794  18.131  0.00  0.00    +0.000 A 
ATOM      3  C   UNL     1       2.401   8.554  17.792  0.00  0.00    +0.000 A 
ATOM      4  C   UNL     1       2.232   7.719  18.880  0.00  0.00    +0.000 A 
ATOM      5  O   UNL     1       1.549   8.392  19.848  0.00  0.00    +0.000 OA
ENDROOT
BRANCH   1  13
ATOM      6  C   UNL     1      -5.396  11.096  18.155  0.00  0.00    +0.000 C 
ATOM      7  C   UNL     1      -4.587  12.114  18.921  0.00  0.00    +0.000 C 
ATOM      8  O   UNL     1      -5.146  13.053  19.486  0.00  0.00    +0.000 OA
ATOM      9  N   UNL     1      -3.225  11.895  19.002  0.00  0.00    +0.000 N 
ATOM     10  C   UNL     1      -2.389  12.750  19.858  0.00  0.00    +0.000 C 
ATOM     11  C   UNL     1      -1.455  11.908  20.751  0.00  0.00    +0.000 C 
ATOM     12  N   UNL     1      -0.738  10.888  19.972  0.00  0.00    +0.000 N 
ATOM     13  C   UNL     1       0.602  10.607  20.270  0.00  0.00    +0.000 C 
ATOM     14  O   UNL     1       1.157  11.124  21.241  0.00  0.00    +0.000 OA
ATOM     15  C   UNL     1      -1.615  10.043  19.150  0.00  0.00    +0.000 C 
ATOM     16  C   UNL     1      -2.476  10.902  18.224  0.00  0.00    +0.000 C 
ENDBRANCH   1  13
BRANCH   4  17
ATOM     17  C   UNL     1       2.697   6.373  19.232  0.00  0.00    +0.000 A 
ATOM     18  C   UNL     1       2.059   5.711  20.301  0.00  0.00    +0.000 A 
ATOM     19  C   UNL     1       2.373   4.389  20.634  0.00  0.00    +0.000 A 
ATOM     20  C   UNL     1       3.338   3.699  19.908  0.00  0.00    +0.000 A 
ATOM     21  C   UNL     1       4.009   4.343  18.872  0.00  0.00    +0.000 A 
ATOM     22  C   UNL     1       3.704   5.670  18.539  0.00  0.00    +0.000 A 
ATOM     23 CL   UNL     1       4.662   6.360  17.269  0.00  0.00    +0.000 Cl
ENDBRANCH   4  17
TORSDOF 2
ENDMDL
MODEL 4
REMARK VINA RESULT:      -7.0      3.176      4.757
REMARK  Name = 
REMARK  3 active torsions:
REMARK  status: ('A' for Active; 'I' for Inactive)
REMARK    1  A    between atoms: C_1  and  C_2
REMARK    2  A    between atoms: C_8  and  C_10
REMARK    3  A    between atoms: C_13  and  C_14
REMARK                            x       y       z     vdW  Elec       q    Type
REMARK                         _______ _______ _______ _____ _____    ______ ____
ROOT
ATOM      1  C   UNL     1       2.830   7.732  18.057  0.00  0.00    +0.000 A 
ATOM      2  C   UNL     1       3.958   7.230  17.442  0.00  0.00    +0.000 A 
ATOM      3  C   UNL     1       4.073   5.869  17.836  0.00  0.00    +0.000 A 
ATOM      4  C   UNL     1       2.990   5.599  18.650  0.00  0.00    +0.000 A 
ATOM      5  O   UNL     1       2.228   6.724  18.756  0.00  0.00    +0.000 OA
ENDROOT
BRANCH   1  13
ATOM      6  C   UNL     1      -0.745  10.099  23.560  0.00  0.00    +0.000 C 
ATOM      7  C   UNL     1      -1.051  10.694  22.207  0.00  0.00    +0.000 C 
ATOM      8  O   UNL     1      -1.746  11.705  22.117  0.00  0.00    +0.000 OA
ATOM      9  N   UNL     1      -0.466  10.087  21.112  0.00  0.00    +0.000 N 
ATOM     10  C   UNL     1      -0.586  10.696  19.779  0.00  0.00    +0.000 C 
ATOM     11  C   UNL     1       0.783  10.773  19.072  0.00  0.00    +0.000 C 
ATOM     12  N   UNL     1       1.492   9.487  19.126  0.00  0.00    +0.000 N 
ATOM     13  C   UNL     1       2.223   9.054  18.011  0.00  0.00    +0.000 C 
ATOM     14  O   UNL     1       2.367   9.780  17.027  0.00  0.00    +0.000 OA
ATOM     15  C   UNL     1       1.608   8.928  20.480  0.00  0.00    +0.000 C 
ATOM     16  C   UNL     1       0.229   8.796  21.127  0.00  0.00    +0.000 C 
ENDBRANCH   1  13
BRANCH   4  17
ATOM     17  C   UNL     1       2.568   4.453  19.463  0.00  0.00    +0.000 A 
ATOM     18  C   UNL     1       2.438   4.640  20.854  0.00  0.00    +0.000 A 
ATOM     19  C   UNL     1       1.943   3.629  21.685  0.00  0.00    +0.000 A 
ATOM     20  C   UNL     1       1.570   2.404  21.143  0.00  0.00    +0.000 A 
ATOM     21  C   UNL     1       1.724   2.182  19.778  0.00  0.00    +0.000 A 
ATOM     22  C   UNL     1       2.227   3.188  18.941  0.00  0.00    +0.000 A 
ATOM     23 CL   UNL     1       2.420   2.747  17.276  0.00  0.00    +0.000 Cl
ENDBRANCH   4  17
TORSDOF 2
ENDMDL
MODEL 5
REMARK VINA RESULT:      -6.9      3.364      4.036
REMARK  Name = 
REMARK  3 active torsions:
REMARK  status: ('A' for Active; 'I' for Inactive)
REMARK    1  A    between atoms: C_1  and  C_2
REMARK    2  A    between atoms: C_8  and  C_10
REMARK    3  A    between atoms: C_13  and  C_14
REMARK                            x       y       z     vdW  Elec       q    Type
REMARK                         _______ _______ _______ _____ _____    ______ ____
ROOT
ATOM      1  C   UNL     1       1.593   8.717  19.691  0.00  0.00    +0.000 A 
ATOM      2  C   UNL     1       1.518   9.430  18.512  0.00  0.00    +0.000 A 
ATOM      3  C   UNL     1       2.228   8.684  17.533  0.00  0.00    +0.000 A 
ATOM      4  C   UNL     1       2.677   7.536  18.156  0.00  0.00    +0.000 A 
ATOM      5  O   UNL     1       2.265   7.552  19.455  0.00  0.00    +0.000 OA
ENDROOT
BRANCH   1  13
ATOM      6  C   UNL     1      -3.871  13.002  20.362  0.00  0.00    +0.000 C 
ATOM      7  C   UNL     1      -2.970  12.811  21.557  0.00  0.00    +0.000 C 
ATOM      8  O   UNL     1      -3.311  13.224  22.664  0.00  0.00    +0.000 OA
ATOM      9  N   UNL     1      -1.800  12.106  21.349  0.00  0.00    +0.000 N 
ATOM     10  C   UNL     1      -0.944  11.743  22.489  0.00  0.00    +0.000 C 
ATOM     11  C   UNL     1      -0.543  10.254  22.437  0.00  0.00    +0.000 C 
ATOM     12  N   UNL     1      -0.036   9.877  21.111  0.00  0.00    +0.000 N 
ATOM     13  C   UNL     1       1.047   8.993  21.012  0.00  0.00    +0.000 C 
ATOM     14  O   UNL     1       1.512   8.445  22.013  0.00  0.00    +0.000 OA
ATOM     15  C   UNL     1      -0.933  10.239  20.005  0.00  0.00    +0.000 C 
ATOM     16  C   UNL     1      -1.254  11.734  20.040  0.00  0.00    +0.000 C 
ENDBRANCH   1  13
BRANCH   4  17
ATOM     17  C   UNL     1       3.544   6.420  17.766  0.00  0.00    +0.000 A 
ATOM     18  C   UNL     1       4.896   6.699  17.482  0.00  0.00    +0.000 A 
ATOM     19  C   UNL     1       5.811   5.678  17.202  0.00  0.00    +0.000 A 
ATOM     20  C   UNL     1       5.394   4.352  17.197  0.00  0.00    +0.000 A 
ATOM     21  C   UNL     1       4.056   4.052  17.439  0.00  0.00    +0.000 A 
ATOM     22  C   UNL     1       3.133   5.072  17.711  0.00  0.00    +0.000 A 
ATOM     23 CL   UNL     1       1.493   4.554  17.931  0.00  0.00    +0.000 Cl
ENDBRANCH   4  17
TORSDOF 2
ENDMDL
MODEL 6
REMARK VINA RESULT:      -6.9      1.266      1.720
REMARK  Name = 
REMARK  3 active torsions:
REMARK  status: ('A' for Active; 'I' for Inactive)
REMARK    1  A    between atoms: C_1  and  C_2
REMARK    2  A    between atoms: C_8  and  C_10
REMARK    3  A    between atoms: C_13  and  C_14
REMARK                            x       y       z     vdW  Elec       q    Type
REMARK                         _______ _______ _______ _____ _____    ______ ____
ROOT
ATOM      1  C   UNL     1       0.359  10.226  20.373  0.00  0.00    +0.000 A 
ATOM      2  C   UNL     1       0.654  10.053  21.709  0.00  0.00    +0.000 A 
ATOM      3  C   UNL     1       1.323   8.804  21.825  0.00  0.00    +0.000 A 
ATOM      4  C   UNL     1       1.430   8.290  20.547  0.00  0.00    +0.000 A 
ATOM      5  O   UNL     1       0.868   9.171  19.671  0.00  0.00    +0.000 OA
ENDROOT
BRANCH   1  13
ATOM      6  C   UNL     1       4.110  15.548  17.868  0.00  0.00    +0.000 C 
ATOM      7  C   UNL     1       2.646  15.784  18.151  0.00  0.00    +0.000 C 
ATOM      8  O   UNL     1       2.094  16.808  17.751  0.00  0.00    +0.000 OA
ATOM      9  N   UNL     1       1.969  14.778  18.813  0.00  0.00    +0.000 N 
ATOM     10  C   UNL     1       0.511  14.861  18.989  0.00  0.00    +0.000 C 
ATOM     11  C   UNL     1      -0.179  13.541  18.586  0.00  0.00    +0.000 C 
ATOM     12  N   UNL     1       0.475  12.379  19.205  0.00  0.00    +0.000 N 
ATOM     13  C   UNL     1      -0.307  11.315  19.674  0.00  0.00    +0.000 C 
ATOM     14  O   UNL     1      -1.524  11.290  19.481  0.00  0.00    +0.000 OA
ATOM     15  C   UNL     1       1.927  12.326  18.984  0.00  0.00    +0.000 C 
ATOM     16  C   UNL     1       2.592  13.618  19.460  0.00  0.00    +0.000 C 
ENDBRANCH   1  13
BRANCH   4  17
ATOM     17  C   UNL     1       1.898   7.022  19.978  0.00  0.00    +0.000 A 
ATOM     18  C   UNL     1       1.661   5.841  20.709  0.00  0.00    +0.000 A 
ATOM     19  C   UNL     1       1.984   4.582  20.191  0.00  0.00    +0.000 A 
ATOM     20  C   UNL     1       2.556   4.476  18.928  0.00  0.00    +0.000 A 
ATOM     21  C   UNL     1       2.835   5.630  18.201  0.00  0.00    +0.000 A 
ATOM     22  C   UNL     1       2.521   6.894  18.719  0.00  0.00    +0.000 A 
ATOM     23 CL   UNL     1       2.981   8.241  17.729  0.00  0.00    +0.000 Cl
ENDBRANCH   4  17
TORSDOF 2
ENDMDL
MODEL 7
REMARK VINA RESULT:      -6.9      4.132      8.140
REMARK  Name = 
REMARK  3 active torsions:
REMARK  status: ('A' for Active; 'I' for Inactive)
REMARK    1  A    between atoms: C_1  and  C_2
REMARK    2  A    between atoms: C_8  and  C_10
REMARK    3  A    between atoms: C_13  and  C_14
REMARK                            x       y       z     vdW  Elec       q    Type
REMARK                         _______ _______ _______ _____ _____    ______ ____
ROOT
ATOM      1  C   UNL     1       1.280   9.075  18.581  0.00  0.00    +0.000 A 
ATOM      2  C   UNL     1       1.048   9.516  19.868  0.00  0.00    +0.000 A 
ATOM      3  C   UNL     1      -0.235  10.128  19.868  0.00  0.00    +0.000 A 
ATOM      4  C   UNL     1      -0.736  10.003  18.587  0.00  0.00    +0.000 A 
ATOM      5  O   UNL     1       0.177   9.340  17.822  0.00  0.00    +0.000 OA
ENDROOT
BRANCH   1  13
ATOM      6  C   UNL     1       2.715   2.544  20.572  0.00  0.00    +0.000 C 
ATOM      7  C   UNL     1       3.836   3.369  19.988  0.00  0.00    +0.000 C 
ATOM      8  O   UNL     1       4.901   2.838  19.678  0.00  0.00    +0.000 OA
ATOM      9  N   UNL     1       3.576   4.709  19.771  0.00  0.00    +0.000 N 
ATOM     10  C   UNL     1       4.557   5.546  19.064  0.00  0.00    +0.000 C 
ATOM     11  C   UNL     1       3.886   6.377  17.950  0.00  0.00    +0.000 C 
ATOM     12  N   UNL     1       2.688   7.072  18.441  0.00  0.00    +0.000 N 
ATOM     13  C   UNL     1       2.416   8.374  18.001  0.00  0.00    +0.000 C 
ATOM     14  O   UNL     1       3.106   8.905  17.128  0.00  0.00    +0.000 OA
ATOM     15  C   UNL     1       1.727   6.193  19.121  0.00  0.00    +0.000 C 
ATOM     16  C   UNL     1       2.403   5.438  20.266  0.00  0.00    +0.000 C 
ENDBRANCH   1  13
BRANCH   4  17
ATOM     17  C   UNL     1      -1.927  10.499  17.890  0.00  0.00    +0.000 A 
ATOM     18  C   UNL     1      -2.224   9.960  16.622  0.00  0.00    +0.000 A 
ATOM     19  C   UNL     1      -3.395  10.303  15.937  0.00  0.00    +0.000 A 
ATOM     20  C   UNL     1      -4.296  11.197  16.505  0.00  0.00    +0.000 A 
ATOM     21  C   UNL     1      -4.008  11.772  17.739  0.00  0.00    +0.000 A 
ATOM     22  C   UNL     1      -2.832  11.438  18.426  0.00  0.00    +0.000 A 
ATOM     23 CL   UNL     1      -2.577  12.278  19.922  0.00  0.00    +0.000 Cl
ENDBRANCH   4  17
TORSDOF 2
ENDMDL
MODEL 8
REMARK VINA RESULT:      -6.9      3.138      4.754
REMARK  Name = 
REMARK  3 active torsions:
REMARK  status: ('A' for Active; 'I' for Inactive)
REMARK    1  A    between atoms: C_1  and  C_2
REMARK    2  A    between atoms: C_8  and  C_10
REMARK    3  A    between atoms: C_13  and  C_14
REMARK                            x       y       z     vdW  Elec       q    Type
REMARK                         _______ _______ _______ _____ _____    ______ ____
ROOT
ATOM      1  C   UNL     1       2.834   7.868  17.875  0.00  0.00    +0.000 A 
ATOM      2  C   UNL     1       4.099   7.565  17.415  0.00  0.00    +0.000 A 
ATOM      3  C   UNL     1       4.237   6.153  17.488  0.00  0.00    +0.000 A 
ATOM      4  C   UNL     1       3.036   5.660  17.962  0.00  0.00    +0.000 A 
ATOM      5  O   UNL     1       2.184   6.704  18.167  0.00  0.00    +0.000 OA
ENDROOT
BRANCH   1  13
ATOM      6  C   UNL     1      -0.200   9.518  23.936  0.00  0.00    +0.000 C 
ATOM      7  C   UNL     1      -0.699  10.200  22.685  0.00  0.00    +0.000 C 
ATOM      8  O   UNL     1      -1.459  11.164  22.765  0.00  0.00    +0.000 OA
ATOM      9  N   UNL     1      -0.212   9.728  21.481  0.00  0.00    +0.000 N 
ATOM     10  C   UNL     1      -0.525  10.435  20.230  0.00  0.00    +0.000 C 
ATOM     11  C   UNL     1       0.744  10.666  19.383  0.00  0.00    +0.000 C 
ATOM     12  N   UNL     1       1.530   9.432  19.241  0.00  0.00    +0.000 N 
ATOM     13  C   UNL     1       2.148   9.144  18.017  0.00  0.00    +0.000 C 
ATOM     14  O   UNL     1       2.132   9.958  17.092  0.00  0.00    +0.000 OA
ATOM     15  C   UNL     1       1.838   8.773  20.518  0.00  0.00    +0.000 C 
ATOM     16  C   UNL     1       0.555   8.491  21.302  0.00  0.00    +0.000 C 
ENDBRANCH   1  13
BRANCH   4  17
ATOM     17  C   UNL     1       2.549   4.337  18.367  0.00  0.00    +0.000 A 
ATOM     18  C   UNL     1       2.590   3.297  17.417  0.00  0.00    +0.000 A 
ATOM     19  C   UNL     1       2.241   1.985  17.754  0.00  0.00    +0.000 A 
ATOM     20  C   UNL     1       1.839   1.683  19.050  0.00  0.00    +0.000 A 
ATOM     21  C   UNL     1       1.754   2.699  19.997  0.00  0.00    +0.000 A 
ATOM     22  C   UNL     1       2.095   4.018  19.663  0.00  0.00    +0.000 A 
ATOM     23 CL   UNL     1       1.883   5.186  20.927  0.00  0.00    +0.000 Cl
ENDBRANCH   4  17
TORSDOF 2
ENDMDL
MODEL 9
REMARK VINA RESULT:      -6.8      3.706      7.853
REMARK  Name = 
REMARK  3 active torsions:
REMARK  status: ('A' for Active; 'I' for Inactive)
REMARK    1  A    between atoms: C_1  and  C_2
REMARK    2  A    between atoms: C_8  and  C_10
REMARK    3  A    between atoms: C_13  and  C_14
REMARK                            x       y       z     vdW  Elec       q    Type
REMARK                         _______ _______ _______ _____ _____    ______ ____
ROOT
ATOM      1  C   UNL     1       0.781   9.539  19.948  0.00  0.00    +0.000 A 
ATOM      2  C   UNL     1       1.436  10.700  19.593  0.00  0.00    +0.000 A 
ATOM      3  C   UNL     1       0.532  11.456  18.798  0.00  0.00    +0.000 A 
ATOM      4  C   UNL     1      -0.642  10.732  18.733  0.00  0.00    +0.000 A 
ATOM      5  O   UNL     1      -0.491   9.586  19.455  0.00  0.00    +0.000 OA
ENDROOT
BRANCH   1  13
ATOM      6  C   UNL     1       4.190   4.238  16.956  0.00  0.00    +0.000 C 
ATOM      7  C   UNL     1       3.461   3.971  18.250  0.00  0.00    +0.000 C 
ATOM      8  O   UNL     1       3.644   2.919  18.860  0.00  0.00    +0.000 OA
ATOM      9  N   UNL     1       2.647   4.982  18.727  0.00  0.00    +0.000 N 
ATOM     10  C   UNL     1       2.026   4.864  20.055  0.00  0.00    +0.000 C 
ATOM     11  C   UNL     1       2.229   6.148  20.885  0.00  0.00    +0.000 C 
ATOM     12  N   UNL     1       1.873   7.349  20.117  0.00  0.00    +0.000 N 
ATOM     13  C   UNL     1       1.211   8.407  20.756  0.00  0.00    +0.000 C 
ATOM     14  O   UNL     1       1.018   8.391  21.973  0.00  0.00    +0.000 OA
ATOM     15  C   UNL     1       2.534   7.436  18.807  0.00  0.00    +0.000 C 
ATOM     16  C   UNL     1       2.255   6.180  17.980  0.00  0.00    +0.000 C 
ENDBRANCH   1  13
BRANCH   4  17
ATOM     17  C   UNL     1      -1.908  10.877  18.006  0.00  0.00    +0.000 A 
ATOM     18  C   UNL     1      -2.034  10.229  16.760  0.00  0.00    +0.000 A 
ATOM     19  C   UNL     1      -3.241  10.233  16.053  0.00  0.00    +0.000 A 
ATOM     20  C   UNL     1      -4.350  10.890  16.573  0.00  0.00    +0.000 A 
ATOM     21  C   UNL     1      -4.241  11.569  17.783  0.00  0.00    +0.000 A 
ATOM     22  C   UNL     1      -3.032  11.575  18.493  0.00  0.00    +0.000 A 
ATOM     23 CL   UNL     1      -3.028  12.512  19.952  0.00  0.00    +0.000 Cl
ENDBRANCH   4  17
TORSDOF 2
ENDMDL
