MODEL 1
REMARK VINA RESULT:      -6.5      0.000      0.000
REMARK  Name = 
REMARK  9 active torsions:
REMARK  status: ('A' for Active; 'I' for Inactive)
REMARK    1  A    between atoms: C_1  and  O_2
REMARK    2  A    between atoms: O_2  and  C_3
REMARK    3  A    between atoms: C_3  and  C_4
REMARK    4  A    between atoms: N_6  and  C_7
REMARK    5  A    between atoms: C_7  and  C_8
REMARK    6  A    between atoms: C_8  and  N_9
REMARK    7  A    between atoms: N_9  and  S_10
REMARK    8  A    between atoms: S_10  and  C_13
REMARK    9  A    between atoms: C_16  and  C_17
REMARK                            x       y       z     vdW  Elec       q    Type
REMARK                         _______ _______ _______ _____ _____    ______ ____
ROOT
ATOM      1  N   UNL     1       5.302   3.352  19.114  0.00  0.00    +0.000 NA
ATOM      2  H   UNL     1       5.352   2.887  20.021  0.00  0.00    +0.000 HD
ENDROOT
BRANCH   1   3
ATOM      3  S   UNL     1       3.703   3.319  18.571  0.00  0.00    +0.000 S 
ATOM      4  O   UNL     1       3.769   3.331  17.124  0.00  0.00    +0.000 OA
ATOM      5  O   UNL     1       3.023   2.263  19.287  0.00  0.00    +0.000 OA
BRANCH   3   6
ATOM      6  C   UNL     1       3.053   4.882  19.091  0.00  0.00    +0.000 A 
ATOM      7  C   UNL     1       3.157   5.992  18.249  0.00  0.00    +0.000 A 
ATOM      8  C   UNL     1       2.611   7.213  18.652  0.00  0.00    +0.000 A 
ATOM      9  C   UNL     1       1.957   7.326  19.887  0.00  0.00    +0.000 A 
ATOM     10  C   UNL     1       1.338   8.625  20.317  0.00  0.00    +0.000 C 
ATOM     11  C   UNL     1       1.867   6.206  20.724  0.00  0.00    +0.000 A 
ATOM     12  C   UNL     1       2.413   4.984  20.329  0.00  0.00    +0.000 A 
ENDBRANCH   3   6
ENDBRANCH   1   3
BRANCH   1  13
ATOM     13  C   UNL     1       6.018   4.637  19.006  0.00  0.00    +0.000 C 
BRANCH  13  14
ATOM     14  C   UNL     1       7.047   4.575  17.869  0.00  0.00    +0.000 C 
BRANCH  14  17
ATOM     15  C   UNL     1       6.702   4.931  15.453  0.00  0.00    +0.000 C 
ATOM     16  O   UNL     1       7.520   5.844  15.395  0.00  0.00    +0.000 OA
ATOM     17  N   UNL     1       6.447   4.208  16.599  0.00  0.00    +0.000 N 
ATOM     18  H   UNL     1       5.660   3.568  16.588  0.00  0.00    +0.000 HD
BRANCH  15  19
ATOM     19  C   UNL     1       5.848   4.508  14.257  0.00  0.00    +0.000 C 
BRANCH  19  21
ATOM     20  C   UNL     1       6.221   3.420  12.195  0.00  0.00    +0.000 C 
ATOM     21  O   UNL     1       6.327   3.329  13.614  0.00  0.00    +0.000 OA
ENDBRANCH  19  21
ENDBRANCH  15  19
ENDBRANCH  14  17
ENDBRANCH  13  14
ENDBRANCH   1  13
TORSDOF 7
ENDMDL
MODEL 2
REMARK VINA RESULT:      -6.3      1.207      1.747
REMARK  Name = 
REMARK  9 active torsions:
REMARK  status: ('A' for Active; 'I' for Inactive)
REMARK    1  A    between atoms: C_1  and  O_2
REMARK    2  A    between atoms: O_2  and  C_3
REMARK    3  A    between atoms: C_3  and  C_4
REMARK    4  A    between atoms: N_6  and  C_7
REMARK    5  A    between atoms: C_7  and  C_8
REMARK    6  A    between atoms: C_8  and  N_9
REMARK    7  A    between atoms: N_9  and  S_10
REMARK    8  A    between atoms: S_10  and  C_13
REMARK    9  A    between atoms: C_16  and  C_17
REMARK                            x       y       z     vdW  Elec       q    Type
REMARK                         _______ _______ _______ _____ _____    ______ ____
ROOT
ATOM      1  N   UNL     1       4.260   2.974  18.031  0.00  0.00    +0.000 NA
ATOM      2  H   UNL     1       4.557   2.057  17.698  0.00  0.00    +0.000 HD
ENDROOT
BRANCH   1   3
ATOM      3  S   UNL     1       2.572   3.009  18.101  0.00  0.00    +0.000 S 
ATOM      4  O   UNL     1       2.116   3.122  16.731  0.00  0.00    +0.000 OA
ATOM      5  O   UNL     1       2.151   1.919  18.951  0.00  0.00    +0.000 OA
BRANCH   3   6
ATOM      6  C   UNL     1       2.220   4.544  18.910  0.00  0.00    +0.000 A 
ATOM      7  C   UNL     1       1.743   4.544  20.223  0.00  0.00    +0.000 A 
ATOM      8  C   UNL     1       1.502   5.760  20.866  0.00  0.00    +0.000 A 
ATOM      9  C   UNL     1       1.741   6.973  20.206  0.00  0.00    +0.000 A 
ATOM     10  C   UNL     1       1.516   8.287  20.897  0.00  0.00    +0.000 C 
ATOM     11  C   UNL     1       2.213   6.958  18.887  0.00  0.00    +0.000 A 
ATOM     12  C   UNL     1       2.453   5.746  18.237  0.00  0.00    +0.000 A 
ENDBRANCH   3   6
ENDBRANCH   1   3
BRANCH   1  13
ATOM     13  C   UNL     1       4.988   3.504  19.200  0.00  0.00    +0.000 C 
BRANCH  13  14
ATOM     14  C   UNL     1       5.918   4.647  18.770  0.00  0.00    +0.000 C 
BRANCH  14  17
ATOM     15  C   UNL     1       7.195   4.600  16.660  0.00  0.00    +0.000 C 
ATOM     16  O   UNL     1       8.224   4.215  17.206  0.00  0.00    +0.000 OA
ATOM     17  N   UNL     1       6.001   4.780  17.327  0.00  0.00    +0.000 N 
ATOM     18  H   UNL     1       5.243   5.230  16.825  0.00  0.00    +0.000 HD
BRANCH  15  19
ATOM     19  C   UNL     1       7.127   4.953  15.174  0.00  0.00    +0.000 C 
BRANCH  19  21
ATOM     20  C   UNL     1       5.627   3.874  13.705  0.00  0.00    +0.000 C 
ATOM     21  O   UNL     1       5.801   4.926  14.650  0.00  0.00    +0.000 OA
ENDBRANCH  19  21
ENDBRANCH  15  19
ENDBRANCH  14  17
ENDBRANCH  13  14
ENDBRANCH   1  13
TORSDOF 7
ENDMDL
MODEL 3
REMARK VINA RESULT:      -6.2      4.696      6.032
REMARK  Name = 
REMARK  9 active torsions:
REMARK  status: ('A' for Active; 'I' for Inactive)
REMARK    1  A    between atoms: C_1  and  O_2
REMARK    2  A    between atoms: O_2  and  C_3
REMARK    3  A    between atoms: C_3  and  C_4
REMARK    4  A    between atoms: N_6  and  C_7
REMARK    5  A    between atoms: C_7  and  C_8
REMARK    6  A    between atoms: C_8  and  N_9
REMARK    7  A    between atoms: N_9  and  S_10
REMARK    8  A    between atoms: S_10  and  C_13
REMARK    9  A    between atoms: C_16  and  C_17
REMARK                            x       y       z     vdW  Elec       q    Type
REMARK                         _______ _______ _______ _____ _____    ______ ____
ROOT
ATOM      1  N   UNL     1       7.772   6.977  16.596  0.00  0.00    +0.000 NA
ATOM      2  H   UNL     1       8.638   6.950  16.057  0.00  0.00    +0.000 HD
ENDROOT
BRANCH   1   3
ATOM      3  S   UNL     1       7.000   5.480  16.462  0.00  0.00    +0.000 S 
ATOM      4  O   UNL     1       6.512   5.399  15.101  0.00  0.00    +0.000 OA
ATOM      5  O   UNL     1       7.893   4.482  17.005  0.00  0.00    +0.000 OA
BRANCH   3   6
ATOM      6  C   UNL     1       5.594   5.639  17.527  0.00  0.00    +0.000 A 
ATOM      7  C   UNL     1       4.530   6.464  17.153  0.00  0.00    +0.000 A 
ATOM      8  C   UNL     1       3.409   6.556  17.981  0.00  0.00    +0.000 A 
ATOM      9  C   UNL     1       3.345   5.824  19.175  0.00  0.00    +0.000 A 
ATOM     10  C   UNL     1       2.133   5.890  20.059  0.00  0.00    +0.000 C 
ATOM     11  C   UNL     1       4.423   5.006  19.540  0.00  0.00    +0.000 A 
ATOM     12  C   UNL     1       5.548   4.912  18.719  0.00  0.00    +0.000 A 
ENDBRANCH   3   6
ENDBRANCH   1   3
BRANCH   1  13
ATOM     13  C   UNL     1       7.869   7.560  17.947  0.00  0.00    +0.000 C 
BRANCH  13  14
ATOM     14  C   UNL     1       7.903   9.092  17.860  0.00  0.00    +0.000 C 
BRANCH  14  17
ATOM     15  C   UNL     1       9.289  10.987  18.616  0.00  0.00    +0.000 C 
ATOM     16  O   UNL     1       8.777  11.774  17.825  0.00  0.00    +0.000 OA
ATOM     17  N   UNL     1       8.888   9.675  18.753  0.00  0.00    +0.000 N 
ATOM     18  H   UNL     1       9.457   9.066  19.331  0.00  0.00    +0.000 HD
BRANCH  15  19
ATOM     19  C   UNL     1      10.456  11.371  19.527  0.00  0.00    +0.000 C 
BRANCH  19  21
ATOM     20  C   UNL     1      12.105  12.666  18.443  0.00  0.00    +0.000 C 
ATOM     21  O   UNL     1      11.716  11.360  18.859  0.00  0.00    +0.000 OA
ENDBRANCH  19  21
ENDBRANCH  15  19
ENDBRANCH  14  17
ENDBRANCH  13  14
ENDBRANCH   1  13
TORSDOF 7
ENDMDL
MODEL 4
REMARK VINA RESULT:      -6.2      2.101      3.396
REMARK  Name = 
REMARK  9 active torsions:
REMARK  status: ('A' for Active; 'I' for Inactive)
REMARK    1  A    between atoms: C_1  and  O_2
REMARK    2  A    between atoms: O_2  and  C_3
REMARK    3  A    between atoms: C_3  and  C_4
REMARK    4  A    between atoms: N_6  and  C_7
REMARK    5  A    between atoms: C_7  and  C_8
REMARK    6  A    between atoms: C_8  and  N_9
REMARK    7  A    between atoms: N_9  and  S_10
REMARK    8  A    between atoms: S_10  and  C_13
REMARK    9  A    between atoms: C_16  and  C_17
REMARK                            x       y       z     vdW  Elec       q    Type
REMARK                         _______ _______ _______ _____ _____    ______ ____
ROOT
ATOM      1  N   UNL     1       2.535   4.671  18.355  0.00  0.00    +0.000 NA
ATOM      2  H   UNL     1       1.538   4.835  18.215  0.00  0.00    +0.000 HD
ENDROOT
BRANCH   1   3
ATOM      3  S   UNL     1       3.059   5.590  19.673  0.00  0.00    +0.000 S 
ATOM      4  O   UNL     1       2.453   4.994  20.845  0.00  0.00    +0.000 OA
ATOM      5  O   UNL     1       4.491   5.740  19.555  0.00  0.00    +0.000 OA
BRANCH   3   6
ATOM      6  C   UNL     1       2.289   7.164  19.414  0.00  0.00    +0.000 A 
ATOM      7  C   UNL     1       1.639   7.802  20.474  0.00  0.00    +0.000 A 
ATOM      8  C   UNL     1       1.066   9.059  20.270  0.00  0.00    +0.000 A 
ATOM      9  C   UNL     1       1.146   9.683  19.018  0.00  0.00    +0.000 A 
ATOM     10  C   UNL     1       0.561  11.048  18.795  0.00  0.00    +0.000 C 
ATOM     11  C   UNL     1       1.796   9.028  17.962  0.00  0.00    +0.000 A 
ATOM     12  C   UNL     1       2.368   7.770  18.157  0.00  0.00    +0.000 A 
ENDBRANCH   3   6
ENDBRANCH   1   3
BRANCH   1  13
ATOM     13  C   UNL     1       2.972   3.263  18.308  0.00  0.00    +0.000 C 
BRANCH  13  14
ATOM     14  C   UNL     1       3.982   3.060  17.170  0.00  0.00    +0.000 C 
BRANCH  14  17
ATOM     15  C   UNL     1       6.058   4.094  16.333  0.00  0.00    +0.000 C 
ATOM     16  O   UNL     1       5.796   3.848  15.159  0.00  0.00    +0.000 OA
ATOM     17  N   UNL     1       5.208   3.806  17.380  0.00  0.00    +0.000 N 
ATOM     18  H   UNL     1       5.567   3.919  18.323  0.00  0.00    +0.000 HD
BRANCH  15  19
ATOM     19  C   UNL     1       7.380   4.728  16.770  0.00  0.00    +0.000 C 
BRANCH  19  21
ATOM     20  C   UNL     1       7.233   7.001  17.388  0.00  0.00    +0.000 C 
ATOM     21  O   UNL     1       7.523   6.080  16.340  0.00  0.00    +0.000 OA
ENDBRANCH  19  21
ENDBRANCH  15  19
ENDBRANCH  14  17
ENDBRANCH  13  14
ENDBRANCH   1  13
TORSDOF 7
ENDMDL
MODEL 5
REMARK VINA RESULT:      -6.2      4.756      6.377
REMARK  Name = 
REMARK  9 active torsions:
REMARK  status: ('A' for Active; 'I' for Inactive)
REMARK    1  A    between atoms: C_1  and  O_2
REMARK    2  A    between atoms: O_2  and  C_3
REMARK    3  A    between atoms: C_3  and  C_4
REMARK    4  A    between atoms: N_6  and  C_7
REMARK    5  A    between atoms: C_7  and  C_8
REMARK    6  A    between atoms: C_8  and  N_9
REMARK    7  A    between atoms: N_9  and  S_10
REMARK    8  A    between atoms: S_10  and  C_13
REMARK    9  A    between atoms: C_16  and  C_17
REMARK                            x       y       z     vdW  Elec       q    Type
REMARK                         _______ _______ _______ _____ _____    ______ ____
ROOT
ATOM      1  N   UNL     1       6.736   7.246  16.885  0.00  0.00    +0.000 NA
ATOM      2  H   UNL     1       6.590   7.808  16.045  0.00  0.00    +0.000 HD
ENDROOT
BRANCH   1   3
ATOM      3  S   UNL     1       6.708   5.611  16.459  0.00  0.00    +0.000 S 
ATOM      4  O   UNL     1       6.703   5.573  15.011  0.00  0.00    +0.000 OA
ATOM      5  O   UNL     1       7.732   4.945  17.229  0.00  0.00    +0.000 OA
BRANCH   3   6
ATOM      6  C   UNL     1       5.118   5.064  17.014  0.00  0.00    +0.000 A 
ATOM      7  C   UNL     1       4.238   5.972  17.607  0.00  0.00    +0.000 A 
ATOM      8  C   UNL     1       2.972   5.540  18.009  0.00  0.00    +0.000 A 
ATOM      9  C   UNL     1       2.581   4.208  17.815  0.00  0.00    +0.000 A 
ATOM     10  C   UNL     1       1.212   3.738  18.214  0.00  0.00    +0.000 C 
ATOM     11  C   UNL     1       3.477   3.306  17.225  0.00  0.00    +0.000 A 
ATOM     12  C   UNL     1       4.744   3.730  16.823  0.00  0.00    +0.000 A 
ENDBRANCH   3   6
ENDBRANCH   1   3
BRANCH   1  13
ATOM     13  C   UNL     1       7.826   7.686  17.775  0.00  0.00    +0.000 C 
BRANCH  13  14
ATOM     14  C   UNL     1       8.027   9.203  17.657  0.00  0.00    +0.000 C 
BRANCH  14  17
ATOM     15  C   UNL     1       9.340  11.022  18.682  0.00  0.00    +0.000 C 
ATOM     16  O   UNL     1       9.055  11.826  17.799  0.00  0.00    +0.000 OA
ATOM     17  N   UNL     1       8.838   9.739  18.735  0.00  0.00    +0.000 N 
ATOM     18  H   UNL     1       9.235   9.105  19.421  0.00  0.00    +0.000 HD
BRANCH  15  19
ATOM     19  C   UNL     1      10.313  11.349  19.815  0.00  0.00    +0.000 C 
BRANCH  19  21
ATOM     20  C   UNL     1       9.087  12.528  21.452  0.00  0.00    +0.000 C 
ATOM     21  O   UNL     1       9.709  11.294  21.106  0.00  0.00    +0.000 OA
ENDBRANCH  19  21
ENDBRANCH  15  19
ENDBRANCH  14  17
ENDBRANCH  13  14
ENDBRANCH   1  13
TORSDOF 7
ENDMDL
MODEL 6
REMARK VINA RESULT:      -6.2      5.012      6.256
REMARK  Name = 
REMARK  9 active torsions:
REMARK  status: ('A' for Active; 'I' for Inactive)
REMARK    1  A    between atoms: C_1  and  O_2
REMARK    2  A    between atoms: O_2  and  C_3
REMARK    3  A    between atoms: C_3  and  C_4
REMARK    4  A    between atoms: N_6  and  C_7
REMARK    5  A    between atoms: C_7  and  C_8
REMARK    6  A    between atoms: C_8  and  N_9
REMARK    7  A    between atoms: N_9  and  S_10
REMARK    8  A    between atoms: S_10  and  C_13
REMARK    9  A    between atoms: C_16  and  C_17
REMARK                            x       y       z     vdW  Elec       q    Type
REMARK                         _______ _______ _______ _____ _____    ______ ____
ROOT
ATOM      1  N   UNL     1       7.561   6.734  18.321  0.00  0.00    +0.000 NA
ATOM      2  H   UNL     1       6.863   6.745  19.065  0.00  0.00    +0.000 HD
ENDROOT
BRANCH   1   3
ATOM      3  S   UNL     1       7.302   5.377  17.349  0.00  0.00    +0.000 S 
ATOM      4  O   UNL     1       7.431   5.832  15.980  0.00  0.00    +0.000 OA
ATOM      5  O   UNL     1       8.122   4.307  17.870  0.00  0.00    +0.000 OA
BRANCH   3   6
ATOM      6  C   UNL     1       5.597   4.986  17.624  0.00  0.00    +0.000 A 
ATOM      7  C   UNL     1       4.925   4.144  16.735  0.00  0.00    +0.000 A 
ATOM      8  C   UNL     1       3.590   3.813  16.979  0.00  0.00    +0.000 A 
ATOM      9  C   UNL     1       2.928   4.313  18.109  0.00  0.00    +0.000 A 
ATOM     10  C   UNL     1       1.503   3.939  18.400  0.00  0.00    +0.000 C 
ATOM     11  C   UNL     1       3.614   5.162  18.989  0.00  0.00    +0.000 A 
ATOM     12  C   UNL     1       4.946   5.500  18.749  0.00  0.00    +0.000 A 
ENDBRANCH   3   6
ENDBRANCH   1   3
BRANCH   1  13
ATOM     13  C   UNL     1       7.789   8.017  17.630  0.00  0.00    +0.000 C 
BRANCH  13  14
ATOM     14  C   UNL     1       8.606   8.961  18.522  0.00  0.00    +0.000 C 
BRANCH  14  17
ATOM     15  C   UNL     1       9.456  11.276  18.589  0.00  0.00    +0.000 C 
ATOM     16  O   UNL     1      10.148  11.072  19.581  0.00  0.00    +0.000 OA
ATOM     17  N   UNL     1       8.717  10.295  17.961  0.00  0.00    +0.000 N 
ATOM     18  H   UNL     1       8.071  10.584  17.234  0.00  0.00    +0.000 HD
BRANCH  15  19
ATOM     19  C   UNL     1       9.313  12.657  17.949  0.00  0.00    +0.000 C 
BRANCH  19  21
ATOM     20  C   UNL     1      11.250  13.310  16.769  0.00  0.00    +0.000 C 
ATOM     21  O   UNL     1      10.517  13.420  17.986  0.00  0.00    +0.000 OA
ENDBRANCH  19  21
ENDBRANCH  15  19
ENDBRANCH  14  17
ENDBRANCH  13  14
ENDBRANCH   1  13
TORSDOF 7
ENDMDL
MODEL 7
REMARK VINA RESULT:      -6.2      4.843      6.359
REMARK  Name = 
REMARK  9 active torsions:
REMARK  status: ('A' for Active; 'I' for Inactive)
REMARK    1  A    between atoms: C_1  and  O_2
REMARK    2  A    between atoms: O_2  and  C_3
REMARK    3  A    between atoms: C_3  and  C_4
REMARK    4  A    between atoms: N_6  and  C_7
REMARK    5  A    between atoms: C_7  and  C_8
REMARK    6  A    between atoms: C_8  and  N_9
REMARK    7  A    between atoms: N_9  and  S_10
REMARK    8  A    between atoms: S_10  and  C_13
REMARK    9  A    between atoms: C_16  and  C_17
REMARK                            x       y       z     vdW  Elec       q    Type
REMARK                         _______ _______ _______ _____ _____    ______ ____
ROOT
ATOM      1  N   UNL     1       6.773   7.269  17.065  0.00  0.00    +0.000 NA
ATOM      2  H   UNL     1       6.625   7.854  16.242  0.00  0.00    +0.000 HD
ENDROOT
BRANCH   1   3
ATOM      3  S   UNL     1       6.696   5.646  16.600  0.00  0.00    +0.000 S 
ATOM      4  O   UNL     1       6.611   5.646  15.154  0.00  0.00    +0.000 OA
ATOM      5  O   UNL     1       7.752   4.946  17.295  0.00  0.00    +0.000 OA
BRANCH   3   6
ATOM      6  C   UNL     1       5.131   5.106  17.228  0.00  0.00    +0.000 A 
ATOM      7  C   UNL     1       4.524   5.805  18.274  0.00  0.00    +0.000 A 
ATOM      8  C   UNL     1       3.273   5.393  18.740  0.00  0.00    +0.000 A 
ATOM      9  C   UNL     1       2.626   4.293  18.161  0.00  0.00    +0.000 A 
ATOM     10  C   UNL     1       1.267   3.859  18.632  0.00  0.00    +0.000 C 
ATOM     11  C   UNL     1       3.251   3.597  17.117  0.00  0.00    +0.000 A 
ATOM     12  C   UNL     1       4.502   4.001  16.649  0.00  0.00    +0.000 A 
ENDBRANCH   3   6
ENDBRANCH   1   3
BRANCH   1  13
ATOM     13  C   UNL     1       7.890   7.660  17.944  0.00  0.00    +0.000 C 
BRANCH  13  14
ATOM     14  C   UNL     1       8.181   9.159  17.794  0.00  0.00    +0.000 C 
BRANCH  14  17
ATOM     15  C   UNL     1       9.257  11.027  18.993  0.00  0.00    +0.000 C 
ATOM     16  O   UNL     1       9.036  11.831  18.093  0.00  0.00    +0.000 OA
ATOM     17  N   UNL     1       8.825   9.718  18.969  0.00  0.00    +0.000 N 
ATOM     18  H   UNL     1       9.171   9.094  19.691  0.00  0.00    +0.000 HD
BRANCH  15  19
ATOM     19  C   UNL     1      10.067  11.384  20.241  0.00  0.00    +0.000 C 
BRANCH  19  21
ATOM     20  C   UNL     1      12.245  11.834  19.452  0.00  0.00    +0.000 C 
ATOM     21  O   UNL     1      11.053  12.387  20.002  0.00  0.00    +0.000 OA
ENDBRANCH  19  21
ENDBRANCH  15  19
ENDBRANCH  14  17
ENDBRANCH  13  14
ENDBRANCH   1  13
TORSDOF 7
ENDMDL
MODEL 8
REMARK VINA RESULT:      -6.1      2.773      3.821
REMARK  Name = 
REMARK  9 active torsions:
REMARK  status: ('A' for Active; 'I' for Inactive)
REMARK    1  A    between atoms: C_1  and  O_2
REMARK    2  A    between atoms: O_2  and  C_3
REMARK    3  A    between atoms: C_3  and  C_4
REMARK    4  A    between atoms: N_6  and  C_7
REMARK    5  A    between atoms: C_7  and  C_8
REMARK    6  A    between atoms: C_8  and  N_9
REMARK    7  A    between atoms: N_9  and  S_10
REMARK    8  A    between atoms: S_10  and  C_13
REMARK    9  A    between atoms: C_16  and  C_17
REMARK                            x       y       z     vdW  Elec       q    Type
REMARK                         _______ _______ _______ _____ _____    ______ ____
ROOT
ATOM      1  N   UNL     1       7.679   4.844  16.713  0.00  0.00    +0.000 NA
ATOM      2  H   UNL     1       8.532   5.096  16.213  0.00  0.00    +0.000 HD
ENDROOT
BRANCH   1   3
ATOM      3  S   UNL     1       7.179   6.167  17.638  0.00  0.00    +0.000 S 
ATOM      4  O   UNL     1       8.026   6.178  18.813  0.00  0.00    +0.000 OA
ATOM      5  O   UNL     1       7.097   7.308  16.755  0.00  0.00    +0.000 OA
BRANCH   3   6
ATOM      6  C   UNL     1       5.547   5.719  18.159  0.00  0.00    +0.000 A 
ATOM      7  C   UNL     1       5.375   4.731  19.132  0.00  0.00    +0.000 A 
ATOM      8  C   UNL     1       4.086   4.409  19.563  0.00  0.00    +0.000 A 
ATOM      9  C   UNL     1       2.972   5.074  19.031  0.00  0.00    +0.000 A 
ATOM     10  C   UNL     1       1.583   4.759  19.508  0.00  0.00    +0.000 C 
ATOM     11  C   UNL     1       3.160   6.057  18.051  0.00  0.00    +0.000 A 
ATOM     12  C   UNL     1       4.445   6.382  17.613  0.00  0.00    +0.000 A 
ENDBRANCH   3   6
ENDBRANCH   1   3
BRANCH   1  13
ATOM     13  C   UNL     1       6.644   4.155  15.920  0.00  0.00    +0.000 C 
BRANCH  13  14
ATOM     14  C   UNL     1       6.591   4.735  14.500  0.00  0.00    +0.000 C 
BRANCH  14  17
ATOM     15  C   UNL     1       6.129   3.475  12.431  0.00  0.00    +0.000 C 
ATOM     16  O   UNL     1       7.300   3.502  12.064  0.00  0.00    +0.000 OA
ATOM     17  N   UNL     1       5.695   3.994  13.633  0.00  0.00    +0.000 N 
ATOM     18  H   UNL     1       4.693   4.048  13.789  0.00  0.00    +0.000 HD
BRANCH  15  19
ATOM     19  C   UNL     1       5.008   2.883  11.576  0.00  0.00    +0.000 C 
BRANCH  19  21
ATOM     20  C   UNL     1       3.183   3.391  10.168  0.00  0.00    +0.000 C 
ATOM     21  O   UNL     1       3.982   3.824  11.265  0.00  0.00    +0.000 OA
ENDBRANCH  19  21
ENDBRANCH  15  19
ENDBRANCH  14  17
ENDBRANCH  13  14
ENDBRANCH   1  13
TORSDOF 7
ENDMDL
MODEL 9
REMARK VINA RESULT:      -6.1      2.511      3.373
REMARK  Name = 
REMARK  9 active torsions:
REMARK  status: ('A' for Active; 'I' for Inactive)
REMARK    1  A    between atoms: C_1  and  O_2
REMARK    2  A    between atoms: O_2  and  C_3
REMARK    3  A    between atoms: C_3  and  C_4
REMARK    4  A    between atoms: N_6  and  C_7
REMARK    5  A    between atoms: C_7  and  C_8
REMARK    6  A    between atoms: C_8  and  N_9
REMARK    7  A    between atoms: N_9  and  S_10
REMARK    8  A    between atoms: S_10  and  C_13
REMARK    9  A    between atoms: C_16  and  C_17
REMARK                            x       y       z     vdW  Elec       q    Type
REMARK                         _______ _______ _______ _____ _____    ______ ____
ROOT
ATOM      1  N   UNL     1       7.141   4.361  17.272  0.00  0.00    +0.000 NA
ATOM      2  H   UNL     1       8.075   4.578  16.924  0.00  0.00    +0.000 HD
ENDROOT
BRANCH   1   3
ATOM      3  S   UNL     1       6.687   5.542  18.391  0.00  0.00    +0.000 S 
ATOM      4  O   UNL     1       7.532   5.344  19.550  0.00  0.00    +0.000 OA
ATOM      5  O   UNL     1       6.645   6.807  17.694  0.00  0.00    +0.000 OA
BRANCH   3   6
ATOM      6  C   UNL     1       5.040   5.077  18.845  0.00  0.00    +0.000 A 
ATOM      7  C   UNL     1       3.968   5.913  18.523  0.00  0.00    +0.000 A 
ATOM      8  C   UNL     1       2.669   5.521  18.852  0.00  0.00    +0.000 A 
ATOM      9  C   UNL     1       2.436   4.296  19.494  0.00  0.00    +0.000 A 
ATOM     10  C   UNL     1       1.042   3.849  19.825  0.00  0.00    +0.000 C 
ATOM     11  C   UNL     1       3.522   3.471  19.816  0.00  0.00    +0.000 A 
ATOM     12  C   UNL     1       4.823   3.858  19.493  0.00  0.00    +0.000 A 
ENDBRANCH   3   6
ENDBRANCH   1   3
BRANCH   1  13
ATOM     13  C   UNL     1       6.142   3.987  16.253  0.00  0.00    +0.000 C 
BRANCH  13  14
ATOM     14  C   UNL     1       6.694   4.260  14.847  0.00  0.00    +0.000 C 
BRANCH  14  17
ATOM     15  C   UNL     1       6.302   3.662  12.486  0.00  0.00    +0.000 C 
ATOM     16  O   UNL     1       7.274   4.295  12.087  0.00  0.00    +0.000 OA
ATOM     17  N   UNL     1       5.973   3.532  13.819  0.00  0.00    +0.000 N 
ATOM     18  H   UNL     1       5.079   3.108  14.045  0.00  0.00    +0.000 HD
BRANCH  15  19
ATOM     19  C   UNL     1       5.324   2.963  11.541  0.00  0.00    +0.000 C 
BRANCH  19  21
ATOM     20  C   UNL     1       6.849   1.267  10.931  0.00  0.00    +0.000 C 
ATOM     21  O   UNL     1       5.549   1.558  11.438  0.00  0.00    +0.000 OA
ENDBRANCH  19  21
ENDBRANCH  15  19
ENDBRANCH  14  17
ENDBRANCH  13  14
ENDBRANCH   1  13
TORSDOF 7
ENDMDL
