MODEL 1
REMARK VINA RESULT:      -7.5      0.000      0.000
REMARK  Name = 
REMARK  5 active torsions:
REMARK  status: ('A' for Active; 'I' for Inactive)
REMARK    1  A    between atoms: C_1  and  O_2
REMARK    2  A    between atoms: O_2  and  C_3
REMARK    3  A    between atoms: C_5  and  C_6
REMARK    4  A    between atoms: N_13  and  C_14
REMARK    5  A    between atoms: C_20  and  C_21
REMARK                            x       y       z     vdW  Elec       q    Type
REMARK                         _______ _______ _______ _____ _____    ______ ____
ROOT
ATOM      1  C   UNL     1       1.647   8.345  19.979  0.00  0.00    +0.000 A 
ATOM      2  C   UNL     1       2.354   7.173  19.628  0.00  0.00    +0.000 A 
ATOM      3  C   UNL     1       2.799   6.955  18.320  0.00  0.00    +0.000 A 
ATOM      4  C   UNL     1       2.463   7.885  17.356  0.00  0.00    +0.000 A 
ATOM      5  C   UNL     1       1.912   9.105  17.720  0.00  0.00    +0.000 A 
ATOM      6  C   UNL     1       1.434   9.370  19.014  0.00  0.00    +0.000 A 
ENDROOT
BRANCH   3   7
ATOM      7  C   UNL     1       3.629   5.749  18.027  0.00  0.00    +0.000 C 
ATOM      8  O   UNL     1       3.080   4.648  18.069  0.00  0.00    +0.000 OA
ATOM      9  N   UNL     1       4.988   5.881  17.756  0.00  0.00    +0.000 N 
ATOM     10  C   UNL     1       5.834   7.059  17.952  0.00  0.00    +0.000 C 
ATOM     11  C   UNL     1       7.272   6.576  17.828  0.00  0.00    +0.000 C 
ATOM     12  C   UNL     1       7.144   5.271  17.067  0.00  0.00    +0.000 C 
ATOM     13  C   UNL     1       6.911   5.434  15.563  0.00  0.00    +0.000 C 
ATOM     14  N   UNL     1       6.116   4.242  15.194  0.00  0.00    +0.000 N 
ATOM     15  C   UNL     1       5.411   3.741  16.412  0.00  0.00    +0.000 C 
ATOM     16  C   UNL     1       5.815   4.691  17.545  0.00  0.00    +0.000 C 
BRANCH  14  17
ATOM     17  C   UNL     1       5.809   3.886  13.949  0.00  0.00    +0.000 C 
ATOM     18  N   UNL     1       5.537   3.574  12.871  0.00  0.00    +0.000 NA
ENDBRANCH  14  17
ENDBRANCH   3   7
BRANCH   6  19
ATOM     19  C   UNL     1       0.805  10.710  19.271  0.00  0.00    +0.000 A 
ATOM     20  C   UNL     1       1.509  11.693  19.992  0.00  0.00    +0.000 A 
ATOM     21  C   UNL     1       0.988  12.978  20.127  0.00  0.00    +0.000 A 
ATOM     22  N   UNL     1      -0.159  13.387  19.566  0.00  0.00    +0.000 NA
ATOM     23  C   UNL     1      -0.849  12.448  18.888  0.00  0.00    +0.000 A 
ATOM     24  C   UNL     1      -0.450  11.120  18.751  0.00  0.00    +0.000 A 
ATOM     25 CL   UNL     1      -1.608  10.083  17.982  0.00  0.00    +0.000 Cl
ENDBRANCH   6  19
BRANCH   1  27
ATOM     26  C   UNL     1      -0.238   8.306  21.460  0.00  0.00    +0.000 C 
ATOM     27  O   UNL     1       1.154   8.542  21.249  0.00  0.00    +0.000 OA
ENDBRANCH   1  27
TORSDOF 4
ENDMDL
MODEL 2
REMARK VINA RESULT:      -7.5      2.322      3.423
REMARK  Name = 
REMARK  5 active torsions:
REMARK  status: ('A' for Active; 'I' for Inactive)
REMARK    1  A    between atoms: C_1  and  O_2
REMARK    2  A    between atoms: O_2  and  C_3
REMARK    3  A    between atoms: C_5  and  C_6
REMARK    4  A    between atoms: N_13  and  C_14
REMARK    5  A    between atoms: C_20  and  C_21
REMARK                            x       y       z     vdW  Elec       q    Type
REMARK                         _______ _______ _______ _____ _____    ______ ____
ROOT
ATOM      1  C   UNL     1       1.374   8.514  20.421  0.00  0.00    +0.000 A 
ATOM      2  C   UNL     1       2.135   7.400  20.002  0.00  0.00    +0.000 A 
ATOM      3  C   UNL     1       2.574   7.272  18.680  0.00  0.00    +0.000 A 
ATOM      4  C   UNL     1       2.178   8.232  17.769  0.00  0.00    +0.000 A 
ATOM      5  C   UNL     1       1.571   9.402  18.202  0.00  0.00    +0.000 A 
ATOM      6  C   UNL     1       1.097   9.575  19.513  0.00  0.00    +0.000 A 
ENDROOT
BRANCH   3   7
ATOM      7  C   UNL     1       3.460   6.128  18.316  0.00  0.00    +0.000 C 
ATOM      8  O   UNL     1       4.673   6.334  18.260  0.00  0.00    +0.000 OA
ATOM      9  N   UNL     1       2.912   4.885  18.012  0.00  0.00    +0.000 N 
ATOM     10  C   UNL     1       1.510   4.560  17.751  0.00  0.00    +0.000 C 
ATOM     11  C   UNL     1       1.501   3.163  17.146  0.00  0.00    +0.000 C 
ATOM     12  C   UNL     1       2.836   2.584  17.572  0.00  0.00    +0.000 C 
ATOM     13  C   UNL     1       2.889   2.114  19.028  0.00  0.00    +0.000 C 
ATOM     14  N   UNL     1       4.302   2.312  19.416  0.00  0.00    +0.000 N 
ATOM     15  C   UNL     1       4.901   3.354  18.529  0.00  0.00    +0.000 C 
ATOM     16  C   UNL     1       3.778   3.785  17.579  0.00  0.00    +0.000 C 
BRANCH  14  17
ATOM     17  C   UNL     1       4.845   1.897  20.558  0.00  0.00    +0.000 C 
ATOM     18  N   UNL     1       5.318   1.542  21.550  0.00  0.00    +0.000 NA
ENDBRANCH  14  17
ENDBRANCH   3   7
BRANCH   6  19
ATOM     19  C   UNL     1       0.405  10.867  19.845  0.00  0.00    +0.000 A 
ATOM     20  C   UNL     1       1.039  11.816  20.668  0.00  0.00    +0.000 A 
ATOM     21  C   UNL     1       0.461  13.066  20.880  0.00  0.00    +0.000 A 
ATOM     22  N   UNL     1      -0.679  13.474  20.305  0.00  0.00    +0.000 NA
ATOM     23  C   UNL     1      -1.304  12.565  19.529  0.00  0.00    +0.000 A 
ATOM     24  C   UNL     1      -0.846  11.268  19.308  0.00  0.00    +0.000 A 
ATOM     25 CL   UNL     1      -1.931  10.250  18.415  0.00  0.00    +0.000 Cl
ENDBRANCH   6  19
BRANCH   1  27
ATOM     26  C   UNL     1      -0.518   8.462  21.892  0.00  0.00    +0.000 C 
ATOM     27  O   UNL     1       0.888   8.620  21.704  0.00  0.00    +0.000 OA
ENDBRANCH   1  27
TORSDOF 4
ENDMDL
MODEL 3
REMARK VINA RESULT:      -7.3      2.116      8.508
REMARK  Name = 
REMARK  5 active torsions:
REMARK  status: ('A' for Active; 'I' for Inactive)
REMARK    1  A    between atoms: C_1  and  O_2
REMARK    2  A    between atoms: O_2  and  C_3
REMARK    3  A    between atoms: C_5  and  C_6
REMARK    4  A    between atoms: N_13  and  C_14
REMARK    5  A    between atoms: C_20  and  C_21
REMARK                            x       y       z     vdW  Elec       q    Type
REMARK                         _______ _______ _______ _____ _____    ______ ____
ROOT
ATOM      1  C   UNL     1       2.688   6.584  19.612  0.00  0.00    +0.000 A 
ATOM      2  C   UNL     1       1.867   7.581  20.187  0.00  0.00    +0.000 A 
ATOM      3  C   UNL     1       1.579   8.768  19.506  0.00  0.00    +0.000 A 
ATOM      4  C   UNL     1       2.182   8.978  18.281  0.00  0.00    +0.000 A 
ATOM      5  C   UNL     1       2.855   7.945  17.645  0.00  0.00    +0.000 A 
ATOM      6  C   UNL     1       3.184   6.739  18.288  0.00  0.00    +0.000 A 
ENDROOT
BRANCH   3   7
ATOM      7  C   UNL     1       0.626   9.742  20.115  0.00  0.00    +0.000 C 
ATOM      8  O   UNL     1       0.692   9.929  21.331  0.00  0.00    +0.000 OA
ATOM      9  N   UNL     1      -0.328  10.378  19.325  0.00  0.00    +0.000 N 
ATOM     10  C   UNL     1      -0.721  10.054  17.954  0.00  0.00    +0.000 C 
ATOM     11  C   UNL     1      -2.013  10.815  17.690  0.00  0.00    +0.000 C 
ATOM     12  C   UNL     1      -1.996  11.915  18.733  0.00  0.00    +0.000 C 
ATOM     13  C   UNL     1      -1.065  13.085  18.408  0.00  0.00    +0.000 C 
ATOM     14  N   UNL     1      -0.639  13.581  19.735  0.00  0.00    +0.000 N 
ATOM     15  C   UNL     1      -0.780  12.474  20.729  0.00  0.00    +0.000 C 
ATOM     16  C   UNL     1      -1.312  11.274  19.938  0.00  0.00    +0.000 C 
BRANCH  14  17
ATOM     17  C   UNL     1       0.063  14.692  19.945  0.00  0.00    +0.000 C 
ATOM     18  N   UNL     1       0.677  15.654  20.124  0.00  0.00    +0.000 NA
ENDBRANCH  14  17
ENDBRANCH   3   7
BRANCH   6  19
ATOM     19  C   UNL     1       3.966   5.719  17.510  0.00  0.00    +0.000 A 
ATOM     20  C   UNL     1       5.272   6.012  17.074  0.00  0.00    +0.000 A 
ATOM     21  C   UNL     1       6.050   5.031  16.463  0.00  0.00    +0.000 A 
ATOM     22  N   UNL     1       5.656   3.762  16.286  0.00  0.00    +0.000 NA
ATOM     23  C   UNL     1       4.400   3.475  16.684  0.00  0.00    +0.000 A 
ATOM     24  C   UNL     1       3.519   4.399  17.243  0.00  0.00    +0.000 A 
ATOM     25 CL   UNL     1       1.907   3.811  17.499  0.00  0.00    +0.000 Cl
ENDBRANCH   6  19
BRANCH   1  27
ATOM     26  C   UNL     1       1.970   4.714  20.930  0.00  0.00    +0.000 C 
ATOM     27  O   UNL     1       3.024   5.439  20.297  0.00  0.00    +0.000 OA
ENDBRANCH   1  27
TORSDOF 4
ENDMDL
MODEL 4
REMARK VINA RESULT:      -7.3      2.637      3.892
REMARK  Name = 
REMARK  5 active torsions:
REMARK  status: ('A' for Active; 'I' for Inactive)
REMARK    1  A    between atoms: C_1  and  O_2
REMARK    2  A    between atoms: O_2  and  C_3
REMARK    3  A    between atoms: C_5  and  C_6
REMARK    4  A    between atoms: N_13  and  C_14
REMARK    5  A    between atoms: C_20  and  C_21
REMARK                            x       y       z     vdW  Elec       q    Type
REMARK                         _______ _______ _______ _____ _____    ______ ____
ROOT
ATOM      1  C   UNL     1       1.774   9.493  18.392  0.00  0.00    +0.000 A 
ATOM      2  C   UNL     1       2.582   8.384  18.052  0.00  0.00    +0.000 A 
ATOM      3  C   UNL     1       2.714   7.289  18.912  0.00  0.00    +0.000 A 
ATOM      4  C   UNL     1       2.092   7.352  20.144  0.00  0.00    +0.000 A 
ATOM      5  C   UNL     1       1.175   8.357  20.417  0.00  0.00    +0.000 A 
ATOM      6  C   UNL     1       1.016   9.486  19.596  0.00  0.00    +0.000 A 
ENDROOT
BRANCH   3   7
ATOM      7  C   UNL     1       3.496   6.101  18.461  0.00  0.00    +0.000 C 
ATOM      8  O   UNL     1       4.706   6.243  18.279  0.00  0.00    +0.000 OA
ATOM      9  N   UNL     1       2.856   4.889  18.220  0.00  0.00    +0.000 N 
ATOM     10  C   UNL     1       1.419   4.638  18.107  0.00  0.00    +0.000 C 
ATOM     11  C   UNL     1       1.274   3.245  17.510  0.00  0.00    +0.000 C 
ATOM     12  C   UNL     1       2.614   2.596  17.797  0.00  0.00    +0.000 C 
ATOM     13  C   UNL     1       2.793   2.121  19.241  0.00  0.00    +0.000 C 
ATOM     14  N   UNL     1       4.247   2.243  19.480  0.00  0.00    +0.000 N 
ATOM     15  C   UNL     1       4.805   3.255  18.532  0.00  0.00    +0.000 C 
ATOM     16  C   UNL     1       3.613   3.747  17.703  0.00  0.00    +0.000 C 
BRANCH  14  17
ATOM     17  C   UNL     1       4.883   1.798  20.561  0.00  0.00    +0.000 C 
ATOM     18  N   UNL     1       5.433   1.406  21.497  0.00  0.00    +0.000 NA
ENDBRANCH  14  17
ENDBRANCH   3   7
BRANCH   6  19
ATOM     19  C   UNL     1       0.032  10.537  20.028  0.00  0.00    +0.000 A 
ATOM     20  C   UNL     1       0.278  11.301  21.184  0.00  0.00    +0.000 A 
ATOM     21  C   UNL     1      -0.563  12.359  21.523  0.00  0.00    +0.000 A 
ATOM     22  N   UNL     1      -1.610  12.754  20.784  0.00  0.00    +0.000 NA
ATOM     23  C   UNL     1      -1.864  12.017  19.684  0.00  0.00    +0.000 A 
ATOM     24  C   UNL     1      -1.126  10.901  19.294  0.00  0.00    +0.000 A 
ATOM     25 CL   UNL     1      -1.775  10.031  17.940  0.00  0.00    +0.000 Cl
ENDBRANCH   6  19
BRANCH   1  27
ATOM     26  C   UNL     1       2.470  11.740  17.927  0.00  0.00    +0.000 C 
ATOM     27  O   UNL     1       1.685  10.600  17.579  0.00  0.00    +0.000 OA
ENDBRANCH   1  27
TORSDOF 4
ENDMDL
MODEL 5
REMARK VINA RESULT:      -7.2      2.455      8.745
REMARK  Name = 
REMARK  5 active torsions:
REMARK  status: ('A' for Active; 'I' for Inactive)
REMARK    1  A    between atoms: C_1  and  O_2
REMARK    2  A    between atoms: O_2  and  C_3
REMARK    3  A    between atoms: C_5  and  C_6
REMARK    4  A    between atoms: N_13  and  C_14
REMARK    5  A    between atoms: C_20  and  C_21
REMARK                            x       y       z     vdW  Elec       q    Type
REMARK                         _______ _______ _______ _____ _____    ______ ____
ROOT
ATOM      1  C   UNL     1       2.042   7.565  19.723  0.00  0.00    +0.000 A 
ATOM      2  C   UNL     1       1.152   8.645  19.919  0.00  0.00    +0.000 A 
ATOM      3  C   UNL     1       0.946   9.608  18.926  0.00  0.00    +0.000 A 
ATOM      4  C   UNL     1       1.696   9.519  17.769  0.00  0.00    +0.000 A 
ATOM      5  C   UNL     1       2.447   8.383  17.505  0.00  0.00    +0.000 A 
ATOM      6  C   UNL     1       2.698   7.395  18.472  0.00  0.00    +0.000 A 
ENDROOT
BRANCH   3   7
ATOM      7  C   UNL     1      -0.080  10.670  19.145  0.00  0.00    +0.000 C 
ATOM      8  O   UNL     1      -1.187  10.517  18.628  0.00  0.00    +0.000 OA
ATOM      9  N   UNL     1       0.236  11.810  19.879  0.00  0.00    +0.000 N 
ATOM     10  C   UNL     1       1.558  12.271  20.300  0.00  0.00    +0.000 C 
ATOM     11  C   UNL     1       1.381  13.711  20.763  0.00  0.00    +0.000 C 
ATOM     12  C   UNL     1      -0.103  13.808  21.058  0.00  0.00    +0.000 C 
ATOM     13  C   UNL     1      -0.531  13.172  22.383  0.00  0.00    +0.000 C 
ATOM     14  N   UNL     1      -1.916  12.719  22.131  0.00  0.00    +0.000 N 
ATOM     15  C   UNL     1      -2.098  12.528  20.660  0.00  0.00    +0.000 C 
ATOM     16  C   UNL     1      -0.748  12.886  20.026  0.00  0.00    +0.000 C 
BRANCH  14  17
ATOM     17  C   UNL     1      -2.742  12.238  23.057  0.00  0.00    +0.000 C 
ATOM     18  N   UNL     1      -3.462  11.826  23.859  0.00  0.00    +0.000 NA
ENDBRANCH  14  17
ENDBRANCH   3   7
BRANCH   6  19
ATOM     19  C   UNL     1       3.575   6.238  18.083  0.00  0.00    +0.000 A 
ATOM     20  C   UNL     1       4.975   6.382  18.082  0.00  0.00    +0.000 A 
ATOM     21  C   UNL     1       5.798   5.284  17.844  0.00  0.00    +0.000 A 
ATOM     22  N   UNL     1       5.349   4.036  17.650  0.00  0.00    +0.000 NA
ATOM     23  C   UNL     1       4.009   3.890  17.632  0.00  0.00    +0.000 A 
ATOM     24  C   UNL     1       3.099   4.934  17.791  0.00  0.00    +0.000 A 
ATOM     25 CL   UNL     1       1.437   4.500  17.547  0.00  0.00    +0.000 Cl
ENDBRANCH   6  19
BRANCH   1  27
ATOM     26  C   UNL     1       1.403   5.538  20.833  0.00  0.00    +0.000 C 
ATOM     27  O   UNL     1       2.296   6.646  20.716  0.00  0.00    +0.000 OA
ENDBRANCH   1  27
TORSDOF 4
ENDMDL
MODEL 6
REMARK VINA RESULT:      -7.2      1.275      1.839
REMARK  Name = 
REMARK  5 active torsions:
REMARK  status: ('A' for Active; 'I' for Inactive)
REMARK    1  A    between atoms: C_1  and  O_2
REMARK    2  A    between atoms: O_2  and  C_3
REMARK    3  A    between atoms: C_5  and  C_6
REMARK    4  A    between atoms: N_13  and  C_14
REMARK    5  A    between atoms: C_20  and  C_21
REMARK                            x       y       z     vdW  Elec       q    Type
REMARK                         _______ _______ _______ _____ _____    ______ ____
ROOT
ATOM      1  C   UNL     1       1.931   8.918  18.273  0.00  0.00    +0.000 A 
ATOM      2  C   UNL     1       2.640   7.747  17.923  0.00  0.00    +0.000 A 
ATOM      3  C   UNL     1       2.768   6.678  18.817  0.00  0.00    +0.000 A 
ATOM      4  C   UNL     1       2.244   6.827  20.087  0.00  0.00    +0.000 A 
ATOM      5  C   UNL     1       1.415   7.899  20.382  0.00  0.00    +0.000 A 
ATOM      6  C   UNL     1       1.265   9.005  19.528  0.00  0.00    +0.000 A 
ENDROOT
BRANCH   3   7
ATOM      7  C   UNL     1       3.439   5.426  18.361  0.00  0.00    +0.000 C 
ATOM      8  O   UNL     1       2.730   4.451  18.108  0.00  0.00    +0.000 OA
ATOM      9  N   UNL     1       4.827   5.366  18.270  0.00  0.00    +0.000 N 
ATOM     10  C   UNL     1       5.805   6.315  18.801  0.00  0.00    +0.000 C 
ATOM     11  C   UNL     1       7.157   5.620  18.729  0.00  0.00    +0.000 C 
ATOM     12  C   UNL     1       6.941   4.531  17.697  0.00  0.00    +0.000 C 
ATOM     13  C   UNL     1       6.948   5.020  16.246  0.00  0.00    +0.000 C 
ATOM     14  N   UNL     1       6.041   4.082  15.549  0.00  0.00    +0.000 N 
ATOM     15  C   UNL     1       5.106   3.486  16.550  0.00  0.00    +0.000 C 
ATOM     16  C   UNL     1       5.486   4.112  17.896  0.00  0.00    +0.000 C 
BRANCH  14  17
ATOM     17  C   UNL     1       5.860   4.034  14.231  0.00  0.00    +0.000 C 
ATOM     18  N   UNL     1       5.703   3.986  13.089  0.00  0.00    +0.000 NA
ENDBRANCH  14  17
ENDBRANCH   3   7
BRANCH   6  19
ATOM     19  C   UNL     1       0.383  10.132  19.986  0.00  0.00    +0.000 A 
ATOM     20  C   UNL     1       0.710  10.858  21.146  0.00  0.00    +0.000 A 
ATOM     21  C   UNL     1      -0.029  11.981  21.508  0.00  0.00    +0.000 A 
ATOM     22  N   UNL     1      -1.047  12.476  20.789  0.00  0.00    +0.000 NA
ATOM     23  C   UNL     1      -1.380  11.777  19.685  0.00  0.00    +0.000 A 
ATOM     24  C   UNL     1      -0.749  10.605  19.272  0.00  0.00    +0.000 A 
ATOM     25 CL   UNL     1      -1.490   9.812  17.919  0.00  0.00    +0.000 Cl
ENDBRANCH   6  19
BRANCH   1  27
ATOM     26  C   UNL     1       2.558  11.181  17.790  0.00  0.00    +0.000 C 
ATOM     27  O   UNL     1       1.849   9.997  17.423  0.00  0.00    +0.000 OA
ENDBRANCH   1  27
TORSDOF 4
ENDMDL
MODEL 7
REMARK VINA RESULT:      -7.1      2.389      8.503
REMARK  Name = 
REMARK  5 active torsions:
REMARK  status: ('A' for Active; 'I' for Inactive)
REMARK    1  A    between atoms: C_1  and  O_2
REMARK    2  A    between atoms: O_2  and  C_3
REMARK    3  A    between atoms: C_5  and  C_6
REMARK    4  A    between atoms: N_13  and  C_14
REMARK    5  A    between atoms: C_20  and  C_21
REMARK                            x       y       z     vdW  Elec       q    Type
REMARK                         _______ _______ _______ _____ _____    ______ ____
ROOT
ATOM      1  C   UNL     1       3.614   5.856  19.175  0.00  0.00    +0.000 A 
ATOM      2  C   UNL     1       2.676   6.641  19.881  0.00  0.00    +0.000 A 
ATOM      3  C   UNL     1       2.239   7.874  19.386  0.00  0.00    +0.000 A 
ATOM      4  C   UNL     1       2.808   8.345  18.219  0.00  0.00    +0.000 A 
ATOM      5  C   UNL     1       3.605   7.515  17.443  0.00  0.00    +0.000 A 
ATOM      6  C   UNL     1       4.085   6.276  17.899  0.00  0.00    +0.000 A 
ENDROOT
BRANCH   3   7
ATOM      7  C   UNL     1       1.171   8.615  20.121  0.00  0.00    +0.000 C 
ATOM      8  O   UNL     1       1.038   8.391  21.325  0.00  0.00    +0.000 OA
ATOM      9  N   UNL     1       0.333   9.496  19.442  0.00  0.00    +0.000 N 
ATOM     10  C   UNL     1       0.171   9.649  17.997  0.00  0.00    +0.000 C 
ATOM     11  C   UNL     1      -1.086  10.483  17.794  0.00  0.00    +0.000 C 
ATOM     12  C   UNL     1      -1.268  11.178  19.129  0.00  0.00    +0.000 C 
ATOM     13  C   UNL     1      -0.335  12.369  19.359  0.00  0.00    +0.000 C 
ATOM     14  N   UNL     1      -0.139  12.392  20.824  0.00  0.00    +0.000 N 
ATOM     15  C   UNL     1      -0.400  11.024  21.365  0.00  0.00    +0.000 C 
ATOM     16  C   UNL     1      -0.762  10.162  20.150  0.00  0.00    +0.000 C 
BRANCH  14  17
ATOM     17  C   UNL     1       0.486  13.357  21.496  0.00  0.00    +0.000 C 
ATOM     18  N   UNL     1       1.022  14.196  22.079  0.00  0.00    +0.000 NA
ENDBRANCH  14  17
ENDBRANCH   3   7
BRANCH   6  19
ATOM     19  C   UNL     1       4.988   5.494  16.987  0.00  0.00    +0.000 A 
ATOM     20  C   UNL     1       4.490   4.382  16.283  0.00  0.00    +0.000 A 
ATOM     21  C   UNL     1       5.282   3.728  15.343  0.00  0.00    +0.000 A 
ATOM     22  N   UNL     1       6.522   4.113  15.006  0.00  0.00    +0.000 NA
ATOM     23  C   UNL     1       7.015   5.167  15.687  0.00  0.00    +0.000 A 
ATOM     24  C   UNL     1       6.330   5.847  16.693  0.00  0.00    +0.000 A 
ATOM     25 CL   UNL     1       7.262   7.049  17.528  0.00  0.00    +0.000 Cl
ENDBRANCH   6  19
BRANCH   1  27
ATOM     26  C   UNL     1       3.204   3.555  19.707  0.00  0.00    +0.000 C 
ATOM     27  O   UNL     1       4.095   4.670  19.681  0.00  0.00    +0.000 OA
ENDBRANCH   1  27
TORSDOF 4
ENDMDL
MODEL 8
REMARK VINA RESULT:      -7.1      2.285      8.508
REMARK  Name = 
REMARK  5 active torsions:
REMARK  status: ('A' for Active; 'I' for Inactive)
REMARK    1  A    between atoms: C_1  and  O_2
REMARK    2  A    between atoms: O_2  and  C_3
REMARK    3  A    between atoms: C_5  and  C_6
REMARK    4  A    between atoms: N_13  and  C_14
REMARK    5  A    between atoms: C_20  and  C_21
REMARK                            x       y       z     vdW  Elec       q    Type
REMARK                         _______ _______ _______ _____ _____    ______ ____
ROOT
ATOM      1  C   UNL     1       2.848   6.489  19.542  0.00  0.00    +0.000 A 
ATOM      2  C   UNL     1       1.987   7.480  20.064  0.00  0.00    +0.000 A 
ATOM      3  C   UNL     1       1.729   8.663  19.363  0.00  0.00    +0.000 A 
ATOM      4  C   UNL     1       2.402   8.875  18.175  0.00  0.00    +0.000 A 
ATOM      5  C   UNL     1       3.120   7.846  17.583  0.00  0.00    +0.000 A 
ATOM      6  C   UNL     1       3.421   6.645  18.249  0.00  0.00    +0.000 A 
ENDROOT
BRANCH   3   7
ATOM      7  C   UNL     1       0.733   9.630  19.911  0.00  0.00    +0.000 C 
ATOM      8  O   UNL     1       0.805   9.915  21.108  0.00  0.00    +0.000 OA
ATOM      9  N   UNL     1      -0.264  10.151  19.092  0.00  0.00    +0.000 N 
ATOM     10  C   UNL     1      -0.658   9.700  17.757  0.00  0.00    +0.000 C 
ATOM     11  C   UNL     1      -1.992  10.369  17.457  0.00  0.00    +0.000 C 
ATOM     12  C   UNL     1      -2.021  11.546  18.412  0.00  0.00    +0.000 C 
ATOM     13  C   UNL     1      -1.158  12.735  17.981  0.00  0.00    +0.000 C 
ATOM     14  N   UNL     1      -0.742  13.356  19.257  0.00  0.00    +0.000 N 
ATOM     15  C   UNL     1      -0.810  12.324  20.336  0.00  0.00    +0.000 C 
ATOM     16  C   UNL     1      -1.287  11.039  19.650  0.00  0.00    +0.000 C 
BRANCH  14  17
ATOM     17  C   UNL     1      -0.098  14.515  19.368  0.00  0.00    +0.000 C 
ATOM     18  N   UNL     1       0.458  15.523  19.459  0.00  0.00    +0.000 NA
ENDBRANCH  14  17
ENDBRANCH   3   7
BRANCH   6  19
ATOM     19  C   UNL     1       4.257   5.630  17.522  0.00  0.00    +0.000 A 
ATOM     20  C   UNL     1       3.724   4.362  17.222  0.00  0.00    +0.000 A 
ATOM     21  C   UNL     1       4.444   3.461  16.441  0.00  0.00    +0.000 A 
ATOM     22  N   UNL     1       5.637   3.728  15.891  0.00  0.00    +0.000 NA
ATOM     23  C   UNL     1       6.164   4.933  16.187  0.00  0.00    +0.000 A 
ATOM     24  C   UNL     1       5.557   5.878  17.012  0.00  0.00    +0.000 A 
ATOM     25 CL   UNL     1       6.531   7.269  17.371  0.00  0.00    +0.000 Cl
ENDBRANCH   6  19
BRANCH   1  27
ATOM     26  C   UNL     1       2.068   4.591  20.782  0.00  0.00    +0.000 C 
ATOM     27  O   UNL     1       3.154   5.349  20.250  0.00  0.00    +0.000 OA
ENDBRANCH   1  27
TORSDOF 4
ENDMDL
MODEL 9
REMARK VINA RESULT:      -7.1      1.126      1.326
REMARK  Name = 
REMARK  5 active torsions:
REMARK  status: ('A' for Active; 'I' for Inactive)
REMARK    1  A    between atoms: C_1  and  O_2
REMARK    2  A    between atoms: O_2  and  C_3
REMARK    3  A    between atoms: C_5  and  C_6
REMARK    4  A    between atoms: N_13  and  C_14
REMARK    5  A    between atoms: C_20  and  C_21
REMARK                            x       y       z     vdW  Elec       q    Type
REMARK                         _______ _______ _______ _____ _____    ______ ____
ROOT
ATOM      1  C   UNL     1       1.500   8.279  19.909  0.00  0.00    +0.000 A 
ATOM      2  C   UNL     1       2.289   7.150  19.594  0.00  0.00    +0.000 A 
ATOM      3  C   UNL     1       2.840   6.979  18.320  0.00  0.00    +0.000 A 
ATOM      4  C   UNL     1       2.529   7.910  17.348  0.00  0.00    +0.000 A 
ATOM      5  C   UNL     1       1.893   9.095  17.689  0.00  0.00    +0.000 A 
ATOM      6  C   UNL     1       1.308   9.310  18.948  0.00  0.00    +0.000 A 
ENDROOT
BRANCH   3   7
ATOM      7  C   UNL     1       3.748   5.822  18.069  0.00  0.00    +0.000 C 
ATOM      8  O   UNL     1       3.281   4.688  18.184  0.00  0.00    +0.000 OA
ATOM      9  N   UNL     1       5.088   6.035  17.758  0.00  0.00    +0.000 N 
ATOM     10  C   UNL     1       5.850   7.279  17.870  0.00  0.00    +0.000 C 
ATOM     11  C   UNL     1       7.317   6.894  17.735  0.00  0.00    +0.000 C 
ATOM     12  C   UNL     1       7.267   5.544  17.048  0.00  0.00    +0.000 C 
ATOM     13  C   UNL     1       6.991   5.606  15.544  0.00  0.00    +0.000 C 
ATOM     14  N   UNL     1       6.277   4.343  15.259  0.00  0.00    +0.000 N 
ATOM     15  C   UNL     1       5.636   3.860  16.519  0.00  0.00    +0.000 C 
ATOM     16  C   UNL     1       5.995   4.897  17.590  0.00  0.00    +0.000 C 
BRANCH  14  17
ATOM     17  C   UNL     1       5.970   3.898  14.043  0.00  0.00    +0.000 C 
ATOM     18  N   UNL     1       5.700   3.516  12.987  0.00  0.00    +0.000 NA
ENDBRANCH  14  17
ENDBRANCH   3   7
BRANCH   6  19
ATOM     19  C   UNL     1       0.595  10.614  19.179  0.00  0.00    +0.000 A 
ATOM     20  C   UNL     1      -0.702  10.622  19.725  0.00  0.00    +0.000 A 
ATOM     21  C   UNL     1      -1.320  11.825  20.058  0.00  0.00    +0.000 A 
ATOM     22  N   UNL     1      -0.739  13.028  19.935  0.00  0.00    +0.000 NA
ATOM     23  C   UNL     1       0.497  13.032  19.397  0.00  0.00    +0.000 A 
ATOM     24  C   UNL     1       1.175  11.891  18.969  0.00  0.00    +0.000 A 
ATOM     25 CL   UNL     1       2.674  12.196  18.151  0.00  0.00    +0.000 Cl
ENDBRANCH   6  19
BRANCH   1  27
ATOM     26  C   UNL     1       1.658   9.078  22.164  0.00  0.00    +0.000 C 
ATOM     27  O   UNL     1       0.905   8.426  21.142  0.00  0.00    +0.000 OA
ENDBRANCH   1  27
TORSDOF 4
ENDMDL
