MODEL 1
REMARK VINA RESULT:      -8.3      0.000      0.000
REMARK  Name = 
REMARK  5 active torsions:
REMARK  status: ('A' for Active; 'I' for Inactive)
REMARK    1  A    between atoms: C_1  and  C_2
REMARK    2  A    between atoms: C_4  and  C_5
REMARK    3  A    between atoms: N_7  and  C_8
REMARK    4  A    between atoms: N_16  and  C_17
REMARK    5  A    between atoms: C_21  and  C_22
REMARK                            x       y       z     vdW  Elec       q    Type
REMARK                         _______ _______ _______ _____ _____    ______ ____
ROOT
ATOM      1  C   UNL     1       1.851   8.718  17.661  0.00  0.00    +0.000 C 
ATOM      2  C   UNL     1       1.554   8.817  19.114  0.00  0.00    +0.000 A 
ATOM      3  C   UNL     1       0.983   9.867  19.797  0.00  0.00    +0.000 A 
ATOM      4  C   UNL     1       0.766   9.404  21.112  0.00  0.00    +0.000 A 
ATOM      5  N   UNL     1       1.145   8.120  21.244  0.00  0.00    +0.000 NA
ATOM      6  N   UNL     1       1.721   7.804  20.047  0.00  0.00    +0.000 N 
ENDROOT
BRANCH   6   7
ATOM      7  C   UNL     1       2.408   6.567  19.914  0.00  0.00    +0.000 A 
ATOM      8  C   UNL     1       3.566   6.508  19.130  0.00  0.00    +0.000 A 
ATOM      9  C   UNL     1       4.253   5.301  18.986  0.00  0.00    +0.000 A 
ATOM     10  C   UNL     1       3.763   4.140  19.586  0.00  0.00    +0.000 A 
ATOM     11  C   UNL     1       2.580   4.172  20.337  0.00  0.00    +0.000 A 
ATOM     12  C   UNL     1       1.913   5.399  20.507  0.00  0.00    +0.000 A 
BRANCH  11  13
ATOM     13  C   UNL     1       1.992   2.917  20.936  0.00  0.00    +0.000 C 
ATOM     14  F   UNL     1       2.768   2.355  21.902  0.00  0.00    +0.000 F 
ATOM     15  F   UNL     1       0.778   3.138  21.510  0.00  0.00    +0.000 F 
ATOM     16  F   UNL     1       1.792   1.945  20.004  0.00  0.00    +0.000 F 
ENDBRANCH  11  13
ENDBRANCH   6   7
BRANCH   4  17
ATOM     17  C   UNL     1       0.198  10.193  22.217  0.00  0.00    +0.000 C 
ATOM     18  O   UNL     1       0.361   9.843  23.381  0.00  0.00    +0.000 OA
ATOM     19  N   UNL     1      -0.550  11.278  21.786  0.00  0.00    +0.000 N 
ATOM     20  H   UNL     1      -0.655  11.335  20.778  0.00  0.00    +0.000 HD
BRANCH  19  21
ATOM     21  C   UNL     1      -1.271  12.175  22.599  0.00  0.00    +0.000 A 
ATOM     22  C   UNL     1      -2.536  11.883  23.124  0.00  0.00    +0.000 A 
ATOM     23  C   UNL     1      -3.236  12.831  23.875  0.00  0.00    +0.000 A 
ATOM     24  C   UNL     1      -2.673  14.079  24.109  0.00  0.00    +0.000 A 
ATOM     25 CL   UNL     1      -3.556  15.263  24.992  0.00  0.00    +0.000 Cl
ATOM     26  C   UNL     1      -1.403  14.376  23.622  0.00  0.00    +0.000 A 
ATOM     27  C   UNL     1      -0.697  13.420  22.878  0.00  0.00    +0.000 A 
ENDBRANCH  19  21
ENDBRANCH   4  17
TORSDOF 4
ENDMDL
MODEL 2
REMARK VINA RESULT:      -8.2      4.820      6.458
REMARK  Name = 
REMARK  5 active torsions:
REMARK  status: ('A' for Active; 'I' for Inactive)
REMARK    1  A    between atoms: C_1  and  C_2
REMARK    2  A    between atoms: C_4  and  C_5
REMARK    3  A    between atoms: N_7  and  C_8
REMARK    4  A    between atoms: N_16  and  C_17
REMARK    5  A    between atoms: C_21  and  C_22
REMARK                            x       y       z     vdW  Elec       q    Type
REMARK                         _______ _______ _______ _____ _____    ______ ____
ROOT
ATOM      1  C   UNL     1       3.221   2.875  17.441  0.00  0.00    +0.000 C 
ATOM      2  C   UNL     1       3.222   4.355  17.576  0.00  0.00    +0.000 A 
ATOM      3  C   UNL     1       2.346   5.146  18.286  0.00  0.00    +0.000 A 
ATOM      4  C   UNL     1       2.873   6.455  18.232  0.00  0.00    +0.000 A 
ATOM      5  N   UNL     1       4.036   6.482  17.558  0.00  0.00    +0.000 NA
ATOM      6  N   UNL     1       4.187   5.215  17.073  0.00  0.00    +0.000 N 
ENDROOT
BRANCH   6   7
ATOM      7  C   UNL     1       5.228   4.948  16.143  0.00  0.00    +0.000 A 
ATOM      8  C   UNL     1       6.539   5.330  16.454  0.00  0.00    +0.000 A 
ATOM      9  C   UNL     1       7.573   5.078  15.552  0.00  0.00    +0.000 A 
ATOM     10  C   UNL     1       7.300   4.487  14.319  0.00  0.00    +0.000 A 
ATOM     11  C   UNL     1       5.986   4.140  13.972  0.00  0.00    +0.000 A 
ATOM     12  C   UNL     1       4.954   4.364  14.901  0.00  0.00    +0.000 A 
BRANCH  11  13
ATOM     13  C   UNL     1       5.654   3.564  12.616  0.00  0.00    +0.000 C 
ATOM     14  F   UNL     1       6.476   3.994  11.621  0.00  0.00    +0.000 F 
ATOM     15  F   UNL     1       5.723   2.204  12.601  0.00  0.00    +0.000 F 
ATOM     16  F   UNL     1       4.390   3.877  12.219  0.00  0.00    +0.000 F 
ENDBRANCH  11  13
ENDBRANCH   6   7
BRANCH   4  17
ATOM     17  C   UNL     1       2.259   7.651  18.829  0.00  0.00    +0.000 C 
ATOM     18  O   UNL     1       1.962   7.673  20.019  0.00  0.00    +0.000 OA
ATOM     19  N   UNL     1       2.020   8.661  17.908  0.00  0.00    +0.000 N 
ATOM     20  H   UNL     1       2.239   8.407  16.950  0.00  0.00    +0.000 HD
BRANCH  19  21
ATOM     21  C   UNL     1       1.385   9.892  18.161  0.00  0.00    +0.000 A 
ATOM     22  C   UNL     1       2.086  11.092  18.336  0.00  0.00    +0.000 A 
ATOM     23  C   UNL     1       1.412  12.276  18.645  0.00  0.00    +0.000 A 
ATOM     24  C   UNL     1       0.029  12.270  18.779  0.00  0.00    +0.000 A 
ATOM     25 CL   UNL     1      -0.795  13.718  19.207  0.00  0.00    +0.000 Cl
ATOM     26  C   UNL     1      -0.687  11.093  18.577  0.00  0.00    +0.000 A 
ATOM     27  C   UNL     1      -0.011   9.908  18.256  0.00  0.00    +0.000 A 
ENDBRANCH  19  21
ENDBRANCH   4  17
TORSDOF 4
ENDMDL
MODEL 3
REMARK VINA RESULT:      -8.1      3.985      5.363
REMARK  Name = 
REMARK  5 active torsions:
REMARK  status: ('A' for Active; 'I' for Inactive)
REMARK    1  A    between atoms: C_1  and  C_2
REMARK    2  A    between atoms: C_4  and  C_5
REMARK    3  A    between atoms: N_7  and  C_8
REMARK    4  A    between atoms: N_16  and  C_17
REMARK    5  A    between atoms: C_21  and  C_22
REMARK                            x       y       z     vdW  Elec       q    Type
REMARK                         _______ _______ _______ _____ _____    ______ ____
ROOT
ATOM      1  C   UNL     1       3.298   4.207  19.742  0.00  0.00    +0.000 C 
ATOM      2  C   UNL     1       3.161   5.530  19.078  0.00  0.00    +0.000 A 
ATOM      3  C   UNL     1       2.182   6.480  19.265  0.00  0.00    +0.000 A 
ATOM      4  C   UNL     1       2.593   7.613  18.531  0.00  0.00    +0.000 A 
ATOM      5  N   UNL     1       3.786   7.404  17.944  0.00  0.00    +0.000 NA
ATOM      6  N   UNL     1       4.074   6.094  18.199  0.00  0.00    +0.000 N 
ENDROOT
BRANCH   6   7
ATOM      7  C   UNL     1       5.184   5.490  17.549  0.00  0.00    +0.000 A 
ATOM      8  C   UNL     1       6.374   5.298  18.262  0.00  0.00    +0.000 A 
ATOM      9  C   UNL     1       7.475   4.708  17.640  0.00  0.00    +0.000 A 
ATOM     10  C   UNL     1       7.410   4.349  16.293  0.00  0.00    +0.000 A 
ATOM     11  C   UNL     1       6.242   4.577  15.552  0.00  0.00    +0.000 A 
ATOM     12  C   UNL     1       5.125   5.138  16.196  0.00  0.00    +0.000 A 
BRANCH  11  13
ATOM     13  C   UNL     1       6.171   4.262  14.077  0.00  0.00    +0.000 C 
ATOM     14  F   UNL     1       6.429   2.960  13.780  0.00  0.00    +0.000 F 
ATOM     15  F   UNL     1       4.946   4.533  13.549  0.00  0.00    +0.000 F 
ATOM     16  F   UNL     1       7.060   4.994  13.350  0.00  0.00    +0.000 F 
ENDBRANCH  11  13
ENDBRANCH   6   7
BRANCH   4  17
ATOM     17  C   UNL     1       1.845   8.873  18.408  0.00  0.00    +0.000 C 
ATOM     18  O   UNL     1       1.979   9.584  17.417  0.00  0.00    +0.000 OA
ATOM     19  N   UNL     1       1.067   9.160  19.520  0.00  0.00    +0.000 N 
ATOM     20  H   UNL     1       1.177   8.499  20.282  0.00  0.00    +0.000 HD
BRANCH  19  21
ATOM     21  C   UNL     1       0.296  10.319  19.727  0.00  0.00    +0.000 A 
ATOM     22  C   UNL     1       0.704  11.371  20.558  0.00  0.00    +0.000 A 
ATOM     23  C   UNL     1      -0.126  12.473  20.778  0.00  0.00    +0.000 A 
ATOM     24  C   UNL     1      -1.371  12.533  20.165  0.00  0.00    +0.000 A 
ATOM     25 CL   UNL     1      -2.413  13.868  20.475  0.00  0.00    +0.000 Cl
ATOM     26  C   UNL     1      -1.780  11.513  19.311  0.00  0.00    +0.000 A 
ATOM     27  C   UNL     1      -0.943  10.413  19.082  0.00  0.00    +0.000 A 
ENDBRANCH  19  21
ENDBRANCH   4  17
TORSDOF 4
ENDMDL
MODEL 4
REMARK VINA RESULT:      -8.0      5.307      7.340
REMARK  Name = 
REMARK  5 active torsions:
REMARK  status: ('A' for Active; 'I' for Inactive)
REMARK    1  A    between atoms: C_1  and  C_2
REMARK    2  A    between atoms: C_4  and  C_5
REMARK    3  A    between atoms: N_7  and  C_8
REMARK    4  A    between atoms: N_16  and  C_17
REMARK    5  A    between atoms: C_21  and  C_22
REMARK                            x       y       z     vdW  Elec       q    Type
REMARK                         _______ _______ _______ _____ _____    ______ ____
ROOT
ATOM      1  C   UNL     1       7.700   4.424  17.490  0.00  0.00    +0.000 C 
ATOM      2  C   UNL     1       6.310   4.916  17.304  0.00  0.00    +0.000 A 
ATOM      3  C   UNL     1       5.402   5.292  18.268  0.00  0.00    +0.000 A 
ATOM      4  C   UNL     1       4.299   5.834  17.575  0.00  0.00    +0.000 A 
ATOM      5  N   UNL     1       4.513   5.835  16.247  0.00  0.00    +0.000 NA
ATOM      6  N   UNL     1       5.699   5.177  16.086  0.00  0.00    +0.000 N 
ENDROOT
BRANCH   6   7
ATOM      7  C   UNL     1       6.125   4.829  14.776  0.00  0.00    +0.000 A 
ATOM      8  C   UNL     1       7.386   5.245  14.333  0.00  0.00    +0.000 A 
ATOM      9  C   UNL     1       7.821   4.914  13.048  0.00  0.00    +0.000 A 
ATOM     10  C   UNL     1       6.984   4.207  12.185  0.00  0.00    +0.000 A 
ATOM     11  C   UNL     1       5.700   3.822  12.597  0.00  0.00    +0.000 A 
ATOM     12  C   UNL     1       5.283   4.128  13.905  0.00  0.00    +0.000 A 
BRANCH  11  13
ATOM     13  C   UNL     1       4.749   3.118  11.658  0.00  0.00    +0.000 C 
ATOM     14  F   UNL     1       5.216   1.928  11.194  0.00  0.00    +0.000 F 
ATOM     15  F   UNL     1       3.549   2.850  12.243  0.00  0.00    +0.000 F 
ATOM     16  F   UNL     1       4.467   3.865  10.554  0.00  0.00    +0.000 F 
ENDBRANCH  11  13
ENDBRANCH   6   7
BRANCH   4  17
ATOM     17  C   UNL     1       3.065   6.346  18.192  0.00  0.00    +0.000 C 
ATOM     18  O   UNL     1       2.170   5.577  18.526  0.00  0.00    +0.000 OA
ATOM     19  N   UNL     1       3.029   7.729  18.280  0.00  0.00    +0.000 N 
ATOM     20  H   UNL     1       3.823   8.192  17.848  0.00  0.00    +0.000 HD
BRANCH  19  21
ATOM     21  C   UNL     1       1.960   8.511  18.756  0.00  0.00    +0.000 A 
ATOM     22  C   UNL     1       1.190   9.340  17.930  0.00  0.00    +0.000 A 
ATOM     23  C   UNL     1       0.178  10.142  18.463  0.00  0.00    +0.000 A 
ATOM     24  C   UNL     1      -0.074  10.119  19.829  0.00  0.00    +0.000 A 
ATOM     25 CL   UNL     1      -1.288  11.144  20.491  0.00  0.00    +0.000 Cl
ATOM     26  C   UNL     1       0.660   9.279  20.662  0.00  0.00    +0.000 A 
ATOM     27  C   UNL     1       1.667   8.466  20.125  0.00  0.00    +0.000 A 
ENDBRANCH  19  21
ENDBRANCH   4  17
TORSDOF 4
ENDMDL
MODEL 5
REMARK VINA RESULT:      -8.0      2.657      3.732
REMARK  Name = 
REMARK  5 active torsions:
REMARK  status: ('A' for Active; 'I' for Inactive)
REMARK    1  A    between atoms: C_1  and  C_2
REMARK    2  A    between atoms: C_4  and  C_5
REMARK    3  A    between atoms: N_7  and  C_8
REMARK    4  A    between atoms: N_16  and  C_17
REMARK    5  A    between atoms: C_21  and  C_22
REMARK                            x       y       z     vdW  Elec       q    Type
REMARK                         _______ _______ _______ _____ _____    ______ ____
ROOT
ATOM      1  C   UNL     1       5.254   5.938  16.862  0.00  0.00    +0.000 C 
ATOM      2  C   UNL     1       4.080   6.677  17.397  0.00  0.00    +0.000 A 
ATOM      3  C   UNL     1       3.840   8.032  17.366  0.00  0.00    +0.000 A 
ATOM      4  C   UNL     1       2.526   8.206  17.849  0.00  0.00    +0.000 A 
ATOM      5  N   UNL     1       1.953   7.023  18.135  0.00  0.00    +0.000 NA
ATOM      6  N   UNL     1       2.946   6.104  17.954  0.00  0.00    +0.000 N 
ENDROOT
BRANCH   6   7
ATOM      7  C   UNL     1       2.729   4.760  18.362  0.00  0.00    +0.000 A 
ATOM      8  C   UNL     1       2.541   3.771  17.389  0.00  0.00    +0.000 A 
ATOM      9  C   UNL     1       2.324   2.446  17.771  0.00  0.00    +0.000 A 
ATOM     10  C   UNL     1       2.248   2.110  19.123  0.00  0.00    +0.000 A 
ATOM     11  C   UNL     1       2.389   3.095  20.110  0.00  0.00    +0.000 A 
ATOM     12  C   UNL     1       2.643   4.422  19.718  0.00  0.00    +0.000 A 
BRANCH  11  13
ATOM     13  C   UNL     1       2.241   2.769  21.577  0.00  0.00    +0.000 C 
ATOM     14  F   UNL     1       1.033   2.232  21.901  0.00  0.00    +0.000 F 
ATOM     15  F   UNL     1       3.176   1.877  22.005  0.00  0.00    +0.000 F 
ATOM     16  F   UNL     1       2.385   3.869  22.367  0.00  0.00    +0.000 F 
ENDBRANCH  11  13
ENDBRANCH   6   7
BRANCH   4  17
ATOM     17  C   UNL     1       1.840   9.496  18.025  0.00  0.00    +0.000 C 
ATOM     18  O   UNL     1       2.257  10.505  17.467  0.00  0.00    +0.000 OA
ATOM     19  N   UNL     1       0.767   9.430  18.901  0.00  0.00    +0.000 N 
ATOM     20  H   UNL     1       0.649   8.525  19.344  0.00  0.00    +0.000 HD
BRANCH  19  21
ATOM     21  C   UNL     1      -0.038  10.506  19.322  0.00  0.00    +0.000 A 
ATOM     22  C   UNL     1       0.245  11.274  20.459  0.00  0.00    +0.000 A 
ATOM     23  C   UNL     1      -0.619  12.293  20.868  0.00  0.00    +0.000 A 
ATOM     24  C   UNL     1      -1.773  12.554  20.141  0.00  0.00    +0.000 A 
ATOM     25 CL   UNL     1      -2.861  13.776  20.674  0.00  0.00    +0.000 Cl
ATOM     26  C   UNL     1      -2.055  11.822  18.991  0.00  0.00    +0.000 A 
ATOM     27  C   UNL     1      -1.183  10.807  18.574  0.00  0.00    +0.000 A 
ENDBRANCH  19  21
ENDBRANCH   4  17
TORSDOF 4
ENDMDL
MODEL 6
REMARK VINA RESULT:      -8.0      4.471      6.107
REMARK  Name = 
REMARK  5 active torsions:
REMARK  status: ('A' for Active; 'I' for Inactive)
REMARK    1  A    between atoms: C_1  and  C_2
REMARK    2  A    between atoms: C_4  and  C_5
REMARK    3  A    between atoms: N_7  and  C_8
REMARK    4  A    between atoms: N_16  and  C_17
REMARK    5  A    between atoms: C_21  and  C_22
REMARK                            x       y       z     vdW  Elec       q    Type
REMARK                         _______ _______ _______ _____ _____    ______ ____
ROOT
ATOM      1  C   UNL     1       3.442   3.013  17.689  0.00  0.00    +0.000 C 
ATOM      2  C   UNL     1       3.334   4.495  17.660  0.00  0.00    +0.000 A 
ATOM      3  C   UNL     1       2.405   5.294  18.290  0.00  0.00    +0.000 A 
ATOM      4  C   UNL     1       2.832   6.623  18.085  0.00  0.00    +0.000 A 
ATOM      5  N   UNL     1       3.987   6.661  17.396  0.00  0.00    +0.000 NA
ATOM      6  N   UNL     1       4.229   5.363  17.052  0.00  0.00    +0.000 N 
ENDROOT
BRANCH   6   7
ATOM      7  C   UNL     1       5.282   5.072  16.143  0.00  0.00    +0.000 A 
ATOM      8  C   UNL     1       6.592   5.447  16.469  0.00  0.00    +0.000 A 
ATOM      9  C   UNL     1       7.638   5.171  15.587  0.00  0.00    +0.000 A 
ATOM     10  C   UNL     1       7.378   4.562  14.359  0.00  0.00    +0.000 A 
ATOM     11  C   UNL     1       6.067   4.221  13.998  0.00  0.00    +0.000 A 
ATOM     12  C   UNL     1       5.023   4.470  14.906  0.00  0.00    +0.000 A 
BRANCH  11  13
ATOM     13  C   UNL     1       5.751   3.626  12.646  0.00  0.00    +0.000 C 
ATOM     14  F   UNL     1       4.455   3.785  12.266  0.00  0.00    +0.000 F 
ATOM     15  F   UNL     1       6.505   4.171  11.652  0.00  0.00    +0.000 F 
ATOM     16  F   UNL     1       5.991   2.286  12.604  0.00  0.00    +0.000 F 
ENDBRANCH  11  13
ENDBRANCH   6   7
BRANCH   4  17
ATOM     17  C   UNL     1       2.134   7.830  18.554  0.00  0.00    +0.000 C 
ATOM     18  O   UNL     1       1.971   8.788  17.805  0.00  0.00    +0.000 OA
ATOM     19  N   UNL     1       1.767   7.766  19.890  0.00  0.00    +0.000 N 
ATOM     20  H   UNL     1       2.088   6.931  20.368  0.00  0.00    +0.000 HD
BRANCH  19  21
ATOM     21  C   UNL     1       1.149   8.786  20.639  0.00  0.00    +0.000 A 
ATOM     22  C   UNL     1       0.875   8.671  22.008  0.00  0.00    +0.000 A 
ATOM     23  C   UNL     1       0.205   9.688  22.692  0.00  0.00    +0.000 A 
ATOM     24  C   UNL     1      -0.194  10.832  22.012  0.00  0.00    +0.000 A 
ATOM     25 CL   UNL     1      -1.063  12.062  22.844  0.00  0.00    +0.000 Cl
ATOM     26  C   UNL     1       0.097  10.977  20.658  0.00  0.00    +0.000 A 
ATOM     27  C   UNL     1       0.779   9.962  19.975  0.00  0.00    +0.000 A 
ENDBRANCH  19  21
ENDBRANCH   4  17
TORSDOF 4
ENDMDL
MODEL 7
REMARK VINA RESULT:      -8.0      3.708      5.591
REMARK  Name = 
REMARK  5 active torsions:
REMARK  status: ('A' for Active; 'I' for Inactive)
REMARK    1  A    between atoms: C_1  and  C_2
REMARK    2  A    between atoms: C_4  and  C_5
REMARK    3  A    between atoms: N_7  and  C_8
REMARK    4  A    between atoms: N_16  and  C_17
REMARK    5  A    between atoms: C_21  and  C_22
REMARK                            x       y       z     vdW  Elec       q    Type
REMARK                         _______ _______ _______ _____ _____    ______ ____
ROOT
ATOM      1  C   UNL     1       4.372   2.101  19.943  0.00  0.00    +0.000 C 
ATOM      2  C   UNL     1       3.771   3.457  19.849  0.00  0.00    +0.000 A 
ATOM      3  C   UNL     1       2.616   3.919  20.440  0.00  0.00    +0.000 A 
ATOM      4  C   UNL     1       2.574   5.306  20.179  0.00  0.00    +0.000 A 
ATOM      5  N   UNL     1       3.661   5.704  19.494  0.00  0.00    +0.000 NA
ATOM      6  N   UNL     1       4.333   4.551  19.208  0.00  0.00    +0.000 N 
ENDROOT
BRANCH   6   7
ATOM      7  C   UNL     1       5.439   4.597  18.317  0.00  0.00    +0.000 A 
ATOM      8  C   UNL     1       6.714   4.881  18.821  0.00  0.00    +0.000 A 
ATOM      9  C   UNL     1       7.811   4.932  17.961  0.00  0.00    +0.000 A 
ATOM     10  C   UNL     1       7.636   4.746  16.589  0.00  0.00    +0.000 A 
ATOM     11  C   UNL     1       6.360   4.506  16.062  0.00  0.00    +0.000 A 
ATOM     12  C   UNL     1       5.264   4.420  16.939  0.00  0.00    +0.000 A 
BRANCH  11  13
ATOM     13  C   UNL     1       6.134   4.371  14.574  0.00  0.00    +0.000 C 
ATOM     14  F   UNL     1       6.181   3.088  14.126  0.00  0.00    +0.000 F 
ATOM     15  F   UNL     1       4.924   4.861  14.188  0.00  0.00    +0.000 F 
ATOM     16  F   UNL     1       7.062   5.055  13.848  0.00  0.00    +0.000 F 
ENDBRANCH  11  13
ENDBRANCH   6   7
BRANCH   4  17
ATOM     17  C   UNL     1       1.501   6.224  20.592  0.00  0.00    +0.000 C 
ATOM     18  O   UNL     1       0.356   5.814  20.754  0.00  0.00    +0.000 OA
ATOM     19  N   UNL     1       1.921   7.541  20.705  0.00  0.00    +0.000 N 
ATOM     20  H   UNL     1       2.884   7.694  20.423  0.00  0.00    +0.000 HD
BRANCH  19  21
ATOM     21  C   UNL     1       1.115   8.653  21.014  0.00  0.00    +0.000 A 
ATOM     22  C   UNL     1       0.722   9.602  20.061  0.00  0.00    +0.000 A 
ATOM     23  C   UNL     1      -0.027  10.721  20.430  0.00  0.00    +0.000 A 
ATOM     24  C   UNL     1      -0.393  10.899  21.759  0.00  0.00    +0.000 A 
ATOM     25 CL   UNL     1      -1.274  12.303  22.222  0.00  0.00    +0.000 Cl
ATOM     26  C   UNL     1      -0.038   9.952  22.715  0.00  0.00    +0.000 A 
ATOM     27  C   UNL     1       0.704   8.823  22.341  0.00  0.00    +0.000 A 
ENDBRANCH  19  21
ENDBRANCH   4  17
TORSDOF 4
ENDMDL
MODEL 8
REMARK VINA RESULT:      -8.0      4.724      6.082
REMARK  Name = 
REMARK  5 active torsions:
REMARK  status: ('A' for Active; 'I' for Inactive)
REMARK    1  A    between atoms: C_1  and  C_2
REMARK    2  A    between atoms: C_4  and  C_5
REMARK    3  A    between atoms: N_7  and  C_8
REMARK    4  A    between atoms: N_16  and  C_17
REMARK    5  A    between atoms: C_21  and  C_22
REMARK                            x       y       z     vdW  Elec       q    Type
REMARK                         _______ _______ _______ _____ _____    ______ ____
ROOT
ATOM      1  C   UNL     1       2.579   3.080  17.526  0.00  0.00    +0.000 C 
ATOM      2  C   UNL     1       2.758   4.536  17.768  0.00  0.00    +0.000 A 
ATOM      3  C   UNL     1       1.885   5.413  18.373  0.00  0.00    +0.000 A 
ATOM      4  C   UNL     1       2.587   6.630  18.506  0.00  0.00    +0.000 A 
ATOM      5  N   UNL     1       3.845   6.518  18.046  0.00  0.00    +0.000 NA
ATOM      6  N   UNL     1       3.906   5.267  17.502  0.00  0.00    +0.000 N 
ENDROOT
BRANCH   6   7
ATOM      7  C   UNL     1       5.052   4.894  16.748  0.00  0.00    +0.000 A 
ATOM      8  C   UNL     1       6.318   4.976  17.339  0.00  0.00    +0.000 A 
ATOM      9  C   UNL     1       7.454   4.616  16.613  0.00  0.00    +0.000 A 
ATOM     10  C   UNL     1       7.337   4.217  15.281  0.00  0.00    +0.000 A 
ATOM     11  C   UNL     1       6.082   4.174  14.659  0.00  0.00    +0.000 A 
ATOM     12  C   UNL     1       4.938   4.503  15.408  0.00  0.00    +0.000 A 
BRANCH  11  13
ATOM     13  C   UNL     1       5.936   3.813  13.200  0.00  0.00    +0.000 C 
ATOM     14  F   UNL     1       6.809   4.465  12.384  0.00  0.00    +0.000 F 
ATOM     15  F   UNL     1       6.129   2.485  12.973  0.00  0.00    +0.000 F 
ATOM     16  F   UNL     1       4.693   4.096  12.720  0.00  0.00    +0.000 F 
ENDBRANCH  11  13
ENDBRANCH   6   7
BRANCH   4  17
ATOM     17  C   UNL     1       2.045   7.874  19.075  0.00  0.00    +0.000 C 
ATOM     18  O   UNL     1       1.762   7.944  20.266  0.00  0.00    +0.000 OA
ATOM     19  N   UNL     1       1.853   8.870  18.129  0.00  0.00    +0.000 N 
ATOM     20  H   UNL     1       2.047   8.579  17.176  0.00  0.00    +0.000 HD
BRANCH  19  21
ATOM     21  C   UNL     1       1.288  10.140  18.353  0.00  0.00    +0.000 A 
ATOM     22  C   UNL     1      -0.082  10.343  18.563  0.00  0.00    +0.000 A 
ATOM     23  C   UNL     1      -0.600  11.630  18.720  0.00  0.00    +0.000 A 
ATOM     24  C   UNL     1       0.250  12.728  18.670  0.00  0.00    +0.000 A 
ATOM     25 CL   UNL     1      -0.396  14.316  18.814  0.00  0.00    +0.000 Cl
ATOM     26  C   UNL     1       1.619  12.545  18.492  0.00  0.00    +0.000 A 
ATOM     27  C   UNL     1       2.139  11.252  18.347  0.00  0.00    +0.000 A 
ENDBRANCH  19  21
ENDBRANCH   4  17
TORSDOF 4
ENDMDL
MODEL 9
REMARK VINA RESULT:      -7.9      1.894      2.423
REMARK  Name = 
REMARK  5 active torsions:
REMARK  status: ('A' for Active; 'I' for Inactive)
REMARK    1  A    between atoms: C_1  and  C_2
REMARK    2  A    between atoms: C_4  and  C_5
REMARK    3  A    between atoms: N_7  and  C_8
REMARK    4  A    between atoms: N_16  and  C_17
REMARK    5  A    between atoms: C_21  and  C_22
REMARK                            x       y       z     vdW  Elec       q    Type
REMARK                         _______ _______ _______ _____ _____    ______ ____
ROOT
ATOM      1  C   UNL     1       1.794   8.867  17.769  0.00  0.00    +0.000 C 
ATOM      2  C   UNL     1       1.457   8.954  19.214  0.00  0.00    +0.000 A 
ATOM      3  C   UNL     1       0.903  10.013  19.897  0.00  0.00    +0.000 A 
ATOM      4  C   UNL     1       0.631   9.538  21.198  0.00  0.00    +0.000 A 
ATOM      5  N   UNL     1       0.961   8.240  21.319  0.00  0.00    +0.000 NA
ATOM      6  N   UNL     1       1.560   7.921  20.134  0.00  0.00    +0.000 N 
ENDROOT
BRANCH   6   7
ATOM      7  C   UNL     1       2.207   6.663  20.001  0.00  0.00    +0.000 A 
ATOM      8  C   UNL     1       1.632   5.531  20.592  0.00  0.00    +0.000 A 
ATOM      9  C   UNL     1       2.255   4.288  20.474  0.00  0.00    +0.000 A 
ATOM     10  C   UNL     1       3.474   4.175  19.805  0.00  0.00    +0.000 A 
ATOM     11  C   UNL     1       4.086   5.306  19.247  0.00  0.00    +0.000 A 
ATOM     12  C   UNL     1       3.436   6.549  19.339  0.00  0.00    +0.000 A 
BRANCH  11  13
ATOM     13  C   UNL     1       5.439   5.222  18.580  0.00  0.00    +0.000 C 
ATOM     14  F   UNL     1       5.761   6.326  17.852  0.00  0.00    +0.000 F 
ATOM     15  F   UNL     1       6.448   5.055  19.477  0.00  0.00    +0.000 F 
ATOM     16  F   UNL     1       5.526   4.169  17.721  0.00  0.00    +0.000 F 
ENDBRANCH  11  13
ENDBRANCH   6   7
BRANCH   4  17
ATOM     17  C   UNL     1       0.059  10.330  22.298  0.00  0.00    +0.000 C 
ATOM     18  O   UNL     1       0.207   9.976  23.464  0.00  0.00    +0.000 OA
ATOM     19  N   UNL     1      -0.675  11.423  21.862  0.00  0.00    +0.000 N 
ATOM     20  H   UNL     1      -0.769  11.482  20.854  0.00  0.00    +0.000 HD
BRANCH  19  21
ATOM     21  C   UNL     1      -1.396  12.323  22.670  0.00  0.00    +0.000 A 
ATOM     22  C   UNL     1      -2.670  12.042  23.181  0.00  0.00    +0.000 A 
ATOM     23  C   UNL     1      -3.369  12.994  23.926  0.00  0.00    +0.000 A 
ATOM     24  C   UNL     1      -2.797  14.237  24.170  0.00  0.00    +0.000 A 
ATOM     25 CL   UNL     1      -3.678  15.427  25.046  0.00  0.00    +0.000 Cl
ATOM     26  C   UNL     1      -1.519  14.523  23.696  0.00  0.00    +0.000 A 
ATOM     27  C   UNL     1      -0.814  13.563  22.958  0.00  0.00    +0.000 A 
ENDBRANCH  19  21
ENDBRANCH   4  17
TORSDOF 4
ENDMDL
