MODEL 1
REMARK VINA RESULT:      -6.9      0.000      0.000
REMARK  Name = 
REMARK  9 active torsions:
REMARK  status: ('A' for Active; 'I' for Inactive)
REMARK    1  A    between atoms: C_1  and  O_2
REMARK    2  A    between atoms: O_2  and  C_3
REMARK    3  A    between atoms: C_3  and  C_4
REMARK    4  A    between atoms: C_5  and  C_6
REMARK    5  A    between atoms: C_6  and  O_8
REMARK    6  A    between atoms: O_8  and  C_9
REMARK    7  A    between atoms: N_12  and  C_13
REMARK    8  A    between atoms: C_16  and  C_17
REMARK    9  A    between atoms: C_22  and  N_23
REMARK                            x       y       z     vdW  Elec       q    Type
REMARK                         _______ _______ _______ _____ _____    ______ ____
ROOT
ATOM      1  C   UNL     1       3.380   6.391  18.033  0.00  0.00    +0.000 A 
ATOM      2  C   UNL     1       4.474   7.116  17.541  0.00  0.00    +0.000 A 
ATOM      3  C   UNL     1       5.422   6.506  16.711  0.00  0.00    +0.000 A 
ATOM      4  C   UNL     1       5.313   5.155  16.355  0.00  0.00    +0.000 A 
ATOM      5  C   UNL     1       4.217   4.421  16.834  0.00  0.00    +0.000 A 
ATOM      6  C   UNL     1       3.268   5.038  17.670  0.00  0.00    +0.000 A 
ENDROOT
BRANCH   1  11
ATOM      7  C   UNL     1       1.793   8.187  18.934  0.00  0.00    +0.000 A 
ATOM      8  C   UNL     1       1.321   8.340  20.234  0.00  0.00    +0.000 A 
ATOM      9  N   UNL     1       1.701   7.256  20.978  0.00  0.00    +0.000 NA
ATOM     10  N   UNL     1       2.383   6.436  20.199  0.00  0.00    +0.000 NA
ATOM     11  N   UNL     1       2.494   6.989  18.968  0.00  0.00    +0.000 N 
BRANCH   8  12
ATOM     12  C   UNL     1       0.539   9.433  20.797  0.00  0.00    +0.000 C 
ATOM     13  O   UNL     1      -0.402   9.961  20.219  0.00  0.00    +0.000 OA
BRANCH  12  14
ATOM     14  O   UNL     1       0.992   9.814  22.029  0.00  0.00    +0.000 OA
ATOM     15  C   UNL     1       0.064   9.612  23.091  0.00  0.00    +0.000 C 
ENDBRANCH  12  14
ENDBRANCH   8  12
BRANCH   7  16
ATOM     16  C   UNL     1       1.555   9.011  17.723  0.00  0.00    +0.000 C 
BRANCH  16  18
ATOM     17  C   UNL     1       2.106  11.281  18.062  0.00  0.00    +0.000 C 
ATOM     18  O   UNL     1       2.584   9.994  17.693  0.00  0.00    +0.000 OA
ENDBRANCH  16  18
ENDBRANCH   7  16
ENDBRANCH   1  11
BRANCH   4  19
ATOM     19  C   UNL     1       6.362   4.494  15.490  0.00  0.00    +0.000 C 
ATOM     20  F   UNL     1       6.591   5.156  14.323  0.00  0.00    +0.000 F 
ATOM     21  F   UNL     1       7.567   4.409  16.115  0.00  0.00    +0.000 F 
ATOM     22  F   UNL     1       6.023   3.224  15.142  0.00  0.00    +0.000 F 
ENDBRANCH   4  19
BRANCH   6  23
ATOM     23  N   UNL     1       2.107   4.239  18.030  0.00  0.00    +0.000 N 
ATOM     24  O   UNL     1       1.113   4.335  17.296  0.00  0.00    +0.000 OA
ATOM     25  O   UNL     1       2.236   3.455  18.981  0.00  0.00    +0.000 OA
ENDBRANCH   6  23
TORSDOF 7
ENDMDL
MODEL 2
REMARK VINA RESULT:      -6.8      4.487      7.220
REMARK  Name = 
REMARK  9 active torsions:
REMARK  status: ('A' for Active; 'I' for Inactive)
REMARK    1  A    between atoms: C_1  and  O_2
REMARK    2  A    between atoms: O_2  and  C_3
REMARK    3  A    between atoms: C_3  and  C_4
REMARK    4  A    between atoms: C_5  and  C_6
REMARK    5  A    between atoms: C_6  and  O_8
REMARK    6  A    between atoms: O_8  and  C_9
REMARK    7  A    between atoms: N_12  and  C_13
REMARK    8  A    between atoms: C_16  and  C_17
REMARK    9  A    between atoms: C_22  and  N_23
REMARK                            x       y       z     vdW  Elec       q    Type
REMARK                         _______ _______ _______ _____ _____    ______ ____
ROOT
ATOM      1  C   UNL     1       3.763   6.132  18.040  0.00  0.00    +0.000 A 
ATOM      2  C   UNL     1       3.231   7.398  17.763  0.00  0.00    +0.000 A 
ATOM      3  C   UNL     1       2.393   8.040  18.683  0.00  0.00    +0.000 A 
ATOM      4  C   UNL     1       2.053   7.433  19.900  0.00  0.00    +0.000 A 
ATOM      5  C   UNL     1       2.586   6.169  20.192  0.00  0.00    +0.000 A 
ATOM      6  C   UNL     1       3.427   5.528  19.263  0.00  0.00    +0.000 A 
ENDROOT
BRANCH   1  11
ATOM      7  C   UNL     1       5.702   5.766  16.409  0.00  0.00    +0.000 A 
ATOM      8  C   UNL     1       5.783   4.848  15.366  0.00  0.00    +0.000 A 
ATOM      9  N   UNL     1       4.705   4.007  15.425  0.00  0.00    +0.000 NA
ATOM     10  N   UNL     1       3.962   4.358  16.458  0.00  0.00    +0.000 NA
ATOM     11  N   UNL     1       4.513   5.444  17.049  0.00  0.00    +0.000 N 
BRANCH   8  12
ATOM     12  C   UNL     1       6.811   4.722  14.341  0.00  0.00    +0.000 C 
ATOM     13  O   UNL     1       7.813   5.423  14.296  0.00  0.00    +0.000 OA
BRANCH  12  14
ATOM     14  O   UNL     1       6.513   3.752  13.424  0.00  0.00    +0.000 OA
ATOM     15  C   UNL     1       7.045   3.983  12.122  0.00  0.00    +0.000 C 
ENDBRANCH  12  14
ENDBRANCH   8  12
BRANCH   7  16
ATOM     16  C   UNL     1       6.669   6.799  16.856  0.00  0.00    +0.000 C 
BRANCH  16  18
ATOM     17  C   UNL     1       7.875   6.361  18.837  0.00  0.00    +0.000 C 
ATOM     18  O   UNL     1       7.763   6.104  17.443  0.00  0.00    +0.000 OA
ENDBRANCH  16  18
ENDBRANCH   7  16
ENDBRANCH   1  11
BRANCH   4  19
ATOM     19  C   UNL     1       1.116   8.116  20.871  0.00  0.00    +0.000 C 
ATOM     20  F   UNL     1       1.742   8.578  21.987  0.00  0.00    +0.000 F 
ATOM     21  F   UNL     1       0.494   9.191  20.317  0.00  0.00    +0.000 F 
ATOM     22  F   UNL     1       0.129   7.289  21.308  0.00  0.00    +0.000 F 
ENDBRANCH   4  19
BRANCH   6  23
ATOM     23  N   UNL     1       4.026   4.274  19.692  0.00  0.00    +0.000 N 
ATOM     24  O   UNL     1       3.249   3.348  19.964  0.00  0.00    +0.000 OA
ATOM     25  O   UNL     1       5.262   4.199  19.656  0.00  0.00    +0.000 OA
ENDBRANCH   6  23
TORSDOF 7
ENDMDL
MODEL 3
REMARK VINA RESULT:      -6.8      0.341      1.016
REMARK  Name = 
REMARK  9 active torsions:
REMARK  status: ('A' for Active; 'I' for Inactive)
REMARK    1  A    between atoms: C_1  and  O_2
REMARK    2  A    between atoms: O_2  and  C_3
REMARK    3  A    between atoms: C_3  and  C_4
REMARK    4  A    between atoms: C_5  and  C_6
REMARK    5  A    between atoms: C_6  and  O_8
REMARK    6  A    between atoms: O_8  and  C_9
REMARK    7  A    between atoms: N_12  and  C_13
REMARK    8  A    between atoms: C_16  and  C_17
REMARK    9  A    between atoms: C_22  and  N_23
REMARK                            x       y       z     vdW  Elec       q    Type
REMARK                         _______ _______ _______ _____ _____    ______ ____
ROOT
ATOM      1  C   UNL     1       3.481   6.179  17.921  0.00  0.00    +0.000 A 
ATOM      2  C   UNL     1       4.542   6.957  17.438  0.00  0.00    +0.000 A 
ATOM      3  C   UNL     1       5.480   6.416  16.551  0.00  0.00    +0.000 A 
ATOM      4  C   UNL     1       5.396   5.081  16.130  0.00  0.00    +0.000 A 
ATOM      5  C   UNL     1       4.333   4.295  16.600  0.00  0.00    +0.000 A 
ATOM      6  C   UNL     1       3.393   4.844  17.492  0.00  0.00    +0.000 A 
ENDROOT
BRANCH   1  11
ATOM      7  C   UNL     1       1.908   7.903  18.974  0.00  0.00    +0.000 A 
ATOM      8  C   UNL     1       1.452   7.957  20.288  0.00  0.00    +0.000 A 
ATOM      9  N   UNL     1       1.838   6.819  20.942  0.00  0.00    +0.000 NA
ATOM     10  N   UNL     1       2.508   6.060  20.095  0.00  0.00    +0.000 NA
ATOM     11  N   UNL     1       2.607   6.705  18.909  0.00  0.00    +0.000 N 
BRANCH   8  12
ATOM     12  C   UNL     1       0.678   9.004  20.941  0.00  0.00    +0.000 C 
ATOM     13  O   UNL     1      -0.250   9.596  20.406  0.00  0.00    +0.000 OA
BRANCH  12  14
ATOM     14  O   UNL     1       1.124   9.265  22.207  0.00  0.00    +0.000 OA
ATOM     15  C   UNL     1       0.093   9.495  23.164  0.00  0.00    +0.000 C 
ENDBRANCH  12  14
ENDBRANCH   8  12
BRANCH   7  16
ATOM     16  C   UNL     1       1.658   8.817  17.833  0.00  0.00    +0.000 C 
BRANCH  16  18
ATOM     17  C   UNL     1       1.932  11.137  18.174  0.00  0.00    +0.000 C 
ATOM     18  O   UNL     1       2.584   9.890  17.962  0.00  0.00    +0.000 OA
ENDBRANCH  16  18
ENDBRANCH   7  16
ENDBRANCH   1  11
BRANCH   4  19
ATOM     19  C   UNL     1       6.436   4.494  15.204  0.00  0.00    +0.000 C 
ATOM     20  F   UNL     1       6.082   3.280  14.699  0.00  0.00    +0.000 F 
ATOM     21  F   UNL     1       6.679   5.291  14.128  0.00  0.00    +0.000 F 
ATOM     22  F   UNL     1       7.634   4.310  15.819  0.00  0.00    +0.000 F 
ENDBRANCH   4  19
BRANCH   6  23
ATOM     23  N   UNL     1       2.263   3.997  17.841  0.00  0.00    +0.000 N 
ATOM     24  O   UNL     1       2.457   3.138  18.712  0.00  0.00    +0.000 OA
ATOM     25  O   UNL     1       1.174   4.266  17.313  0.00  0.00    +0.000 OA
ENDBRANCH   6  23
TORSDOF 7
ENDMDL
MODEL 4
REMARK VINA RESULT:      -6.8      0.497      1.213
REMARK  Name = 
REMARK  9 active torsions:
REMARK  status: ('A' for Active; 'I' for Inactive)
REMARK    1  A    between atoms: C_1  and  O_2
REMARK    2  A    between atoms: O_2  and  C_3
REMARK    3  A    between atoms: C_3  and  C_4
REMARK    4  A    between atoms: C_5  and  C_6
REMARK    5  A    between atoms: C_6  and  O_8
REMARK    6  A    between atoms: O_8  and  C_9
REMARK    7  A    between atoms: N_12  and  C_13
REMARK    8  A    between atoms: C_16  and  C_17
REMARK    9  A    between atoms: C_22  and  N_23
REMARK                            x       y       z     vdW  Elec       q    Type
REMARK                         _______ _______ _______ _____ _____    ______ ____
ROOT
ATOM      1  C   UNL     1       3.373   6.408  17.999  0.00  0.00    +0.000 A 
ATOM      2  C   UNL     1       4.462   7.119  17.475  0.00  0.00    +0.000 A 
ATOM      3  C   UNL     1       5.393   6.488  16.641  0.00  0.00    +0.000 A 
ATOM      4  C   UNL     1       5.273   5.130  16.314  0.00  0.00    +0.000 A 
ATOM      5  C   UNL     1       4.182   4.411  16.826  0.00  0.00    +0.000 A 
ATOM      6  C   UNL     1       3.250   5.049  17.665  0.00  0.00    +0.000 A 
ENDROOT
BRANCH   1  11
ATOM      7  C   UNL     1       1.889   8.273  18.935  0.00  0.00    +0.000 A 
ATOM      8  C   UNL     1       1.394   8.407  20.228  0.00  0.00    +0.000 A 
ATOM      9  N   UNL     1       1.679   7.270  20.936  0.00  0.00    +0.000 NA
ATOM     10  N   UNL     1       2.323   6.436  20.140  0.00  0.00    +0.000 NA
ATOM     11  N   UNL     1       2.505   7.029  18.937  0.00  0.00    +0.000 N 
BRANCH   8  12
ATOM     12  C   UNL     1       0.674   9.527  20.817  0.00  0.00    +0.000 C 
ATOM     13  O   UNL     1       1.096  10.186  21.759  0.00  0.00    +0.000 OA
BRANCH  12  14
ATOM     14  O   UNL     1      -0.535   9.740  20.216  0.00  0.00    +0.000 OA
ATOM     15  C   UNL     1      -0.964  11.099  20.209  0.00  0.00    +0.000 C 
ENDBRANCH  12  14
ENDBRANCH   8  12
BRANCH   7  16
ATOM     16  C   UNL     1       1.742   9.159  17.754  0.00  0.00    +0.000 C 
BRANCH  16  18
ATOM     17  C   UNL     1       2.056  11.470  18.122  0.00  0.00    +0.000 C 
ATOM     18  O   UNL     1       2.686  10.211  17.916  0.00  0.00    +0.000 OA
ENDBRANCH  16  18
ENDBRANCH   7  16
ENDBRANCH   1  11
BRANCH   4  19
ATOM     19  C   UNL     1       6.305   4.448  15.445  0.00  0.00    +0.000 C 
ATOM     20  F   UNL     1       5.987   3.159  15.145  0.00  0.00    +0.000 F 
ATOM     21  F   UNL     1       6.474   5.080  14.252  0.00  0.00    +0.000 F 
ATOM     22  F   UNL     1       7.531   4.407  16.031  0.00  0.00    +0.000 F 
ENDBRANCH   4  19
BRANCH   6  23
ATOM     23  N   UNL     1       2.092   4.263  18.060  0.00  0.00    +0.000 N 
ATOM     24  O   UNL     1       1.083   4.356  17.347  0.00  0.00    +0.000 OA
ATOM     25  O   UNL     1       2.237   3.489  19.017  0.00  0.00    +0.000 OA
ENDBRANCH   6  23
TORSDOF 7
ENDMDL
MODEL 5
REMARK VINA RESULT:      -6.7      3.617      5.147
REMARK  Name = 
REMARK  9 active torsions:
REMARK  status: ('A' for Active; 'I' for Inactive)
REMARK    1  A    between atoms: C_1  and  O_2
REMARK    2  A    between atoms: O_2  and  C_3
REMARK    3  A    between atoms: C_3  and  C_4
REMARK    4  A    between atoms: C_5  and  C_6
REMARK    5  A    between atoms: C_6  and  O_8
REMARK    6  A    between atoms: O_8  and  C_9
REMARK    7  A    between atoms: N_12  and  C_13
REMARK    8  A    between atoms: C_16  and  C_17
REMARK    9  A    between atoms: C_22  and  N_23
REMARK                            x       y       z     vdW  Elec       q    Type
REMARK                         _______ _______ _______ _____ _____    ______ ____
ROOT
ATOM      1  C   UNL     1       5.372   5.067  16.483  0.00  0.00    +0.000 A 
ATOM      2  C   UNL     1       4.800   4.744  15.245  0.00  0.00    +0.000 A 
ATOM      3  C   UNL     1       5.583   4.698  14.085  0.00  0.00    +0.000 A 
ATOM      4  C   UNL     1       6.955   4.983  14.123  0.00  0.00    +0.000 A 
ATOM      5  C   UNL     1       7.540   5.299  15.358  0.00  0.00    +0.000 A 
ATOM      6  C   UNL     1       6.749   5.345  16.521  0.00  0.00    +0.000 A 
ENDROOT
BRANCH   1  11
ATOM      7  C   UNL     1       3.963   4.294  18.476  0.00  0.00    +0.000 A 
ATOM      8  C   UNL     1       3.065   5.042  19.232  0.00  0.00    +0.000 A 
ATOM      9  N   UNL     1       3.155   6.356  18.862  0.00  0.00    +0.000 NA
ATOM     10  N   UNL     1       4.070   6.459  17.915  0.00  0.00    +0.000 NA
ATOM     11  N   UNL     1       4.546   5.225  17.628  0.00  0.00    +0.000 N 
BRANCH   8  12
ATOM     12  C   UNL     1       2.150   4.588  20.271  0.00  0.00    +0.000 C 
ATOM     13  O   UNL     1       2.435   4.560  21.460  0.00  0.00    +0.000 OA
BRANCH  12  14
ATOM     14  O   UNL     1       0.950   4.176  19.761  0.00  0.00    +0.000 OA
ATOM     15  C   UNL     1       0.839   2.768  19.570  0.00  0.00    +0.000 C 
ENDBRANCH  12  14
ENDBRANCH   8  12
BRANCH   7  16
ATOM     16  C   UNL     1       4.337   2.861  18.570  0.00  0.00    +0.000 C 
BRANCH  16  18
ATOM     17  C   UNL     1       4.583   1.804  20.666  0.00  0.00    +0.000 C 
ATOM     18  O   UNL     1       5.139   2.728  19.738  0.00  0.00    +0.000 OA
ENDBRANCH  16  18
ENDBRANCH   7  16
ENDBRANCH   1  11
BRANCH   4  19
ATOM     19  C   UNL     1       7.784   4.970  12.859  0.00  0.00    +0.000 C 
ATOM     20  F   UNL     1       7.573   3.868  12.089  0.00  0.00    +0.000 F 
ATOM     21  F   UNL     1       7.524   6.040  12.061  0.00  0.00    +0.000 F 
ATOM     22  F   UNL     1       9.119   5.000  13.114  0.00  0.00    +0.000 F 
ENDBRANCH   4  19
BRANCH   6  23
ATOM     23  N   UNL     1       7.453   5.570  17.773  0.00  0.00    +0.000 N 
ATOM     24  O   UNL     1       7.618   6.748  18.119  0.00  0.00    +0.000 OA
ATOM     25  O   UNL     1       7.745   4.568  18.442  0.00  0.00    +0.000 OA
ENDBRANCH   6  23
TORSDOF 7
ENDMDL
MODEL 6
REMARK VINA RESULT:      -6.7      4.112      6.168
REMARK  Name = 
REMARK  9 active torsions:
REMARK  status: ('A' for Active; 'I' for Inactive)
REMARK    1  A    between atoms: C_1  and  O_2
REMARK    2  A    between atoms: O_2  and  C_3
REMARK    3  A    between atoms: C_3  and  C_4
REMARK    4  A    between atoms: C_5  and  C_6
REMARK    5  A    between atoms: C_6  and  O_8
REMARK    6  A    between atoms: O_8  and  C_9
REMARK    7  A    between atoms: N_12  and  C_13
REMARK    8  A    between atoms: C_16  and  C_17
REMARK    9  A    between atoms: C_22  and  N_23
REMARK                            x       y       z     vdW  Elec       q    Type
REMARK                         _______ _______ _______ _____ _____    ______ ____
ROOT
ATOM      1  C   UNL     1       6.562   6.567  17.549  0.00  0.00    +0.000 A 
ATOM      2  C   UNL     1       6.356   7.796  16.906  0.00  0.00    +0.000 A 
ATOM      3  C   UNL     1       7.156   8.905  17.208  0.00  0.00    +0.000 A 
ATOM      4  C   UNL     1       8.176   8.824  18.167  0.00  0.00    +0.000 A 
ATOM      5  C   UNL     1       8.396   7.597  18.811  0.00  0.00    +0.000 A 
ATOM      6  C   UNL     1       7.589   6.487  18.504  0.00  0.00    +0.000 A 
ENDROOT
BRANCH   1  11
ATOM      7  C   UNL     1       4.686   4.921  18.120  0.00  0.00    +0.000 A 
ATOM      8  C   UNL     1       4.347   3.745  17.459  0.00  0.00    +0.000 A 
ATOM      9  N   UNL     1       5.075   3.656  16.303  0.00  0.00    +0.000 NA
ATOM     10  N   UNL     1       5.847   4.724  16.216  0.00  0.00    +0.000 NA
ATOM     11  N   UNL     1       5.668   5.487  17.319  0.00  0.00    +0.000 N 
BRANCH   8  12
ATOM     12  C   UNL     1       3.383   2.725  17.850  0.00  0.00    +0.000 C 
ATOM     13  O   UNL     1       3.690   1.680  18.407  0.00  0.00    +0.000 OA
BRANCH  12  14
ATOM     14  O   UNL     1       2.104   3.058  17.499  0.00  0.00    +0.000 OA
ATOM     15  C   UNL     1       1.133   2.842  18.519  0.00  0.00    +0.000 C 
ENDBRANCH  12  14
ENDBRANCH   8  12
BRANCH   7  16
ATOM     16  C   UNL     1       4.106   5.540  19.338  0.00  0.00    +0.000 C 
BRANCH  16  18
ATOM     17  C   UNL     1       2.773   7.253  18.412  0.00  0.00    +0.000 C 
ATOM     18  O   UNL     1       2.789   5.956  18.993  0.00  0.00    +0.000 OA
ENDBRANCH  16  18
ENDBRANCH   7  16
ENDBRANCH   1  11
BRANCH   4  19
ATOM     19  C   UNL     1       9.008  10.037  18.515  0.00  0.00    +0.000 C 
ATOM     20  F   UNL     1       9.656   9.919  19.706  0.00  0.00    +0.000 F 
ATOM     21  F   UNL     1       9.972  10.285  17.588  0.00  0.00    +0.000 F 
ATOM     22  F   UNL     1       8.263  11.170  18.603  0.00  0.00    +0.000 F 
ENDBRANCH   4  19
BRANCH   6  23
ATOM     23  N   UNL     1       7.957   5.228  19.133  0.00  0.00    +0.000 N 
ATOM     24  O   UNL     1       8.376   4.332  18.387  0.00  0.00    +0.000 OA
ATOM     25  O   UNL     1       7.914   5.183  20.371  0.00  0.00    +0.000 OA
ENDBRANCH   6  23
TORSDOF 7
ENDMDL
MODEL 7
REMARK VINA RESULT:      -6.6      3.170      4.492
REMARK  Name = 
REMARK  9 active torsions:
REMARK  status: ('A' for Active; 'I' for Inactive)
REMARK    1  A    between atoms: C_1  and  O_2
REMARK    2  A    between atoms: O_2  and  C_3
REMARK    3  A    between atoms: C_3  and  C_4
REMARK    4  A    between atoms: C_5  and  C_6
REMARK    5  A    between atoms: C_6  and  O_8
REMARK    6  A    between atoms: O_8  and  C_9
REMARK    7  A    between atoms: N_12  and  C_13
REMARK    8  A    between atoms: C_16  and  C_17
REMARK    9  A    between atoms: C_22  and  N_23
REMARK                            x       y       z     vdW  Elec       q    Type
REMARK                         _______ _______ _______ _____ _____    ______ ____
ROOT
ATOM      1  C   UNL     1       5.563   4.254  16.593  0.00  0.00    +0.000 A 
ATOM      2  C   UNL     1       5.102   3.806  15.347  0.00  0.00    +0.000 A 
ATOM      3  C   UNL     1       5.813   4.092  14.176  0.00  0.00    +0.000 A 
ATOM      4  C   UNL     1       6.996   4.842  14.210  0.00  0.00    +0.000 A 
ATOM      5  C   UNL     1       7.472   5.289  15.452  0.00  0.00    +0.000 A 
ATOM      6  C   UNL     1       6.753   5.000  16.626  0.00  0.00    +0.000 A 
ENDROOT
BRANCH   1  11
ATOM      7  C   UNL     1       3.734   4.806  18.298  0.00  0.00    +0.000 A 
ATOM      8  C   UNL     1       3.549   4.259  19.564  0.00  0.00    +0.000 A 
ATOM      9  N   UNL     1       4.417   3.213  19.730  0.00  0.00    +0.000 NA
ATOM     10  N   UNL     1       5.127   3.084  18.625  0.00  0.00    +0.000 NA
ATOM     11  N   UNL     1       4.770   4.058  17.756  0.00  0.00    +0.000 N 
BRANCH   8  12
ATOM     12  C   UNL     1       2.609   4.660  20.602  0.00  0.00    +0.000 C 
ATOM     13  O   UNL     1       2.046   5.746  20.624  0.00  0.00    +0.000 OA
BRANCH  12  14
ATOM     14  O   UNL     1       2.449   3.696  21.558  0.00  0.00    +0.000 OA
ATOM     15  C   UNL     1       1.303   2.868  21.381  0.00  0.00    +0.000 C 
ENDBRANCH  12  14
ENDBRANCH   8  12
BRANCH   7  16
ATOM     16  C   UNL     1       2.974   5.866  17.590  0.00  0.00    +0.000 C 
BRANCH  16  18
ATOM     17  C   UNL     1       2.661   8.178  17.947  0.00  0.00    +0.000 C 
ATOM     18  O   UNL     1       3.591   7.102  17.929  0.00  0.00    +0.000 OA
ENDBRANCH  16  18
ENDBRANCH   7  16
ENDBRANCH   1  11
BRANCH   4  19
ATOM     19  C   UNL     1       7.737   5.181  12.936  0.00  0.00    +0.000 C 
ATOM     20  F   UNL     1       9.085   5.254  13.102  0.00  0.00    +0.000 F 
ATOM     21  F   UNL     1       7.529   4.258  11.959  0.00  0.00    +0.000 F 
ATOM     22  F   UNL     1       7.355   6.378  12.417  0.00  0.00    +0.000 F 
ENDBRANCH   4  19
BRANCH   6  23
ATOM     23  N   UNL     1       7.372   5.403  17.879  0.00  0.00    +0.000 N 
ATOM     24  O   UNL     1       7.097   6.535  18.301  0.00  0.00    +0.000 OA
ATOM     25  O   UNL     1       8.046   4.549  18.474  0.00  0.00    +0.000 OA
ENDBRANCH   6  23
TORSDOF 7
ENDMDL
MODEL 8
REMARK VINA RESULT:      -6.6      4.087      6.190
REMARK  Name = 
REMARK  9 active torsions:
REMARK  status: ('A' for Active; 'I' for Inactive)
REMARK    1  A    between atoms: C_1  and  O_2
REMARK    2  A    between atoms: O_2  and  C_3
REMARK    3  A    between atoms: C_3  and  C_4
REMARK    4  A    between atoms: C_5  and  C_6
REMARK    5  A    between atoms: C_6  and  O_8
REMARK    6  A    between atoms: O_8  and  C_9
REMARK    7  A    between atoms: N_12  and  C_13
REMARK    8  A    between atoms: C_16  and  C_17
REMARK    9  A    between atoms: C_22  and  N_23
REMARK                            x       y       z     vdW  Elec       q    Type
REMARK                         _______ _______ _______ _____ _____    ______ ____
ROOT
ATOM      1  C   UNL     1       6.589   6.599  17.559  0.00  0.00    +0.000 A 
ATOM      2  C   UNL     1       6.385   7.825  16.912  0.00  0.00    +0.000 A 
ATOM      3  C   UNL     1       7.184   8.935  17.211  0.00  0.00    +0.000 A 
ATOM      4  C   UNL     1       8.202   8.858  18.172  0.00  0.00    +0.000 A 
ATOM      5  C   UNL     1       8.421   7.633  18.821  0.00  0.00    +0.000 A 
ATOM      6  C   UNL     1       7.614   6.522  18.517  0.00  0.00    +0.000 A 
ENDROOT
BRANCH   1  11
ATOM      7  C   UNL     1       4.710   4.957  18.132  0.00  0.00    +0.000 A 
ATOM      8  C   UNL     1       4.373   3.778  17.475  0.00  0.00    +0.000 A 
ATOM      9  N   UNL     1       5.106   3.682  16.323  0.00  0.00    +0.000 NA
ATOM     10  N   UNL     1       5.878   4.748  16.233  0.00  0.00    +0.000 NA
ATOM     11  N   UNL     1       5.696   5.518  17.332  0.00  0.00    +0.000 N 
BRANCH   8  12
ATOM     12  C   UNL     1       3.407   2.760  17.868  0.00  0.00    +0.000 C 
ATOM     13  O   UNL     1       3.709   1.728  18.452  0.00  0.00    +0.000 OA
BRANCH  12  14
ATOM     14  O   UNL     1       2.134   3.078  17.485  0.00  0.00    +0.000 OA
ATOM     15  C   UNL     1       1.141   2.860  18.484  0.00  0.00    +0.000 C 
ENDBRANCH  12  14
ENDBRANCH   8  12
BRANCH   7  16
ATOM     16  C   UNL     1       4.125   5.582  19.344  0.00  0.00    +0.000 C 
BRANCH  16  18
ATOM     17  C   UNL     1       2.235   6.828  20.013  0.00  0.00    +0.000 C 
ATOM     18  O   UNL     1       2.857   6.102  18.960  0.00  0.00    +0.000 OA
ENDBRANCH  16  18
ENDBRANCH   7  16
ENDBRANCH   1  11
BRANCH   4  19
ATOM     19  C   UNL     1       9.034  10.072  18.518  0.00  0.00    +0.000 C 
ATOM     20  F   UNL     1      10.020  10.323  17.614  0.00  0.00    +0.000 F 
ATOM     21  F   UNL     1       8.288  11.207  18.583  0.00  0.00    +0.000 F 
ATOM     22  F   UNL     1       9.650   9.952  19.724  0.00  0.00    +0.000 F 
ENDBRANCH   4  19
BRANCH   6  23
ATOM     23  N   UNL     1       7.981   5.265  19.150  0.00  0.00    +0.000 N 
ATOM     24  O   UNL     1       7.797   5.180  20.373  0.00  0.00    +0.000 OA
ATOM     25  O   UNL     1       8.354   4.347  18.405  0.00  0.00    +0.000 OA
ENDBRANCH   6  23
TORSDOF 7
ENDMDL
MODEL 9
REMARK VINA RESULT:      -6.6      4.405      7.126
REMARK  Name = 
REMARK  9 active torsions:
REMARK  status: ('A' for Active; 'I' for Inactive)
REMARK    1  A    between atoms: C_1  and  O_2
REMARK    2  A    between atoms: O_2  and  C_3
REMARK    3  A    between atoms: C_3  and  C_4
REMARK    4  A    between atoms: C_5  and  C_6
REMARK    5  A    between atoms: C_6  and  O_8
REMARK    6  A    between atoms: O_8  and  C_9
REMARK    7  A    between atoms: N_12  and  C_13
REMARK    8  A    between atoms: C_16  and  C_17
REMARK    9  A    between atoms: C_22  and  N_23
REMARK                            x       y       z     vdW  Elec       q    Type
REMARK                         _______ _______ _______ _____ _____    ______ ____
ROOT
ATOM      1  C   UNL     1       3.418   6.586  18.170  0.00  0.00    +0.000 A 
ATOM      2  C   UNL     1       2.929   7.811  17.697  0.00  0.00    +0.000 A 
ATOM      3  C   UNL     1       2.055   8.580  18.475  0.00  0.00    +0.000 A 
ATOM      4  C   UNL     1       1.635   8.146  19.740  0.00  0.00    +0.000 A 
ATOM      5  C   UNL     1       2.125   6.925  20.227  0.00  0.00    +0.000 A 
ATOM      6  C   UNL     1       3.002   6.156  19.441  0.00  0.00    +0.000 A 
ENDROOT
BRANCH   1  11
ATOM      7  C   UNL     1       5.424   5.990  16.695  0.00  0.00    +0.000 A 
ATOM      8  C   UNL     1       5.547   4.929  15.803  0.00  0.00    +0.000 A 
ATOM      9  N   UNL     1       4.465   4.102  15.940  0.00  0.00    +0.000 NA
ATOM     10  N   UNL     1       3.680   4.598  16.878  0.00  0.00    +0.000 NA
ATOM     11  N   UNL     1       4.208   5.762  17.324  0.00  0.00    +0.000 N 
BRANCH   8  12
ATOM     12  C   UNL     1       6.617   4.656  14.852  0.00  0.00    +0.000 C 
ATOM     13  O   UNL     1       7.600   5.372  14.715  0.00  0.00    +0.000 OA
BRANCH  12  14
ATOM     14  O   UNL     1       6.383   3.528  14.117  0.00  0.00    +0.000 OA
ATOM     15  C   UNL     1       6.349   3.735  12.708  0.00  0.00    +0.000 C 
ENDBRANCH  12  14
ENDBRANCH   8  12
BRANCH   7  16
ATOM     16  C   UNL     1       6.374   7.082  17.025  0.00  0.00    +0.000 C 
BRANCH  16  18
ATOM     17  C   UNL     1       8.217   7.528  18.431  0.00  0.00    +0.000 C 
ATOM     18  O   UNL     1       7.277   6.555  17.990  0.00  0.00    +0.000 OA
ENDBRANCH  16  18
ENDBRANCH   7  16
ENDBRANCH   1  11
BRANCH   4  19
ATOM     19  C   UNL     1       0.659   8.965  20.555  0.00  0.00    +0.000 C 
ATOM     20  F   UNL     1      -0.154   8.206  21.339  0.00  0.00    +0.000 F 
ATOM     21  F   UNL     1       1.288   9.830  21.395  0.00  0.00    +0.000 F 
ATOM     22  F   UNL     1      -0.163   9.718  19.778  0.00  0.00    +0.000 F 
ENDBRANCH   4  19
BRANCH   6  23
ATOM     23  N   UNL     1       3.550   4.961  20.066  0.00  0.00    +0.000 N 
ATOM     24  O   UNL     1       4.784   4.860  20.093  0.00  0.00    +0.000 OA
ATOM     25  O   UNL     1       2.744   4.190  20.608  0.00  0.00    +0.000 OA
ENDBRANCH   6  23
TORSDOF 7
ENDMDL
