MODEL 1
REMARK VINA RESULT:      -6.0      0.000      0.000
REMARK  Name = 
REMARK  8 active torsions:
REMARK  status: ('A' for Active; 'I' for Inactive)
REMARK    1  A    between atoms: C_1  and  C_2
REMARK    2  A    between atoms: C_2  and  C_3
REMARK    3  A    between atoms: C_2  and  C_4
REMARK    4  A    between atoms: C_2  and  C_5
REMARK    5  A    between atoms: N_7  and  C_8
REMARK    6  A    between atoms: C_8  and  C_9
REMARK    7  A    between atoms: C_9  and  N_10
REMARK    8  A    between atoms: C_13  and  C_14
REMARK                            x       y       z     vdW  Elec       q    Type
REMARK                         _______ _______ _______ _____ _____    ______ ____
ROOT
ATOM      1  C   UNL     1       2.678   2.045  19.033  0.00  0.00    +0.000 C 
ENDROOT
BRANCH   1   2
ATOM      2  N   UNL     1       2.388   3.328  19.642  0.00  0.00    +0.000 N 
ATOM      3  C   UNL     1       2.355   3.585  20.981  0.00  0.00    +0.000 A 
ATOM      4  C   UNL     1       2.187   4.944  21.094  0.00  0.00    +0.000 A 
ATOM      5  C   UNL     1       2.111   5.419  19.764  0.00  0.00    +0.000 A 
ATOM      6  N   UNL     1       2.166   4.411  18.880  0.00  0.00    +0.000 NA
BRANCH   5   7
ATOM      7  C   UNL     1       2.019   6.854  19.337  0.00  0.00    +0.000 A 
ATOM      8  C   UNL     1       2.392   7.321  18.093  0.00  0.00    +0.000 A 
ATOM      9  C   UNL     1       2.247   8.736  17.986  0.00  0.00    +0.000 A 
ATOM     10  C   UNL     1       1.782   9.296  19.155  0.00  0.00    +0.000 A 
ATOM     11  S   UNL     1       1.483   8.116  20.354  0.00  0.00    +0.000 S 
ENDBRANCH   5   7
ENDBRANCH   1   2
BRANCH   1  12
ATOM     12  C   UNL     1       3.793   2.116  17.990  0.00  0.00    +0.000 C 
BRANCH  12  15
ATOM     13  C   UNL     1       5.060   4.123  17.334  0.00  0.00    +0.000 C 
ATOM     14  O   UNL     1       4.468   4.176  16.260  0.00  0.00    +0.000 OA
ATOM     15  N   UNL     1       4.765   3.157  18.274  0.00  0.00    +0.000 N 
ATOM     16  H   UNL     1       5.286   3.105  19.138  0.00  0.00    +0.000 HD
BRANCH  13  18
ATOM     17  C   UNL     1       6.090   5.359  19.239  0.00  0.00    +0.000 C 
ATOM     18  C   UNL     1       6.168   5.110  17.723  0.00  0.00    +0.000 C 
ATOM     19  C   UNL     1       5.952   6.437  16.981  0.00  0.00    +0.000 C 
ATOM     20  C   UNL     1       7.549   4.531  17.385  0.00  0.00    +0.000 C 
ENDBRANCH  13  18
ENDBRANCH  12  15
ENDBRANCH   1  12
TORSDOF 5
ENDMDL
MODEL 2
REMARK VINA RESULT:      -5.9      3.573      6.167
REMARK  Name = 
REMARK  8 active torsions:
REMARK  status: ('A' for Active; 'I' for Inactive)
REMARK    1  A    between atoms: C_1  and  C_2
REMARK    2  A    between atoms: C_2  and  C_3
REMARK    3  A    between atoms: C_2  and  C_4
REMARK    4  A    between atoms: C_2  and  C_5
REMARK    5  A    between atoms: N_7  and  C_8
REMARK    6  A    between atoms: C_8  and  C_9
REMARK    7  A    between atoms: C_9  and  N_10
REMARK    8  A    between atoms: C_13  and  C_14
REMARK                            x       y       z     vdW  Elec       q    Type
REMARK                         _______ _______ _______ _____ _____    ______ ____
ROOT
ATOM      1  C   UNL     1       6.209   5.437  18.865  0.00  0.00    +0.000 C 
ENDROOT
BRANCH   1   2
ATOM      2  N   UNL     1       5.835   5.626  17.478  0.00  0.00    +0.000 N 
ATOM      3  C   UNL     1       5.230   6.733  16.959  0.00  0.00    +0.000 A 
ATOM      4  C   UNL     1       5.198   6.536  15.600  0.00  0.00    +0.000 A 
ATOM      5  C   UNL     1       5.794   5.269  15.395  0.00  0.00    +0.000 A 
ATOM      6  N   UNL     1       6.119   4.688  16.560  0.00  0.00    +0.000 NA
BRANCH   5   7
ATOM      7  C   UNL     1       6.083   4.628  14.071  0.00  0.00    +0.000 A 
ATOM      8  C   UNL     1       5.243   3.732  13.441  0.00  0.00    +0.000 A 
ATOM      9  C   UNL     1       5.799   3.243  12.221  0.00  0.00    +0.000 A 
ATOM     10  C   UNL     1       7.044   3.773  11.974  0.00  0.00    +0.000 A 
ATOM     11  S   UNL     1       7.518   4.885  13.183  0.00  0.00    +0.000 S 
ENDBRANCH   5   7
ENDBRANCH   1   2
BRANCH   1  12
ATOM     12  C   UNL     1       5.396   4.345  19.560  0.00  0.00    +0.000 C 
BRANCH  12  15
ATOM     13  C   UNL     1       3.150   3.354  19.361  0.00  0.00    +0.000 C 
ATOM     14  O   UNL     1       3.583   2.249  19.671  0.00  0.00    +0.000 OA
ATOM     15  N   UNL     1       3.969   4.463  19.316  0.00  0.00    +0.000 N 
ATOM     16  H   UNL     1       3.604   5.360  19.024  0.00  0.00    +0.000 HD
BRANCH  13  18
ATOM     17  C   UNL     1       1.003   4.331  20.168  0.00  0.00    +0.000 C 
ATOM     18  C   UNL     1       1.680   3.599  18.997  0.00  0.00    +0.000 C 
ATOM     19  C   UNL     1       0.980   2.252  18.770  0.00  0.00    +0.000 C 
ATOM     20  C   UNL     1       1.575   4.472  17.738  0.00  0.00    +0.000 C 
ENDBRANCH  13  18
ENDBRANCH  12  15
ENDBRANCH   1  12
TORSDOF 5
ENDMDL
MODEL 3
REMARK VINA RESULT:      -5.8      3.450      6.192
REMARK  Name = 
REMARK  8 active torsions:
REMARK  status: ('A' for Active; 'I' for Inactive)
REMARK    1  A    between atoms: C_1  and  C_2
REMARK    2  A    between atoms: C_2  and  C_3
REMARK    3  A    between atoms: C_2  and  C_4
REMARK    4  A    between atoms: C_2  and  C_5
REMARK    5  A    between atoms: N_7  and  C_8
REMARK    6  A    between atoms: C_8  and  C_9
REMARK    7  A    between atoms: C_9  and  N_10
REMARK    8  A    between atoms: C_13  and  C_14
REMARK                            x       y       z     vdW  Elec       q    Type
REMARK                         _______ _______ _______ _____ _____    ______ ____
ROOT
ATOM      1  C   UNL     1       5.719   5.241  18.931  0.00  0.00    +0.000 C 
ENDROOT
BRANCH   1   2
ATOM      2  N   UNL     1       5.496   5.508  17.523  0.00  0.00    +0.000 N 
ATOM      3  C   UNL     1       5.017   6.672  16.999  0.00  0.00    +0.000 A 
ATOM      4  C   UNL     1       5.106   6.530  15.636  0.00  0.00    +0.000 A 
ATOM      5  C   UNL     1       5.638   5.235  15.433  0.00  0.00    +0.000 A 
ATOM      6  N   UNL     1       5.809   4.588  16.596  0.00  0.00    +0.000 NA
BRANCH   5   7
ATOM      7  C   UNL     1       6.015   4.627  14.115  0.00  0.00    +0.000 A 
ATOM      8  C   UNL     1       5.229   3.729  13.419  0.00  0.00    +0.000 A 
ATOM      9  C   UNL     1       5.863   3.276  12.225  0.00  0.00    +0.000 A 
ATOM     10  C   UNL     1       7.111   3.834  12.061  0.00  0.00    +0.000 A 
ATOM     11  S   UNL     1       7.493   4.928  13.316  0.00  0.00    +0.000 S 
ENDBRANCH   5   7
ENDBRANCH   1   2
BRANCH   1  12
ATOM     12  C   UNL     1       5.287   3.835  19.348  0.00  0.00    +0.000 C 
BRANCH  12  15
ATOM     13  C   UNL     1       2.931   3.116  19.376  0.00  0.00    +0.000 C 
ATOM     14  O   UNL     1       3.097   2.450  18.358  0.00  0.00    +0.000 OA
ATOM     15  N   UNL     1       3.971   3.808  19.962  0.00  0.00    +0.000 N 
ATOM     16  H   UNL     1       3.810   4.382  20.778  0.00  0.00    +0.000 HD
BRANCH  13  18
ATOM     17  C   UNL     1       1.274   4.734  20.298  0.00  0.00    +0.000 C 
ATOM     18  C   UNL     1       1.572   3.241  20.075  0.00  0.00    +0.000 C 
ATOM     19  C   UNL     1       1.631   2.530  21.434  0.00  0.00    +0.000 C 
ATOM     20  C   UNL     1       0.460   2.637  19.206  0.00  0.00    +0.000 C 
ENDBRANCH  13  18
ENDBRANCH  12  15
ENDBRANCH   1  12
TORSDOF 5
ENDMDL
MODEL 4
REMARK VINA RESULT:      -5.8      1.610      2.082
REMARK  Name = 
REMARK  8 active torsions:
REMARK  status: ('A' for Active; 'I' for Inactive)
REMARK    1  A    between atoms: C_1  and  C_2
REMARK    2  A    between atoms: C_2  and  C_3
REMARK    3  A    between atoms: C_2  and  C_4
REMARK    4  A    between atoms: C_2  and  C_5
REMARK    5  A    between atoms: N_7  and  C_8
REMARK    6  A    between atoms: C_8  and  C_9
REMARK    7  A    between atoms: C_9  and  N_10
REMARK    8  A    between atoms: C_13  and  C_14
REMARK                            x       y       z     vdW  Elec       q    Type
REMARK                         _______ _______ _______ _____ _____    ______ ____
ROOT
ATOM      1  C   UNL     1       3.615   2.996  19.864  0.00  0.00    +0.000 C 
ENDROOT
BRANCH   1   2
ATOM      2  N   UNL     1       2.943   4.035  19.109  0.00  0.00    +0.000 N 
ATOM      3  C   UNL     1       2.103   3.837  18.053  0.00  0.00    +0.000 A 
ATOM      4  C   UNL     1       1.593   5.075  17.746  0.00  0.00    +0.000 A 
ATOM      5  C   UNL     1       2.199   5.963  18.666  0.00  0.00    +0.000 A 
ATOM      6  N   UNL     1       3.079   5.326  19.453  0.00  0.00    +0.000 NA
BRANCH   5   7
ATOM      7  C   UNL     1       1.907   7.427  18.810  0.00  0.00    +0.000 A 
ATOM      8  C   UNL     1       2.039   8.350  17.793  0.00  0.00    +0.000 A 
ATOM      9  C   UNL     1       1.746   9.676  18.231  0.00  0.00    +0.000 A 
ATOM     10  C   UNL     1       1.414   9.715  19.566  0.00  0.00    +0.000 A 
ATOM     11  S   UNL     1       1.414   8.158  20.272  0.00  0.00    +0.000 S 
ENDBRANCH   5   7
ENDBRANCH   1   2
BRANCH   1  12
ATOM     12  C   UNL     1       5.136   3.048  19.728  0.00  0.00    +0.000 C 
BRANCH  12  15
ATOM     13  C   UNL     1       6.310   4.944  18.682  0.00  0.00    +0.000 C 
ATOM     14  O   UNL     1       6.675   5.355  19.780  0.00  0.00    +0.000 OA
ATOM     15  N   UNL     1       5.573   3.785  18.555  0.00  0.00    +0.000 N 
ATOM     16  H   UNL     1       5.249   3.479  17.648  0.00  0.00    +0.000 HD
BRANCH  13  18
ATOM     17  C   UNL     1       7.329   4.686  16.423  0.00  0.00    +0.000 C 
ATOM     18  C   UNL     1       6.631   5.674  17.372  0.00  0.00    +0.000 C 
ATOM     19  C   UNL     1       7.575   6.849  17.662  0.00  0.00    +0.000 C 
ATOM     20  C   UNL     1       5.342   6.178  16.706  0.00  0.00    +0.000 C 
ENDBRANCH  13  18
ENDBRANCH  12  15
ENDBRANCH   1  12
TORSDOF 5
ENDMDL
MODEL 5
REMARK VINA RESULT:      -5.7      3.618      6.351
REMARK  Name = 
REMARK  8 active torsions:
REMARK  status: ('A' for Active; 'I' for Inactive)
REMARK    1  A    between atoms: C_1  and  C_2
REMARK    2  A    between atoms: C_2  and  C_3
REMARK    3  A    between atoms: C_2  and  C_4
REMARK    4  A    between atoms: C_2  and  C_5
REMARK    5  A    between atoms: N_7  and  C_8
REMARK    6  A    between atoms: C_8  and  C_9
REMARK    7  A    between atoms: C_9  and  N_10
REMARK    8  A    between atoms: C_13  and  C_14
REMARK                            x       y       z     vdW  Elec       q    Type
REMARK                         _______ _______ _______ _____ _____    ______ ____
ROOT
ATOM      1  C   UNL     1       5.875   5.008  18.877  0.00  0.00    +0.000 C 
ENDROOT
BRANCH   1   2
ATOM      2  N   UNL     1       5.646   5.338  17.485  0.00  0.00    +0.000 N 
ATOM      3  C   UNL     1       5.200   6.538  17.013  0.00  0.00    +0.000 A 
ATOM      4  C   UNL     1       5.270   6.448  15.644  0.00  0.00    +0.000 A 
ATOM      5  C   UNL     1       5.755   5.145  15.383  0.00  0.00    +0.000 A 
ATOM      6  N   UNL     1       5.917   4.447  16.518  0.00  0.00    +0.000 NA
BRANCH   5   7
ATOM      7  C   UNL     1       6.097   4.578  14.038  0.00  0.00    +0.000 A 
ATOM      8  C   UNL     1       5.323   3.654  13.364  0.00  0.00    +0.000 A 
ATOM      9  C   UNL     1       5.920   3.252  12.132  0.00  0.00    +0.000 A 
ATOM     10  C   UNL     1       7.129   3.874  11.919  0.00  0.00    +0.000 A 
ATOM     11  S   UNL     1       7.518   4.965  13.175  0.00  0.00    +0.000 S 
ENDBRANCH   5   7
ENDBRANCH   1   2
BRANCH   1  12
ATOM     12  C   UNL     1       5.222   3.691  19.294  0.00  0.00    +0.000 C 
BRANCH  12  15
ATOM     13  C   UNL     1       3.169   3.055  20.497  0.00  0.00    +0.000 C 
ATOM     14  O   UNL     1       3.801   2.294  21.224  0.00  0.00    +0.000 OA
ATOM     15  N   UNL     1       3.795   3.819  19.534  0.00  0.00    +0.000 N 
ATOM     16  H   UNL     1       3.256   4.413  18.919  0.00  0.00    +0.000 HD
BRANCH  13  18
ATOM     17  C   UNL     1       1.006   2.511  19.384  0.00  0.00    +0.000 C 
ATOM     18  C   UNL     1       1.647   3.220  20.589  0.00  0.00    +0.000 C 
ATOM     19  C   UNL     1       1.292   4.713  20.544  0.00  0.00    +0.000 C 
ATOM     20  C   UNL     1       1.112   2.584  21.881  0.00  0.00    +0.000 C 
ENDBRANCH  13  18
ENDBRANCH  12  15
ENDBRANCH   1  12
TORSDOF 5
ENDMDL
MODEL 6
REMARK VINA RESULT:      -5.7      1.722      2.124
REMARK  Name = 
REMARK  8 active torsions:
REMARK  status: ('A' for Active; 'I' for Inactive)
REMARK    1  A    between atoms: C_1  and  C_2
REMARK    2  A    between atoms: C_2  and  C_3
REMARK    3  A    between atoms: C_2  and  C_4
REMARK    4  A    between atoms: C_2  and  C_5
REMARK    5  A    between atoms: N_7  and  C_8
REMARK    6  A    between atoms: C_8  and  C_9
REMARK    7  A    between atoms: C_9  and  N_10
REMARK    8  A    between atoms: C_13  and  C_14
REMARK                            x       y       z     vdW  Elec       q    Type
REMARK                         _______ _______ _______ _____ _____    ______ ____
ROOT
ATOM      1  C   UNL     1       4.436   3.363  19.576  0.00  0.00    +0.000 C 
ENDROOT
BRANCH   1   2
ATOM      2  N   UNL     1       3.388   4.338  19.806  0.00  0.00    +0.000 N 
ATOM      3  C   UNL     1       2.449   4.280  20.794  0.00  0.00    +0.000 A 
ATOM      4  C   UNL     1       1.763   5.467  20.724  0.00  0.00    +0.000 A 
ATOM      5  C   UNL     1       2.351   6.172  19.648  0.00  0.00    +0.000 A 
ATOM      6  N   UNL     1       3.302   5.441  19.046  0.00  0.00    +0.000 NA
BRANCH   5   7
ATOM      7  C   UNL     1       2.021   7.570  19.216  0.00  0.00    +0.000 A 
ATOM      8  C   UNL     1       2.335   8.096  17.978  0.00  0.00    +0.000 A 
ATOM      9  C   UNL     1       1.948   9.464  17.864  0.00  0.00    +0.000 A 
ATOM     10  C   UNL     1       1.366   9.933  19.021  0.00  0.00    +0.000 A 
ATOM     11  S   UNL     1       1.249   8.717  20.216  0.00  0.00    +0.000 S 
ENDBRANCH   5   7
ENDBRANCH   1   2
BRANCH   1  12
ATOM     12  C   UNL     1       5.674   3.963  18.909  0.00  0.00    +0.000 C 
BRANCH  12  15
ATOM     13  C   UNL     1       6.536   4.541  16.676  0.00  0.00    +0.000 C 
ATOM     14  O   UNL     1       7.694   4.474  17.078  0.00  0.00    +0.000 OA
ATOM     15  N   UNL     1       5.468   4.267  17.504  0.00  0.00    +0.000 N 
ATOM     16  H   UNL     1       4.519   4.362  17.168  0.00  0.00    +0.000 HD
BRANCH  13  18
ATOM     17  C   UNL     1       7.480   5.211  14.469  0.00  0.00    +0.000 C 
ATOM     18  C   UNL     1       6.177   4.934  15.238  0.00  0.00    +0.000 C 
ATOM     19  C   UNL     1       5.321   6.208  15.255  0.00  0.00    +0.000 C 
ATOM     20  C   UNL     1       5.421   3.794  14.540  0.00  0.00    +0.000 C 
ENDBRANCH  13  18
ENDBRANCH  12  15
ENDBRANCH   1  12
TORSDOF 5
ENDMDL
MODEL 7
REMARK VINA RESULT:      -5.7      5.354      6.837
REMARK  Name = 
REMARK  8 active torsions:
REMARK  status: ('A' for Active; 'I' for Inactive)
REMARK    1  A    between atoms: C_1  and  C_2
REMARK    2  A    between atoms: C_2  and  C_3
REMARK    3  A    between atoms: C_2  and  C_4
REMARK    4  A    between atoms: C_2  and  C_5
REMARK    5  A    between atoms: N_7  and  C_8
REMARK    6  A    between atoms: C_8  and  C_9
REMARK    7  A    between atoms: C_9  and  N_10
REMARK    8  A    between atoms: C_13  and  C_14
REMARK                            x       y       z     vdW  Elec       q    Type
REMARK                         _______ _______ _______ _____ _____    ______ ____
ROOT
ATOM      1  C   UNL     1       7.848   8.126  17.428  0.00  0.00    +0.000 C 
ENDROOT
BRANCH   1   2
ATOM      2  N   UNL     1       7.156   6.924  17.849  0.00  0.00    +0.000 N 
ATOM      3  C   UNL     1       7.578   6.058  18.815  0.00  0.00    +0.000 A 
ATOM      4  C   UNL     1       6.554   5.156  18.978  0.00  0.00    +0.000 A 
ATOM      5  C   UNL     1       5.562   5.551  18.050  0.00  0.00    +0.000 A 
ATOM      6  N   UNL     1       5.969   6.596  17.313  0.00  0.00    +0.000 NA
BRANCH   5   7
ATOM      7  C   UNL     1       4.200   4.942  17.894  0.00  0.00    +0.000 A 
ATOM      8  C   UNL     1       3.017   5.643  18.011  0.00  0.00    +0.000 A 
ATOM      9  C   UNL     1       1.877   4.797  17.868  0.00  0.00    +0.000 A 
ATOM     10  C   UNL     1       2.233   3.484  17.660  0.00  0.00    +0.000 A 
ATOM     11  S   UNL     1       3.929   3.284  17.595  0.00  0.00    +0.000 S 
ENDBRANCH   5   7
ENDBRANCH   1   2
BRANCH   1  12
ATOM     12  C   UNL     1       8.469   8.896  18.593  0.00  0.00    +0.000 C 
BRANCH  12  15
ATOM     13  C   UNL     1       9.487  11.073  19.135  0.00  0.00    +0.000 C 
ATOM     14  O   UNL     1       9.532  10.783  20.327  0.00  0.00    +0.000 OA
ATOM     15  N   UNL     1       9.010  10.184  18.194  0.00  0.00    +0.000 N 
ATOM     16  H   UNL     1       8.945  10.451  17.221  0.00  0.00    +0.000 HD
BRANCH  13  18
ATOM     17  C   UNL     1       8.783  13.062  17.808  0.00  0.00    +0.000 C 
ATOM     18  C   UNL     1       9.947  12.431  18.592  0.00  0.00    +0.000 C 
ATOM     19  C   UNL     1      11.139  12.225  17.648  0.00  0.00    +0.000 C 
ATOM     20  C   UNL     1      10.336  13.369  19.744  0.00  0.00    +0.000 C 
ENDBRANCH  13  18
ENDBRANCH  12  15
ENDBRANCH   1  12
TORSDOF 5
ENDMDL
MODEL 8
REMARK VINA RESULT:      -5.7      1.748      4.122
REMARK  Name = 
REMARK  8 active torsions:
REMARK  status: ('A' for Active; 'I' for Inactive)
REMARK    1  A    between atoms: C_1  and  C_2
REMARK    2  A    between atoms: C_2  and  C_3
REMARK    3  A    between atoms: C_2  and  C_4
REMARK    4  A    between atoms: C_2  and  C_5
REMARK    5  A    between atoms: N_7  and  C_8
REMARK    6  A    between atoms: C_8  and  C_9
REMARK    7  A    between atoms: C_9  and  N_10
REMARK    8  A    between atoms: C_13  and  C_14
REMARK                            x       y       z     vdW  Elec       q    Type
REMARK                         _______ _______ _______ _____ _____    ______ ____
ROOT
ATOM      1  C   UNL     1       5.314   4.172  17.936  0.00  0.00    +0.000 C 
ENDROOT
BRANCH   1   2
ATOM      2  N   UNL     1       4.776   5.486  17.645  0.00  0.00    +0.000 N 
ATOM      3  C   UNL     1       5.003   6.206  16.509  0.00  0.00    +0.000 A 
ATOM      4  C   UNL     1       4.191   7.310  16.601  0.00  0.00    +0.000 A 
ATOM      5  C   UNL     1       3.521   7.175  17.840  0.00  0.00    +0.000 A 
ATOM      6  N   UNL     1       3.940   6.087  18.506  0.00  0.00    +0.000 NA
BRANCH   5   7
ATOM      7  C   UNL     1       2.450   8.079  18.373  0.00  0.00    +0.000 A 
ATOM      8  C   UNL     1       1.811   9.051  17.629  0.00  0.00    +0.000 A 
ATOM      9  C   UNL     1       0.877   9.794  18.409  0.00  0.00    +0.000 A 
ATOM     10  C   UNL     1       0.847   9.371  19.718  0.00  0.00    +0.000 A 
ATOM     11  S   UNL     1       1.907   8.059  19.991  0.00  0.00    +0.000 S 
ENDBRANCH   5   7
ENDBRANCH   1   2
BRANCH   1  12
ATOM     12  C   UNL     1       4.301   3.049  17.714  0.00  0.00    +0.000 C 
BRANCH  12  15
ATOM     13  C   UNL     1       2.955   2.919  19.772  0.00  0.00    +0.000 C 
ATOM     14  O   UNL     1       3.918   2.498  20.405  0.00  0.00    +0.000 OA
ATOM     15  N   UNL     1       3.060   3.256  18.439  0.00  0.00    +0.000 N 
ATOM     16  H   UNL     1       2.248   3.567  17.922  0.00  0.00    +0.000 HD
BRANCH  13  18
ATOM     17  C   UNL     1       0.523   2.467  19.462  0.00  0.00    +0.000 C 
ATOM     18  C   UNL     1       1.566   3.104  20.396  0.00  0.00    +0.000 C 
ATOM     19  C   UNL     1       1.267   4.602  20.541  0.00  0.00    +0.000 C 
ATOM     20  C   UNL     1       1.494   2.412  21.766  0.00  0.00    +0.000 C 
ENDBRANCH  13  18
ENDBRANCH  12  15
ENDBRANCH   1  12
TORSDOF 5
ENDMDL
MODEL 9
REMARK VINA RESULT:      -5.6      3.048      4.575
REMARK  Name = 
REMARK  8 active torsions:
REMARK  status: ('A' for Active; 'I' for Inactive)
REMARK    1  A    between atoms: C_1  and  C_2
REMARK    2  A    between atoms: C_2  and  C_3
REMARK    3  A    between atoms: C_2  and  C_4
REMARK    4  A    between atoms: C_2  and  C_5
REMARK    5  A    between atoms: N_7  and  C_8
REMARK    6  A    between atoms: C_8  and  C_9
REMARK    7  A    between atoms: C_9  and  N_10
REMARK    8  A    between atoms: C_13  and  C_14
REMARK                            x       y       z     vdW  Elec       q    Type
REMARK                         _______ _______ _______ _____ _____    ______ ____
ROOT
ATOM      1  C   UNL     1       2.597   7.170  18.657  0.00  0.00    +0.000 C 
ENDROOT
BRANCH   1   2
ATOM      2  N   UNL     1       1.900   8.405  18.957  0.00  0.00    +0.000 N 
ATOM      3  C   UNL     1       1.497   9.335  18.044  0.00  0.00    +0.000 A 
ATOM      4  C   UNL     1       0.761  10.254  18.751  0.00  0.00    +0.000 A 
ATOM      5  C   UNL     1       0.791   9.802  20.091  0.00  0.00    +0.000 A 
ATOM      6  N   UNL     1       1.552   8.703  20.219  0.00  0.00    +0.000 NA
BRANCH   5   7
ATOM      7  C   UNL     1       0.059  10.409  21.250  0.00  0.00    +0.000 A 
ATOM      8  C   UNL     1      -0.415   9.693  22.331  0.00  0.00    +0.000 A 
ATOM      9  C   UNL     1      -1.119  10.522  23.255  0.00  0.00    +0.000 A 
ATOM     10  C   UNL     1      -1.166  11.833  22.837  0.00  0.00    +0.000 A 
ATOM     11  S   UNL     1      -0.329  12.067  21.366  0.00  0.00    +0.000 S 
ENDBRANCH   5   7
ENDBRANCH   1   2
BRANCH   1  12
ATOM     12  C   UNL     1       3.632   7.323  17.543  0.00  0.00    +0.000 C 
BRANCH  12  15
ATOM     13  C   UNL     1       5.102   5.945  16.127  0.00  0.00    +0.000 C 
ATOM     14  O   UNL     1       5.208   6.854  15.309  0.00  0.00    +0.000 OA
ATOM     15  N   UNL     1       4.371   6.099  17.286  0.00  0.00    +0.000 N 
ATOM     16  H   UNL     1       4.262   5.329  17.932  0.00  0.00    +0.000 HD
BRANCH  13  18
ATOM     17  C   UNL     1       4.894   3.514  16.638  0.00  0.00    +0.000 C 
ATOM     18  C   UNL     1       5.760   4.573  15.935  0.00  0.00    +0.000 C 
ATOM     19  C   UNL     1       7.158   4.585  16.570  0.00  0.00    +0.000 C 
ATOM     20  C   UNL     1       5.856   4.225  14.442  0.00  0.00    +0.000 C 
ENDBRANCH  13  18
ENDBRANCH  12  15
ENDBRANCH   1  12
TORSDOF 5
ENDMDL
