MODEL 1
REMARK VINA RESULT:      -7.2      0.000      0.000
REMARK  Name = 
REMARK  0 active torsions:
REMARK  status: ('A' for Active; 'I' for Inactive)
REMARK                            x       y       z     vdW  Elec       q    Type
REMARK                         _______ _______ _______ _____ _____    ______ ____
ROOT
ATOM      1  O   UNL     1       2.828   6.959  18.990  0.00  0.00    +0.000 OA
ATOM      2  C   UNL     1       3.106   5.823  18.625  0.00  0.00    +0.000 C 
ATOM      3  C   UNL     1       2.597   4.634  19.358  0.00  0.00    +0.000 C 
ATOM      4  C   UNL     1       2.917   3.387  18.976  0.00  0.00    +0.000 C 
ATOM      5  O   UNL     1       2.491   2.255  19.652  0.00  0.00    +0.000 OA
ATOM      6  C   UNL     1       2.065   2.485  20.996  0.00  0.00    +0.000 C 
ATOM      7  C   UNL     1       1.059   3.619  21.060  0.00  0.00    +0.000 C 
ATOM      8  C   UNL     1       1.703   4.900  20.537  0.00  0.00    +0.000 C 
ATOM      9  C   UNL     1       3.768   3.140  17.778  0.00  0.00    +0.000 C 
ATOM     10  O   UNL     1       4.049   2.005  17.408  0.00  0.00    +0.000 OA
ATOM     11  C   UNL     1       4.285   4.305  17.042  0.00  0.00    +0.000 A 
ATOM     12  C   UNL     1       5.111   4.101  15.929  0.00  0.00    +0.000 A 
ATOM     13  C   UNL     1       5.617   5.190  15.223  0.00  0.00    +0.000 A 
ATOM     14  C   UNL     1       5.299   6.487  15.624  0.00  0.00    +0.000 A 
ATOM     15  C   UNL     1       4.477   6.694  16.735  0.00  0.00    +0.000 A 
ATOM     16  C   UNL     1       3.969   5.599  17.448  0.00  0.00    +0.000 A 
ENDROOT
TORSDOF 0
ENDMDL
MODEL 2
REMARK VINA RESULT:      -7.2      0.956      4.625
REMARK  Name = 
REMARK  0 active torsions:
REMARK  status: ('A' for Active; 'I' for Inactive)
REMARK                            x       y       z     vdW  Elec       q    Type
REMARK                         _______ _______ _______ _____ _____    ______ ____
ROOT
ATOM      1  O   UNL     1       3.226   6.903  18.243  0.00  0.00    +0.000 OA
ATOM      2  C   UNL     1       3.393   5.698  18.104  0.00  0.00    +0.000 C 
ATOM      3  C   UNL     1       4.347   5.166  17.096  0.00  0.00    +0.000 C 
ATOM      4  C   UNL     1       4.518   3.845  16.923  0.00  0.00    +0.000 C 
ATOM      5  O   UNL     1       5.371   3.309  15.972  0.00  0.00    +0.000 OA
ATOM      6  C   UNL     1       5.725   4.202  14.914  0.00  0.00    +0.000 C 
ATOM      7  C   UNL     1       6.218   5.527  15.464  0.00  0.00    +0.000 C 
ATOM      8  C   UNL     1       5.112   6.179  16.290  0.00  0.00    +0.000 C 
ATOM      9  C   UNL     1       3.784   2.854  17.761  0.00  0.00    +0.000 C 
ATOM     10  O   UNL     1       3.948   1.647  17.626  0.00  0.00    +0.000 OA
ATOM     11  C   UNL     1       2.832   3.363  18.762  0.00  0.00    +0.000 A 
ATOM     12  C   UNL     1       2.108   2.453  19.542  0.00  0.00    +0.000 A 
ATOM     13  C   UNL     1       1.197   2.912  20.491  0.00  0.00    +0.000 A 
ATOM     14  C   UNL     1       1.006   4.282  20.663  0.00  0.00    +0.000 A 
ATOM     15  C   UNL     1       1.724   5.193  19.885  0.00  0.00    +0.000 A 
ATOM     16  C   UNL     1       2.641   4.732  18.929  0.00  0.00    +0.000 A 
ENDROOT
TORSDOF 0
ENDMDL
MODEL 3
REMARK VINA RESULT:      -7.2      1.808      4.706
REMARK  Name = 
REMARK  0 active torsions:
REMARK  status: ('A' for Active; 'I' for Inactive)
REMARK                            x       y       z     vdW  Elec       q    Type
REMARK                         _______ _______ _______ _____ _____    ______ ____
ROOT
ATOM      1  O   UNL     1       3.115   7.020  18.246  0.00  0.00    +0.000 OA
ATOM      2  C   UNL     1       3.606   5.959  18.613  0.00  0.00    +0.000 C 
ATOM      3  C   UNL     1       5.012   5.608  18.284  0.00  0.00    +0.000 C 
ATOM      4  C   UNL     1       5.549   4.437  18.664  0.00  0.00    +0.000 C 
ATOM      5  O   UNL     1       6.844   4.059  18.349  0.00  0.00    +0.000 OA
ATOM      6  C   UNL     1       7.424   4.768  17.253  0.00  0.00    +0.000 C 
ATOM      7  C   UNL     1       7.281   6.268  17.440  0.00  0.00    +0.000 C 
ATOM      8  C   UNL     1       5.800   6.631  17.514  0.00  0.00    +0.000 C 
ATOM      9  C   UNL     1       4.766   3.453  19.466  0.00  0.00    +0.000 C 
ATOM     10  O   UNL     1       5.253   2.390  19.836  0.00  0.00    +0.000 OA
ATOM     11  C   UNL     1       3.371   3.782  19.797  0.00  0.00    +0.000 A 
ATOM     12  C   UNL     1       2.606   2.861  20.525  0.00  0.00    +0.000 A 
ATOM     13  C   UNL     1       1.280   3.149  20.843  0.00  0.00    +0.000 A 
ATOM     14  C   UNL     1       0.715   4.358  20.438  0.00  0.00    +0.000 A 
ATOM     15  C   UNL     1       1.475   5.277  19.711  0.00  0.00    +0.000 A 
ATOM     16  C   UNL     1       2.808   4.988  19.387  0.00  0.00    +0.000 A 
ENDROOT
TORSDOF 0
ENDMDL
MODEL 4
REMARK VINA RESULT:      -7.1      0.844      2.791
REMARK  Name = 
REMARK  0 active torsions:
REMARK  status: ('A' for Active; 'I' for Inactive)
REMARK                            x       y       z     vdW  Elec       q    Type
REMARK                         _______ _______ _______ _____ _____    ______ ____
ROOT
ATOM      1  O   UNL     1       3.945   1.825  17.626  0.00  0.00    +0.000 OA
ATOM      2  C   UNL     1       3.767   3.022  17.817  0.00  0.00    +0.000 C 
ATOM      3  C   UNL     1       2.869   3.501  18.900  0.00  0.00    +0.000 C 
ATOM      4  C   UNL     1       2.653   4.812  19.102  0.00  0.00    +0.000 C 
ATOM      5  O   UNL     1       1.797   5.297  20.078  0.00  0.00    +0.000 OA
ATOM      6  C   UNL     1       0.843   4.351  20.563  0.00  0.00    +0.000 C 
ATOM      7  C   UNL     1       1.522   3.056  20.970  0.00  0.00    +0.000 C 
ATOM      8  C   UNL     1       2.225   2.448  19.759  0.00  0.00    +0.000 C 
ATOM      9  C   UNL     1       3.334   5.844  18.269  0.00  0.00    +0.000 C 
ATOM     10  O   UNL     1       3.160   7.043  18.458  0.00  0.00    +0.000 OA
ATOM     11  C   UNL     1       4.224   5.388  17.190  0.00  0.00    +0.000 A 
ATOM     12  C   UNL     1       4.853   6.337  16.375  0.00  0.00    +0.000 A 
ATOM     13  C   UNL     1       5.694   5.927  15.342  0.00  0.00    +0.000 A 
ATOM     14  C   UNL     1       5.910   4.568  15.121  0.00  0.00    +0.000 A 
ATOM     15  C   UNL     1       5.282   3.618  15.930  0.00  0.00    +0.000 A 
ATOM     16  C   UNL     1       4.434   4.029  16.969  0.00  0.00    +0.000 A 
ENDROOT
TORSDOF 0
ENDMDL
MODEL 5
REMARK VINA RESULT:      -7.0      0.821      5.378
REMARK  Name = 
REMARK  0 active torsions:
REMARK  status: ('A' for Active; 'I' for Inactive)
REMARK                            x       y       z     vdW  Elec       q    Type
REMARK                         _______ _______ _______ _____ _____    ______ ____
ROOT
ATOM      1  O   UNL     1       4.040   2.075  17.367  0.00  0.00    +0.000 OA
ATOM      2  C   UNL     1       3.740   3.204  17.735  0.00  0.00    +0.000 C 
ATOM      3  C   UNL     1       4.298   4.405  17.059  0.00  0.00    +0.000 C 
ATOM      4  C   UNL     1       3.990   5.646  17.471  0.00  0.00    +0.000 C 
ATOM      5  O   UNL     1       4.515   6.789  16.890  0.00  0.00    +0.000 OA
ATOM      6  C   UNL     1       5.709   6.582  16.133  0.00  0.00    +0.000 C 
ATOM      7  C   UNL     1       5.532   5.448  15.139  0.00  0.00    +0.000 C 
ATOM      8  C   UNL     1       5.213   4.159  15.892  0.00  0.00    +0.000 C 
ATOM      9  C   UNL     1       3.046   5.873  18.602  0.00  0.00    +0.000 C 
ATOM     10  O   UNL     1       2.742   7.001  18.972  0.00  0.00    +0.000 OA
ATOM     11  C   UNL     1       2.487   4.696  19.285  0.00  0.00    +0.000 A 
ATOM     12  C   UNL     1       1.620   4.882  20.369  0.00  0.00    +0.000 A 
ATOM     13  C   UNL     1       1.085   3.781  21.035  0.00  0.00    +0.000 A 
ATOM     14  C   UNL     1       1.413   2.491  20.620  0.00  0.00    +0.000 A 
ATOM     15  C   UNL     1       2.279   2.302  19.540  0.00  0.00    +0.000 A 
ATOM     16  C   UNL     1       2.820   3.409  18.870  0.00  0.00    +0.000 A 
ENDROOT
TORSDOF 0
ENDMDL
MODEL 6
REMARK VINA RESULT:      -7.0      0.913      1.194
REMARK  Name = 
REMARK  0 active torsions:
REMARK  status: ('A' for Active; 'I' for Inactive)
REMARK                            x       y       z     vdW  Elec       q    Type
REMARK                         _______ _______ _______ _____ _____    ______ ____
ROOT
ATOM      1  O   UNL     1       3.783   7.390  17.771  0.00  0.00    +0.000 OA
ATOM      2  C   UNL     1       3.816   6.166  17.796  0.00  0.00    +0.000 C 
ATOM      3  C   UNL     1       3.091   5.400  18.843  0.00  0.00    +0.000 C 
ATOM      4  C   UNL     1       3.142   4.058  18.890  0.00  0.00    +0.000 C 
ATOM      5  O   UNL     1       2.508   3.310  19.869  0.00  0.00    +0.000 OA
ATOM      6  C   UNL     1       2.167   4.036  21.051  0.00  0.00    +0.000 C 
ATOM      7  C   UNL     1       1.415   5.309  20.708  0.00  0.00    +0.000 C 
ATOM      8  C   UNL     1       2.296   6.200  19.837  0.00  0.00    +0.000 C 
ATOM      9  C   UNL     1       3.899   3.278  17.870  0.00  0.00    +0.000 C 
ATOM     10  O   UNL     1       3.935   2.052  17.891  0.00  0.00    +0.000 OA
ATOM     11  C   UNL     1       4.626   4.020  16.828  0.00  0.00    +0.000 A 
ATOM     12  C   UNL     1       5.369   3.311  15.876  0.00  0.00    +0.000 A 
ATOM     13  C   UNL     1       6.071   3.994  14.885  0.00  0.00    +0.000 A 
ATOM     14  C   UNL     1       6.033   5.387  14.841  0.00  0.00    +0.000 A 
ATOM     15  C   UNL     1       5.294   6.098  15.791  0.00  0.00    +0.000 A 
ATOM     16  C   UNL     1       4.589   5.411  16.790  0.00  0.00    +0.000 A 
ENDROOT
TORSDOF 0
ENDMDL
MODEL 7
REMARK VINA RESULT:      -7.0      1.731      2.636
REMARK  Name = 
REMARK  0 active torsions:
REMARK  status: ('A' for Active; 'I' for Inactive)
REMARK                            x       y       z     vdW  Elec       q    Type
REMARK                         _______ _______ _______ _____ _____    ______ ____
ROOT
ATOM      1  O   UNL     1       2.432   3.149  16.298  0.00  0.00    +0.000 OA
ATOM      2  C   UNL     1       3.190   3.681  17.100  0.00  0.00    +0.000 C 
ATOM      3  C   UNL     1       2.741   4.009  18.479  0.00  0.00    +0.000 C 
ATOM      4  C   UNL     1       3.560   4.612  19.356  0.00  0.00    +0.000 C 
ATOM      5  O   UNL     1       3.170   4.965  20.638  0.00  0.00    +0.000 OA
ATOM      6  C   UNL     1       1.757   5.049  20.832  0.00  0.00    +0.000 C 
ATOM      7  C   UNL     1       1.065   3.794  20.333  0.00  0.00    +0.000 C 
ATOM      8  C   UNL     1       1.333   3.625  18.840  0.00  0.00    +0.000 C 
ATOM      9  C   UNL     1       4.968   4.945  18.996  0.00  0.00    +0.000 C 
ATOM     10  O   UNL     1       5.730   5.477  19.795  0.00  0.00    +0.000 OA
ATOM     11  C   UNL     1       5.428   4.631  17.634  0.00  0.00    +0.000 A 
ATOM     12  C   UNL     1       6.737   4.961  17.261  0.00  0.00    +0.000 A 
ATOM     13  C   UNL     1       7.191   4.679  15.974  0.00  0.00    +0.000 A 
ATOM     14  C   UNL     1       6.340   4.066  15.056  0.00  0.00    +0.000 A 
ATOM     15  C   UNL     1       5.033   3.738  15.424  0.00  0.00    +0.000 A 
ATOM     16  C   UNL     1       4.574   4.023  16.718  0.00  0.00    +0.000 A 
ENDROOT
TORSDOF 0
ENDMDL
MODEL 8
REMARK VINA RESULT:      -6.8      1.291      5.326
REMARK  Name = 
REMARK  0 active torsions:
REMARK  status: ('A' for Active; 'I' for Inactive)
REMARK                            x       y       z     vdW  Elec       q    Type
REMARK                         _______ _______ _______ _____ _____    ______ ____
ROOT
ATOM      1  O   UNL     1       3.825   2.035  17.724  0.00  0.00    +0.000 OA
ATOM      2  C   UNL     1       3.793   3.259  17.760  0.00  0.00    +0.000 C 
ATOM      3  C   UNL     1       4.589   4.076  16.807  0.00  0.00    +0.000 C 
ATOM      4  C   UNL     1       4.577   5.418  16.856  0.00  0.00    +0.000 C 
ATOM      5  O   UNL     1       5.330   6.214  16.008  0.00  0.00    +0.000 OA
ATOM      6  C   UNL     1       6.429   5.550  15.382  0.00  0.00    +0.000 C 
ATOM      7  C   UNL     1       5.979   4.257  14.726  0.00  0.00    +0.000 C 
ATOM      8  C   UNL     1       5.398   3.325  15.786  0.00  0.00    +0.000 C 
ATOM      9  C   UNL     1       3.735   6.148  17.846  0.00  0.00    +0.000 C 
ATOM     10  O   UNL     1       3.699   7.372  17.886  0.00  0.00    +0.000 OA
ATOM     11  C   UNL     1       2.943   5.355  18.801  0.00  0.00    +0.000 A 
ATOM     12  C   UNL     1       2.166   6.016  19.760  0.00  0.00    +0.000 A 
ATOM     13  C   UNL     1       1.414   5.285  20.678  0.00  0.00    +0.000 A 
ATOM     14  C   UNL     1       1.435   3.892  20.640  0.00  0.00    +0.000 A 
ATOM     15  C   UNL     1       2.211   3.229  19.686  0.00  0.00    +0.000 A 
ATOM     16  C   UNL     1       2.970   3.963  18.762  0.00  0.00    +0.000 A 
ENDROOT
TORSDOF 0
ENDMDL
MODEL 9
REMARK VINA RESULT:      -6.7      1.764      5.167
REMARK  Name = 
REMARK  0 active torsions:
REMARK  status: ('A' for Active; 'I' for Inactive)
REMARK                            x       y       z     vdW  Elec       q    Type
REMARK                         _______ _______ _______ _____ _____    ______ ____
ROOT
ATOM      1  O   UNL     1       2.547   2.967  16.177  0.00  0.00    +0.000 OA
ATOM      2  C   UNL     1       3.186   3.565  17.035  0.00  0.00    +0.000 C 
ATOM      3  C   UNL     1       4.551   4.082  16.753  0.00  0.00    +0.000 C 
ATOM      4  C   UNL     1       5.266   4.720  17.695  0.00  0.00    +0.000 C 
ATOM      5  O   UNL     1       6.553   5.187  17.483  0.00  0.00    +0.000 OA
ATOM      6  C   UNL     1       7.233   4.588  16.379  0.00  0.00    +0.000 C 
ATOM      7  C   UNL     1       6.378   4.634  15.125  0.00  0.00    +0.000 C 
ATOM      8  C   UNL     1       5.083   3.863  15.364  0.00  0.00    +0.000 C 
ATOM      9  C   UNL     1       4.705   4.967  19.054  0.00  0.00    +0.000 C 
ATOM     10  O   UNL     1       5.340   5.567  19.915  0.00  0.00    +0.000 OA
ATOM     11  C   UNL     1       3.357   4.459  19.352  0.00  0.00    +0.000 A 
ATOM     12  C   UNL     1       2.819   4.653  20.630  0.00  0.00    +0.000 A 
ATOM     13  C   UNL     1       1.547   4.173  20.936  0.00  0.00    +0.000 A 
ATOM     14  C   UNL     1       0.807   3.499  19.965  0.00  0.00    +0.000 A 
ATOM     15  C   UNL     1       1.342   3.301  18.690  0.00  0.00    +0.000 A 
ATOM     16  C   UNL     1       2.623   3.782  18.381  0.00  0.00    +0.000 A 
ENDROOT
TORSDOF 0
ENDMDL
