MODEL 1
REMARK VINA RESULT:      -6.5      0.000      0.000
REMARK  Name = 
REMARK  9 active torsions:
REMARK  status: ('A' for Active; 'I' for Inactive)
REMARK    1  A    between atoms: C_1  and  N_2
REMARK    2  A    between atoms: N_2  and  C_3
REMARK    3  A    between atoms: C_3  and  C_4
REMARK    4  A    between atoms: C_4  and  C_5
REMARK    5  A    between atoms: C_4  and  C_6
REMARK    6  A    between atoms: C_4  and  C_8
REMARK    7  A    between atoms: C_6  and  O_7
REMARK    8  A    between atoms: C_8  and  O_9
REMARK    9  A    between atoms: C_10  and  C_12
REMARK                            x       y       z     vdW  Elec       q    Type
REMARK                         _______ _______ _______ _____ _____    ______ ____
ROOT
ATOM      1  C   UNL     1       4.844   6.227  15.736  0.00  0.00    +0.000 C 
ATOM      2  N   UNL     1       4.976   5.548  17.016  0.00  0.00    +0.000 N 
ATOM      3  C   UNL     1       4.267   4.327  17.105  0.00  0.00    +0.000 C 
ATOM      4  O   UNL     1       3.760   3.829  16.093  0.00  0.00    +0.000 OA
ENDROOT
BRANCH   3   5
ATOM      5  C   UNL     1       4.133   3.628  18.380  0.00  0.00    +0.000 A 
ATOM      6  C   UNL     1       5.104   2.935  19.082  0.00  0.00    +0.000 A 
ATOM      7  O   UNL     1       4.611   2.390  20.219  0.00  0.00    +0.000 OA
ATOM      8  C   UNL     1       3.332   2.830  20.337  0.00  0.00    +0.000 A 
ATOM      9  C   UNL     1       2.488   2.543  21.406  0.00  0.00    +0.000 A 
ATOM     10  C   UNL     1       1.235   3.160  21.392  0.00  0.00    +0.000 A 
ATOM     11  C   UNL     1       0.859   4.001  20.342  0.00  0.00    +0.000 A 
ATOM     12  C   UNL     1       1.721   4.239  19.259  0.00  0.00    +0.000 A 
ATOM     13  C   UNL     1       2.995   3.637  19.257  0.00  0.00    +0.000 A 
ENDBRANCH   3   5
BRANCH   2  14
ATOM     14  C   UNL     1       5.733   6.224  18.086  0.00  0.00    +0.000 C 
BRANCH  14  15
ATOM     15  C   UNL     1       7.286   6.260  17.975  0.00  0.00    +0.000 C 
ATOM     16  C   UNL     1       7.774   7.586  17.365  0.00  0.00    +0.000 C 
BRANCH  15  17
ATOM     17  C   UNL     1       7.985   6.032  19.332  0.00  0.00    +0.000 C 
BRANCH  17  18
ATOM     18  O   UNL     1       7.178   5.268  20.226  0.00  0.00    +0.000 OA
ATOM     19  H   UNL     1       6.432   5.824  20.514  0.00  0.00    +0.000 HD
ENDBRANCH  17  18
ENDBRANCH  15  17
BRANCH  15  20
ATOM     20  C   UNL     1       7.710   5.119  17.005  0.00  0.00    +0.000 C 
BRANCH  20  21
ATOM     21  O   UNL     1       8.273   4.010  17.694  0.00  0.00    +0.000 OA
ATOM     22  H   UNL     1       8.407   4.301  18.622  0.00  0.00    +0.000 HD
ENDBRANCH  20  21
ENDBRANCH  15  20
ENDBRANCH  14  15
ENDBRANCH   2  14
TORSDOF 7
ENDMDL
MODEL 2
REMARK VINA RESULT:      -6.4      2.611      3.344
REMARK  Name = 
REMARK  9 active torsions:
REMARK  status: ('A' for Active; 'I' for Inactive)
REMARK    1  A    between atoms: C_1  and  N_2
REMARK    2  A    between atoms: N_2  and  C_3
REMARK    3  A    between atoms: C_3  and  C_4
REMARK    4  A    between atoms: C_4  and  C_5
REMARK    5  A    between atoms: C_4  and  C_6
REMARK    6  A    between atoms: C_4  and  C_8
REMARK    7  A    between atoms: C_6  and  O_7
REMARK    8  A    between atoms: C_8  and  O_9
REMARK    9  A    between atoms: C_10  and  C_12
REMARK                            x       y       z     vdW  Elec       q    Type
REMARK                         _______ _______ _______ _____ _____    ______ ____
ROOT
ATOM      1  C   UNL     1       4.752   3.452  16.476  0.00  0.00    +0.000 C 
ATOM      2  N   UNL     1       4.407   4.179  17.689  0.00  0.00    +0.000 N 
ATOM      3  C   UNL     1       3.024   4.438  17.841  0.00  0.00    +0.000 C 
ATOM      4  O   UNL     1       2.206   3.901  17.086  0.00  0.00    +0.000 OA
ENDROOT
BRANCH   3   5
ATOM      5  C   UNL     1       2.539   5.326  18.894  0.00  0.00    +0.000 A 
ATOM      6  C   UNL     1       2.381   5.050  20.240  0.00  0.00    +0.000 A 
ATOM      7  O   UNL     1       1.879   6.110  20.916  0.00  0.00    +0.000 OA
ATOM      8  C   UNL     1       1.820   7.140  20.034  0.00  0.00    +0.000 A 
ATOM      9  C   UNL     1       1.410   8.433  20.347  0.00  0.00    +0.000 A 
ATOM     10  C   UNL     1       1.501   9.379  19.324  0.00  0.00    +0.000 A 
ATOM     11  C   UNL     1       1.961   9.024  18.054  0.00  0.00    +0.000 A 
ATOM     12  C   UNL     1       2.331   7.700  17.761  0.00  0.00    +0.000 A 
ATOM     13  C   UNL     1       2.258   6.730  18.781  0.00  0.00    +0.000 A 
ENDBRANCH   3   5
BRANCH   2  14
ATOM     14  C   UNL     1       5.505   4.639  18.559  0.00  0.00    +0.000 C 
BRANCH  14  15
ATOM     15  C   UNL     1       6.561   5.611  17.956  0.00  0.00    +0.000 C 
ATOM     16  C   UNL     1       5.891   6.724  17.132  0.00  0.00    +0.000 C 
BRANCH  15  17
ATOM     17  C   UNL     1       7.470   6.244  19.031  0.00  0.00    +0.000 C 
BRANCH  17  18
ATOM     18  O   UNL     1       7.637   5.389  20.160  0.00  0.00    +0.000 OA
ATOM     19  H   UNL     1       8.446   4.863  20.026  0.00  0.00    +0.000 HD
ENDBRANCH  17  18
ENDBRANCH  15  17
BRANCH  15  20
ATOM     20  C   UNL     1       7.452   4.785  16.983  0.00  0.00    +0.000 C 
BRANCH  20  21
ATOM     21  O   UNL     1       8.364   3.941  17.675  0.00  0.00    +0.000 OA
ATOM     22  H   UNL     1       8.222   3.035  17.325  0.00  0.00    +0.000 HD
ENDBRANCH  20  21
ENDBRANCH  15  20
ENDBRANCH  14  15
ENDBRANCH   2  14
TORSDOF 7
ENDMDL
MODEL 3
REMARK VINA RESULT:      -6.3      2.153      3.547
REMARK  Name = 
REMARK  9 active torsions:
REMARK  status: ('A' for Active; 'I' for Inactive)
REMARK    1  A    between atoms: C_1  and  N_2
REMARK    2  A    between atoms: N_2  and  C_3
REMARK    3  A    between atoms: C_3  and  C_4
REMARK    4  A    between atoms: C_4  and  C_5
REMARK    5  A    between atoms: C_4  and  C_6
REMARK    6  A    between atoms: C_4  and  C_8
REMARK    7  A    between atoms: C_6  and  O_7
REMARK    8  A    between atoms: C_8  and  O_9
REMARK    9  A    between atoms: C_10  and  C_12
REMARK                            x       y       z     vdW  Elec       q    Type
REMARK                         _______ _______ _______ _____ _____    ______ ____
ROOT
ATOM      1  C   UNL     1       7.961   4.391  17.920  0.00  0.00    +0.000 C 
ATOM      2  N   UNL     1       6.523   4.550  17.768  0.00  0.00    +0.000 N 
ATOM      3  C   UNL     1       5.860   5.017  18.928  0.00  0.00    +0.000 C 
ATOM      4  O   UNL     1       6.515   5.429  19.892  0.00  0.00    +0.000 OA
ENDROOT
BRANCH   3   5
ATOM      5  C   UNL     1       4.402   5.037  19.003  0.00  0.00    +0.000 A 
ATOM      6  C   UNL     1       3.559   6.133  18.970  0.00  0.00    +0.000 A 
ATOM      7  O   UNL     1       2.260   5.772  19.091  0.00  0.00    +0.000 OA
ATOM      8  C   UNL     1       2.230   4.415  19.079  0.00  0.00    +0.000 A 
ATOM      9  C   UNL     1       1.073   3.644  19.126  0.00  0.00    +0.000 A 
ATOM     10  C   UNL     1       1.242   2.262  19.014  0.00  0.00    +0.000 A 
ATOM     11  C   UNL     1       2.514   1.700  18.884  0.00  0.00    +0.000 A 
ATOM     12  C   UNL     1       3.665   2.506  18.879  0.00  0.00    +0.000 A 
ATOM     13  C   UNL     1       3.519   3.904  18.979  0.00  0.00    +0.000 A 
ENDBRANCH   3   5
BRANCH   2  14
ATOM     14  C   UNL     1       5.909   4.131  16.494  0.00  0.00    +0.000 C 
BRANCH  14  15
ATOM     15  C   UNL     1       6.066   5.068  15.261  0.00  0.00    +0.000 C 
ATOM     16  C   UNL     1       5.227   6.348  15.419  0.00  0.00    +0.000 C 
BRANCH  15  17
ATOM     17  C   UNL     1       7.536   5.450  14.987  0.00  0.00    +0.000 C 
BRANCH  17  18
ATOM     18  O   UNL     1       7.812   5.544  13.590  0.00  0.00    +0.000 OA
ATOM     19  H   UNL     1       8.495   6.225  13.460  0.00  0.00    +0.000 HD
ENDBRANCH  17  18
ENDBRANCH  15  17
BRANCH  15  20
ATOM     20  C   UNL     1       5.517   4.303  14.022  0.00  0.00    +0.000 C 
BRANCH  20  21
ATOM     21  O   UNL     1       6.334   3.193  13.670  0.00  0.00    +0.000 OA
ATOM     22  H   UNL     1       5.724   2.490  13.357  0.00  0.00    +0.000 HD
ENDBRANCH  20  21
ENDBRANCH  15  20
ENDBRANCH  14  15
ENDBRANCH   2  14
TORSDOF 7
ENDMDL
MODEL 4
REMARK VINA RESULT:      -6.2      2.482      3.019
REMARK  Name = 
REMARK  9 active torsions:
REMARK  status: ('A' for Active; 'I' for Inactive)
REMARK    1  A    between atoms: C_1  and  N_2
REMARK    2  A    between atoms: N_2  and  C_3
REMARK    3  A    between atoms: C_3  and  C_4
REMARK    4  A    between atoms: C_4  and  C_5
REMARK    5  A    between atoms: C_4  and  C_6
REMARK    6  A    between atoms: C_4  and  C_8
REMARK    7  A    between atoms: C_6  and  O_7
REMARK    8  A    between atoms: C_8  and  O_9
REMARK    9  A    between atoms: C_10  and  C_12
REMARK                            x       y       z     vdW  Elec       q    Type
REMARK                         _______ _______ _______ _____ _____    ______ ____
ROOT
ATOM      1  C   UNL     1       4.844   4.352  15.507  0.00  0.00    +0.000 C 
ATOM      2  N   UNL     1       4.590   5.006  16.781  0.00  0.00    +0.000 N 
ATOM      3  C   UNL     1       3.444   4.534  17.463  0.00  0.00    +0.000 C 
ATOM      4  O   UNL     1       2.860   3.520  17.065  0.00  0.00    +0.000 OA
ENDROOT
BRANCH   3   5
ATOM      5  C   UNL     1       2.941   5.221  18.650  0.00  0.00    +0.000 A 
ATOM      6  C   UNL     1       2.941   4.775  19.960  0.00  0.00    +0.000 A 
ATOM      7  O   UNL     1       2.365   5.671  20.796  0.00  0.00    +0.000 OA
ATOM      8  C   UNL     1       2.093   6.775  20.054  0.00  0.00    +0.000 A 
ATOM      9  C   UNL     1       1.547   7.954  20.553  0.00  0.00    +0.000 A 
ATOM     10  C   UNL     1       1.422   9.012  19.651  0.00  0.00    +0.000 A 
ATOM     11  C   UNL     1       1.811   8.871  18.317  0.00  0.00    +0.000 A 
ATOM     12  C   UNL     1       2.323   7.654  17.836  0.00  0.00    +0.000 A 
ATOM     13  C   UNL     1       2.470   6.575  18.732  0.00  0.00    +0.000 A 
ENDBRANCH   3   5
BRANCH   2  14
ATOM     14  C   UNL     1       5.470   6.123  17.175  0.00  0.00    +0.000 C 
BRANCH  14  15
ATOM     15  C   UNL     1       6.759   5.792  17.983  0.00  0.00    +0.000 C 
ATOM     16  C   UNL     1       7.782   6.938  17.901  0.00  0.00    +0.000 C 
BRANCH  15  17
ATOM     17  C   UNL     1       6.466   5.471  19.464  0.00  0.00    +0.000 C 
BRANCH  17  18
ATOM     18  O   UNL     1       7.653   5.479  20.256  0.00  0.00    +0.000 OA
ATOM     19  H   UNL     1       8.198   6.236  19.980  0.00  0.00    +0.000 HD
ENDBRANCH  17  18
ENDBRANCH  15  17
BRANCH  15  20
ATOM     20  C   UNL     1       7.410   4.539  17.327  0.00  0.00    +0.000 C 
BRANCH  20  21
ATOM     21  O   UNL     1       7.853   4.797  16.001  0.00  0.00    +0.000 OA
ATOM     22  H   UNL     1       7.723   3.963  15.500  0.00  0.00    +0.000 HD
ENDBRANCH  20  21
ENDBRANCH  15  20
ENDBRANCH  14  15
ENDBRANCH   2  14
TORSDOF 7
ENDMDL
MODEL 5
REMARK VINA RESULT:      -6.2      3.271      4.335
REMARK  Name = 
REMARK  9 active torsions:
REMARK  status: ('A' for Active; 'I' for Inactive)
REMARK    1  A    between atoms: C_1  and  N_2
REMARK    2  A    between atoms: N_2  and  C_3
REMARK    3  A    between atoms: C_3  and  C_4
REMARK    4  A    between atoms: C_4  and  C_5
REMARK    5  A    between atoms: C_4  and  C_6
REMARK    6  A    between atoms: C_4  and  C_8
REMARK    7  A    between atoms: C_6  and  O_7
REMARK    8  A    between atoms: C_8  and  O_9
REMARK    9  A    between atoms: C_10  and  C_12
REMARK                            x       y       z     vdW  Elec       q    Type
REMARK                         _______ _______ _______ _____ _____    ______ ____
ROOT
ATOM      1  C   UNL     1       4.406   3.269  19.502  0.00  0.00    +0.000 C 
ATOM      2  N   UNL     1       4.252   4.710  19.370  0.00  0.00    +0.000 N 
ATOM      3  C   UNL     1       2.909   5.150  19.299  0.00  0.00    +0.000 C 
ATOM      4  O   UNL     1       1.985   4.362  19.534  0.00  0.00    +0.000 OA
ENDROOT
BRANCH   3   5
ATOM      5  C   UNL     1       2.589   6.535  18.966  0.00  0.00    +0.000 A 
ATOM      6  C   UNL     1       2.734   7.177  17.749  0.00  0.00    +0.000 A 
ATOM      7  O   UNL     1       2.359   8.476  17.817  0.00  0.00    +0.000 OA
ATOM      8  C   UNL     1       1.842   8.666  19.058  0.00  0.00    +0.000 A 
ATOM      9  C   UNL     1       1.287   9.858  19.514  0.00  0.00    +0.000 A 
ATOM     10  C   UNL     1       0.726   9.833  20.793  0.00  0.00    +0.000 A 
ATOM     11  C   UNL     1       0.748   8.670  21.566  0.00  0.00    +0.000 A 
ATOM     12  C   UNL     1       1.350   7.494  21.089  0.00  0.00    +0.000 A 
ATOM     13  C   UNL     1       1.913   7.491  19.797  0.00  0.00    +0.000 A 
ENDBRANCH   3   5
BRANCH   2  14
ATOM     14  C   UNL     1       5.470   5.529  19.233  0.00  0.00    +0.000 C 
BRANCH  14  15
ATOM     15  C   UNL     1       6.231   5.490  17.875  0.00  0.00    +0.000 C 
ATOM     16  C   UNL     1       5.461   4.672  16.824  0.00  0.00    +0.000 C 
BRANCH  15  17
ATOM     17  C   UNL     1       6.524   6.898  17.316  0.00  0.00    +0.000 C 
BRANCH  17  18
ATOM     18  O   UNL     1       7.675   6.910  16.474  0.00  0.00    +0.000 OA
ATOM     19  H   UNL     1       7.910   7.837  16.291  0.00  0.00    +0.000 HD
ENDBRANCH  17  18
ENDBRANCH  15  17
BRANCH  15  20
ATOM     20  C   UNL     1       7.588   4.767  18.123  0.00  0.00    +0.000 C 
BRANCH  20  21
ATOM     21  O   UNL     1       8.040   4.065  16.972  0.00  0.00    +0.000 OA
ATOM     22  H   UNL     1       9.006   4.231  16.910  0.00  0.00    +0.000 HD
ENDBRANCH  20  21
ENDBRANCH  15  20
ENDBRANCH  14  15
ENDBRANCH   2  14
TORSDOF 7
ENDMDL
MODEL 6
REMARK VINA RESULT:      -6.2      1.008      1.578
REMARK  Name = 
REMARK  9 active torsions:
REMARK  status: ('A' for Active; 'I' for Inactive)
REMARK    1  A    between atoms: C_1  and  N_2
REMARK    2  A    between atoms: N_2  and  C_3
REMARK    3  A    between atoms: C_3  and  C_4
REMARK    4  A    between atoms: C_4  and  C_5
REMARK    5  A    between atoms: C_4  and  C_6
REMARK    6  A    between atoms: C_4  and  C_8
REMARK    7  A    between atoms: C_6  and  O_7
REMARK    8  A    between atoms: C_8  and  O_9
REMARK    9  A    between atoms: C_10  and  C_12
REMARK                            x       y       z     vdW  Elec       q    Type
REMARK                         _______ _______ _______ _____ _____    ______ ____
ROOT
ATOM      1  C   UNL     1       4.885   6.451  15.841  0.00  0.00    +0.000 C 
ATOM      2  N   UNL     1       5.011   5.723  17.095  0.00  0.00    +0.000 N 
ATOM      3  C   UNL     1       4.303   4.499  17.134  0.00  0.00    +0.000 C 
ATOM      4  O   UNL     1       3.804   4.039  16.101  0.00  0.00    +0.000 OA
ENDROOT
BRANCH   3   5
ATOM      5  C   UNL     1       4.163   3.753  18.381  0.00  0.00    +0.000 A 
ATOM      6  C   UNL     1       5.127   3.022  19.054  0.00  0.00    +0.000 A 
ATOM      7  O   UNL     1       4.628   2.439  20.169  0.00  0.00    +0.000 OA
ATOM      8  C   UNL     1       3.355   2.887  20.306  0.00  0.00    +0.000 A 
ATOM      9  C   UNL     1       2.508   2.568  21.364  0.00  0.00    +0.000 A 
ATOM     10  C   UNL     1       1.262   3.199  21.375  0.00  0.00    +0.000 A 
ATOM     11  C   UNL     1       0.894   4.084  20.360  0.00  0.00    +0.000 A 
ATOM     12  C   UNL     1       1.758   4.355  19.286  0.00  0.00    +0.000 A 
ATOM     13  C   UNL     1       3.026   3.739  19.259  0.00  0.00    +0.000 A 
ENDBRANCH   3   5
BRANCH   2  14
ATOM     14  C   UNL     1       5.760   6.360  18.194  0.00  0.00    +0.000 C 
BRANCH  14  15
ATOM     15  C   UNL     1       7.286   6.069  18.307  0.00  0.00    +0.000 C 
ATOM     16  C   UNL     1       7.654   5.544  19.706  0.00  0.00    +0.000 C 
BRANCH  15  17
ATOM     17  C   UNL     1       7.783   5.074  17.238  0.00  0.00    +0.000 C 
BRANCH  17  18
ATOM     18  O   UNL     1       8.412   3.935  17.820  0.00  0.00    +0.000 OA
ATOM     19  H   UNL     1       7.962   3.734  18.660  0.00  0.00    +0.000 HD
ENDBRANCH  17  18
ENDBRANCH  15  17
BRANCH  15  20
ATOM     20  C   UNL     1       8.033   7.421  18.107  0.00  0.00    +0.000 C 
BRANCH  20  21
ATOM     21  O   UNL     1       7.457   8.205  17.070  0.00  0.00    +0.000 OA
ATOM     22  H   UNL     1       7.886   9.086  17.121  0.00  0.00    +0.000 HD
ENDBRANCH  20  21
ENDBRANCH  15  20
ENDBRANCH  14  15
ENDBRANCH   2  14
TORSDOF 7
ENDMDL
MODEL 7
REMARK VINA RESULT:      -6.2      2.735      3.594
REMARK  Name = 
REMARK  9 active torsions:
REMARK  status: ('A' for Active; 'I' for Inactive)
REMARK    1  A    between atoms: C_1  and  N_2
REMARK    2  A    between atoms: N_2  and  C_3
REMARK    3  A    between atoms: C_3  and  C_4
REMARK    4  A    between atoms: C_4  and  C_5
REMARK    5  A    between atoms: C_4  and  C_6
REMARK    6  A    between atoms: C_4  and  C_8
REMARK    7  A    between atoms: C_6  and  O_7
REMARK    8  A    between atoms: C_8  and  O_9
REMARK    9  A    between atoms: C_10  and  C_12
REMARK                            x       y       z     vdW  Elec       q    Type
REMARK                         _______ _______ _______ _____ _____    ______ ____
ROOT
ATOM      1  C   UNL     1       4.777   4.481  15.751  0.00  0.00    +0.000 C 
ATOM      2  N   UNL     1       4.486   5.231  16.963  0.00  0.00    +0.000 N 
ATOM      3  C   UNL     1       3.293   4.844  17.618  0.00  0.00    +0.000 C 
ATOM      4  O   UNL     1       2.693   3.824  17.261  0.00  0.00    +0.000 OA
ENDROOT
BRANCH   3   5
ATOM      5  C   UNL     1       2.758   5.628  18.728  0.00  0.00    +0.000 A 
ATOM      6  C   UNL     1       2.700   5.284  20.067  0.00  0.00    +0.000 A 
ATOM      7  O   UNL     1       2.110   6.251  20.809  0.00  0.00    +0.000 OA
ATOM      8  C   UNL     1       1.887   7.299  19.976  0.00  0.00    +0.000 A 
ATOM      9  C   UNL     1       1.344   8.521  20.361  0.00  0.00    +0.000 A 
ATOM     10  C   UNL     1       1.273   9.508  19.377  0.00  0.00    +0.000 A 
ATOM     11  C   UNL     1       1.710   9.259  18.074  0.00  0.00    +0.000 A 
ATOM     12  C   UNL     1       2.217   8.001  17.708  0.00  0.00    +0.000 A 
ATOM     13  C   UNL     1       2.309   6.992  18.688  0.00  0.00    +0.000 A 
ENDBRANCH   3   5
BRANCH   2  14
ATOM     14  C   UNL     1       5.384   6.344  17.323  0.00  0.00    +0.000 C 
BRANCH  14  15
ATOM     15  C   UNL     1       6.812   5.997  17.839  0.00  0.00    +0.000 C 
ATOM     16  C   UNL     1       6.783   5.558  19.313  0.00  0.00    +0.000 C 
BRANCH  15  17
ATOM     17  C   UNL     1       7.503   4.908  16.992  0.00  0.00    +0.000 C 
BRANCH  17  18
ATOM     18  O   UNL     1       8.276   4.018  17.794  0.00  0.00    +0.000 OA
ATOM     19  H   UNL     1       7.820   3.904  18.648  0.00  0.00    +0.000 HD
ENDBRANCH  17  18
ENDBRANCH  15  17
BRANCH  15  20
ATOM     20  C   UNL     1       7.664   7.298  17.758  0.00  0.00    +0.000 C 
BRANCH  20  21
ATOM     21  O   UNL     1       8.536   7.438  18.873  0.00  0.00    +0.000 OA
ATOM     22  H   UNL     1       8.523   8.390  19.114  0.00  0.00    +0.000 HD
ENDBRANCH  20  21
ENDBRANCH  15  20
ENDBRANCH  14  15
ENDBRANCH   2  14
TORSDOF 7
ENDMDL
MODEL 8
REMARK VINA RESULT:      -6.2      2.109      5.778
REMARK  Name = 
REMARK  9 active torsions:
REMARK  status: ('A' for Active; 'I' for Inactive)
REMARK    1  A    between atoms: C_1  and  N_2
REMARK    2  A    between atoms: N_2  and  C_3
REMARK    3  A    between atoms: C_3  and  C_4
REMARK    4  A    between atoms: C_4  and  C_5
REMARK    5  A    between atoms: C_4  and  C_6
REMARK    6  A    between atoms: C_4  and  C_8
REMARK    7  A    between atoms: C_6  and  O_7
REMARK    8  A    between atoms: C_8  and  O_9
REMARK    9  A    between atoms: C_10  and  C_12
REMARK                            x       y       z     vdW  Elec       q    Type
REMARK                         _______ _______ _______ _____ _____    ______ ____
ROOT
ATOM      1  C   UNL     1       3.820   1.862  18.093  0.00  0.00    +0.000 C 
ATOM      2  N   UNL     1       4.106   3.286  18.002  0.00  0.00    +0.000 N 
ATOM      3  C   UNL     1       4.890   3.654  16.883  0.00  0.00    +0.000 C 
ATOM      4  O   UNL     1       5.115   2.832  15.987  0.00  0.00    +0.000 OA
ENDROOT
BRANCH   3   5
ATOM      5  C   UNL     1       5.430   5.004  16.756  0.00  0.00    +0.000 A 
ATOM      6  C   UNL     1       4.995   6.026  15.931  0.00  0.00    +0.000 A 
ATOM      7  O   UNL     1       5.756   7.138  16.062  0.00  0.00    +0.000 OA
ATOM      8  C   UNL     1       6.628   6.895  17.074  0.00  0.00    +0.000 A 
ATOM      9  C   UNL     1       7.552   7.811  17.565  0.00  0.00    +0.000 A 
ATOM     10  C   UNL     1       8.303   7.406  18.671  0.00  0.00    +0.000 A 
ATOM     11  C   UNL     1       8.136   6.136  19.228  0.00  0.00    +0.000 A 
ATOM     12  C   UNL     1       7.221   5.220  18.683  0.00  0.00    +0.000 A 
ATOM     13  C   UNL     1       6.443   5.611  17.574  0.00  0.00    +0.000 A 
ENDBRANCH   3   5
BRANCH   2  14
ATOM     14  C   UNL     1       3.646   4.158  19.099  0.00  0.00    +0.000 C 
BRANCH  14  15
ATOM     15  C   UNL     1       2.161   4.625  19.091  0.00  0.00    +0.000 C 
ATOM     16  C   UNL     1       1.858   5.508  17.868  0.00  0.00    +0.000 C 
BRANCH  15  17
ATOM     17  C   UNL     1       1.166   3.447  19.132  0.00  0.00    +0.000 C 
BRANCH  17  18
ATOM     18  O   UNL     1       0.461   3.386  20.371  0.00  0.00    +0.000 OA
ATOM     19  H   UNL     1      -0.475   3.590  20.199  0.00  0.00    +0.000 HD
ENDBRANCH  17  18
ENDBRANCH  15  17
BRANCH  15  20
ATOM     20  C   UNL     1       1.942   5.500  20.361  0.00  0.00    +0.000 C 
BRANCH  20  21
ATOM     21  O   UNL     1       2.544   4.929  21.516  0.00  0.00    +0.000 OA
ATOM     22  H   UNL     1       2.593   3.963  21.352  0.00  0.00    +0.000 HD
ENDBRANCH  20  21
ENDBRANCH  15  20
ENDBRANCH  14  15
ENDBRANCH   2  14
TORSDOF 7
ENDMDL
MODEL 9
REMARK VINA RESULT:      -6.1      1.991      3.344
REMARK  Name = 
REMARK  9 active torsions:
REMARK  status: ('A' for Active; 'I' for Inactive)
REMARK    1  A    between atoms: C_1  and  N_2
REMARK    2  A    between atoms: N_2  and  C_3
REMARK    3  A    between atoms: C_3  and  C_4
REMARK    4  A    between atoms: C_4  and  C_5
REMARK    5  A    between atoms: C_4  and  C_6
REMARK    6  A    between atoms: C_4  and  C_8
REMARK    7  A    between atoms: C_6  and  O_7
REMARK    8  A    between atoms: C_8  and  O_9
REMARK    9  A    between atoms: C_10  and  C_12
REMARK                            x       y       z     vdW  Elec       q    Type
REMARK                         _______ _______ _______ _____ _____    ______ ____
ROOT
ATOM      1  C   UNL     1       7.731   4.486  17.909  0.00  0.00    +0.000 C 
ATOM      2  N   UNL     1       6.290   4.515  17.709  0.00  0.00    +0.000 N 
ATOM      3  C   UNL     1       5.557   5.011  18.813  0.00  0.00    +0.000 C 
ATOM      4  O   UNL     1       6.146   5.546  19.759  0.00  0.00    +0.000 OA
ENDROOT
BRANCH   3   5
ATOM      5  C   UNL     1       4.100   4.918  18.849  0.00  0.00    +0.000 A 
ATOM      6  C   UNL     1       3.184   5.486  17.982  0.00  0.00    +0.000 A 
ATOM      7  O   UNL     1       1.909   5.207  18.342  0.00  0.00    +0.000 OA
ATOM      8  C   UNL     1       1.981   4.341  19.385  0.00  0.00    +0.000 A 
ATOM      9  C   UNL     1       0.884   3.762  20.015  0.00  0.00    +0.000 A 
ATOM     10  C   UNL     1       1.163   2.826  21.014  0.00  0.00    +0.000 A 
ATOM     11  C   UNL     1       2.479   2.516  21.362  0.00  0.00    +0.000 A 
ATOM     12  C   UNL     1       3.564   3.148  20.732  0.00  0.00    +0.000 A 
ATOM     13  C   UNL     1       3.308   4.088  19.713  0.00  0.00    +0.000 A 
ENDBRANCH   3   5
BRANCH   2  14
ATOM     14  C   UNL     1       5.752   3.954  16.456  0.00  0.00    +0.000 C 
BRANCH  14  15
ATOM     15  C   UNL     1       5.863   4.812  15.161  0.00  0.00    +0.000 C 
ATOM     16  C   UNL     1       5.270   4.075  13.947  0.00  0.00    +0.000 C 
BRANCH  15  17
ATOM     17  C   UNL     1       5.188   6.193  15.302  0.00  0.00    +0.000 C 
BRANCH  17  18
ATOM     18  O   UNL     1       5.985   7.102  16.060  0.00  0.00    +0.000 OA
ATOM     19  H   UNL     1       5.456   7.901  16.230  0.00  0.00    +0.000 HD
ENDBRANCH  17  18
ENDBRANCH  15  17
BRANCH  15  20
ATOM     20  C   UNL     1       7.378   5.031  14.877  0.00  0.00    +0.000 C 
BRANCH  20  21
ATOM     21  O   UNL     1       7.626   5.372  13.518  0.00  0.00    +0.000 OA
ATOM     22  H   UNL     1       8.513   5.011  13.302  0.00  0.00    +0.000 HD
ENDBRANCH  20  21
ENDBRANCH  15  20
ENDBRANCH  14  15
ENDBRANCH   2  14
TORSDOF 7
ENDMDL
