MODEL 1
REMARK VINA RESULT:      -8.0      0.000      0.000
REMARK  Name = 
REMARK  8 active torsions:
REMARK  status: ('A' for Active; 'I' for Inactive)
REMARK    1  A    between atoms: C_1  and  S_2
REMARK    2  A    between atoms: S_2  and  C_3
REMARK    3  A    between atoms: C_5  and  N_6
REMARK    4  A    between atoms: C_10  and  N_11
REMARK    5  A    between atoms: N_13  and  C_14
REMARK    6  A    between atoms: N_13  and  C_15
REMARK    7  A    between atoms: C_21  and  O_22
REMARK    8  A    between atoms: C_23  and  O_24
REMARK                            x       y       z     vdW  Elec       q    Type
REMARK                         _______ _______ _______ _____ _____    ______ ____
ROOT
ATOM      1  N   UNL     1       4.218   5.049  18.041  0.00  0.00    +0.000 N 
ATOM      2  C   UNL     1       3.709   4.062  17.243  0.00  0.00    +0.000 A 
ATOM      3  N   UNL     1       4.451   3.866  16.173  0.00  0.00    +0.000 NA
ATOM      4  C   UNL     1       5.494   4.764  16.283  0.00  0.00    +0.000 A 
ATOM      5  C   UNL     1       6.610   5.073  15.494  0.00  0.00    +0.000 A 
ATOM      6  N   UNL     1       7.468   6.041  15.876  0.00  0.00    +0.000 NA
ATOM      7  C   UNL     1       7.212   6.677  17.034  0.00  0.00    +0.000 A 
ATOM      8  F   UNL     1       8.075   7.648  17.375  0.00  0.00    +0.000 F 
ATOM      9  N   UNL     1       6.191   6.469  17.891  0.00  0.00    +0.000 NA
ATOM     10  C   UNL     1       5.368   5.503  17.450  0.00  0.00    +0.000 A 
ENDROOT
BRANCH   1  13
ATOM     11  C   UNL     1       2.241   4.683  20.928  0.00  0.00    +0.000 C 
ATOM     12  O   UNL     1       3.462   4.475  20.196  0.00  0.00    +0.000 OA
ATOM     13  C   UNL     1       3.630   5.561  19.262  0.00  0.00    +0.000 C 
ATOM     14  C   UNL     1       2.259   6.206  19.070  0.00  0.00    +0.000 C 
ATOM     15  C   UNL     1       1.631   6.009  20.440  0.00  0.00    +0.000 C 
BRANCH  11  17
ATOM     16  C   UNL     1       2.153   2.180  19.724  0.00  0.00    +0.000 C 
ATOM     17  S   UNL     1       1.091   3.292  20.685  0.00  0.00    +0.000 S 
ENDBRANCH  11  17
BRANCH  14  18
ATOM     18  O   UNL     1       2.336   7.584  18.714  0.00  0.00    +0.000 OA
ATOM     19  H   UNL     1       3.118   7.681  18.131  0.00  0.00    +0.000 HD
ENDBRANCH  14  18
BRANCH  15  20
ATOM     20  O   UNL     1       1.994   7.131  21.270  0.00  0.00    +0.000 OA
ATOM     21  H   UNL     1       1.227   7.724  21.377  0.00  0.00    +0.000 HD
ENDBRANCH  15  20
ENDBRANCH   1  13
BRANCH   5  22
ATOM     22  N   UNL     1       6.807   4.357  14.305  0.00  0.00    +0.000 NA
ATOM     23  C   UNL     1       5.789   4.053  13.578  0.00  0.00    +0.000 C 
ATOM     24  N   UNL     1       5.833   3.365  12.384  0.00  0.00    +0.000 N 
ATOM     25  C   UNL     1       7.091   2.914  11.814  0.00  0.00    +0.000 C 
ATOM     26  C   UNL     1       4.647   3.144  11.577  0.00  0.00    +0.000 C 
ENDBRANCH   5  22
TORSDOF 5
ENDMDL
MODEL 2
REMARK VINA RESULT:      -7.3      3.022      5.029
REMARK  Name = 
REMARK  8 active torsions:
REMARK  status: ('A' for Active; 'I' for Inactive)
REMARK    1  A    between atoms: C_1  and  S_2
REMARK    2  A    between atoms: S_2  and  C_3
REMARK    3  A    between atoms: C_5  and  N_6
REMARK    4  A    between atoms: C_10  and  N_11
REMARK    5  A    between atoms: N_13  and  C_14
REMARK    6  A    between atoms: N_13  and  C_15
REMARK    7  A    between atoms: C_21  and  O_22
REMARK    8  A    between atoms: C_23  and  O_24
REMARK                            x       y       z     vdW  Elec       q    Type
REMARK                         _______ _______ _______ _____ _____    ______ ____
ROOT
ATOM      1  N   UNL     1       3.887   5.566  17.474  0.00  0.00    +0.000 N 
ATOM      2  C   UNL     1       3.441   6.860  17.477  0.00  0.00    +0.000 A 
ATOM      3  N   UNL     1       4.437   7.721  17.471  0.00  0.00    +0.000 NA
ATOM      4  C   UNL     1       5.584   6.952  17.457  0.00  0.00    +0.000 A 
ATOM      5  C   UNL     1       6.955   7.238  17.450  0.00  0.00    +0.000 A 
ATOM      6  N   UNL     1       7.859   6.236  17.450  0.00  0.00    +0.000 NA
ATOM      7  C   UNL     1       7.391   4.975  17.447  0.00  0.00    +0.000 A 
ATOM      8  F   UNL     1       8.318   4.003  17.467  0.00  0.00    +0.000 F 
ATOM      9  N   UNL     1       6.106   4.563  17.438  0.00  0.00    +0.000 NA
ATOM     10  C   UNL     1       5.257   5.605  17.449  0.00  0.00    +0.000 A 
ENDROOT
BRANCH   1  13
ATOM     11  C   UNL     1       1.316   3.632  18.897  0.00  0.00    +0.000 C 
ATOM     12  O   UNL     1       1.773   4.714  18.067  0.00  0.00    +0.000 OA
ATOM     13  C   UNL     1       3.070   4.372  17.537  0.00  0.00    +0.000 C 
ATOM     14  C   UNL     1       3.644   3.271  18.425  0.00  0.00    +0.000 C 
ATOM     15  C   UNL     1       2.386   2.527  18.846  0.00  0.00    +0.000 C 
BRANCH  11  17
ATOM     16  C   UNL     1       1.563   2.724  21.511  0.00  0.00    +0.000 C 
ATOM     17  S   UNL     1       1.025   4.198  20.603  0.00  0.00    +0.000 S 
ENDBRANCH  11  17
BRANCH  14  18
ATOM     18  O   UNL     1       4.559   2.420  17.740  0.00  0.00    +0.000 OA
ATOM     19  H   UNL     1       4.030   1.889  17.108  0.00  0.00    +0.000 HD
ENDBRANCH  14  18
BRANCH  15  20
ATOM     20  O   UNL     1       2.103   1.519  17.854  0.00  0.00    +0.000 OA
ATOM     21  H   UNL     1       1.142   1.471  17.698  0.00  0.00    +0.000 HD
ENDBRANCH  15  20
ENDBRANCH   1  13
BRANCH   5  22
ATOM     22  N   UNL     1       7.360   8.580  17.446  0.00  0.00    +0.000 NA
ATOM     23  C   UNL     1       8.250   8.970  18.291  0.00  0.00    +0.000 C 
ATOM     24  N   UNL     1       8.749  10.252  18.395  0.00  0.00    +0.000 N 
ATOM     25  C   UNL     1       8.300  11.315  17.512  0.00  0.00    +0.000 C 
ATOM     26  C   UNL     1       9.820  10.590  19.314  0.00  0.00    +0.000 C 
ENDBRANCH   5  22
TORSDOF 5
ENDMDL
MODEL 3
REMARK VINA RESULT:      -7.1      3.775      5.636
REMARK  Name = 
REMARK  8 active torsions:
REMARK  status: ('A' for Active; 'I' for Inactive)
REMARK    1  A    between atoms: C_1  and  S_2
REMARK    2  A    between atoms: S_2  and  C_3
REMARK    3  A    between atoms: C_5  and  N_6
REMARK    4  A    between atoms: C_10  and  N_11
REMARK    5  A    between atoms: N_13  and  C_14
REMARK    6  A    between atoms: N_13  and  C_15
REMARK    7  A    between atoms: C_21  and  O_22
REMARK    8  A    between atoms: C_23  and  O_24
REMARK                            x       y       z     vdW  Elec       q    Type
REMARK                         _______ _______ _______ _____ _____    ______ ____
ROOT
ATOM      1  N   UNL     1       1.619   7.664  20.182  0.00  0.00    +0.000 N 
ATOM      2  C   UNL     1       2.189   8.190  19.054  0.00  0.00    +0.000 A 
ATOM      3  N   UNL     1       2.888   7.291  18.394  0.00  0.00    +0.000 NA
ATOM      4  C   UNL     1       2.764   6.125  19.122  0.00  0.00    +0.000 A 
ATOM      5  C   UNL     1       3.255   4.821  18.977  0.00  0.00    +0.000 A 
ATOM      6  N   UNL     1       2.958   3.875  19.892  0.00  0.00    +0.000 NA
ATOM      7  C   UNL     1       2.174   4.233  20.925  0.00  0.00    +0.000 A 
ATOM      8  F   UNL     1       1.914   3.273  21.828  0.00  0.00    +0.000 F 
ATOM      9  N   UNL     1       1.624   5.440  21.175  0.00  0.00    +0.000 NA
ATOM     10  C   UNL     1       1.966   6.339  20.237  0.00  0.00    +0.000 A 
ENDROOT
BRANCH   1  13
ATOM     11  C   UNL     1      -0.676  10.165  21.104  0.00  0.00    +0.000 C 
ATOM     12  O   UNL     1      -0.366   8.878  20.543  0.00  0.00    +0.000 OA
ATOM     13  C   UNL     1       0.835   8.380  21.167  0.00  0.00    +0.000 C 
ATOM     14  C   UNL     1       1.553   9.579  21.782  0.00  0.00    +0.000 C 
ATOM     15  C   UNL     1       0.386  10.468  22.177  0.00  0.00    +0.000 C 
BRANCH  11  17
ATOM     16  C   UNL     1      -0.719  10.398  18.336  0.00  0.00    +0.000 C 
ATOM     17  S   UNL     1      -0.703  11.449  19.813  0.00  0.00    +0.000 S 
ENDBRANCH  11  17
BRANCH  14  18
ATOM     18  O   UNL     1       2.359   9.231  22.905  0.00  0.00    +0.000 OA
ATOM     19  H   UNL     1       2.156   8.296  23.118  0.00  0.00    +0.000 HD
ENDBRANCH  14  18
BRANCH  15  20
ATOM     20  O   UNL     1      -0.038  10.096  23.505  0.00  0.00    +0.000 OA
ATOM     21  H   UNL     1      -0.472   9.223  23.481  0.00  0.00    +0.000 HD
ENDBRANCH  15  20
ENDBRANCH   1  13
BRANCH   5  22
ATOM     22  N   UNL     1       4.060   4.528  17.867  0.00  0.00    +0.000 NA
ATOM     23  C   UNL     1       5.335   4.684  17.957  0.00  0.00    +0.000 C 
ATOM     24  N   UNL     1       6.246   4.427  16.955  0.00  0.00    +0.000 N 
ATOM     25  C   UNL     1       5.826   3.925  15.658  0.00  0.00    +0.000 C 
ATOM     26  C   UNL     1       7.678   4.539  17.167  0.00  0.00    +0.000 C 
ENDBRANCH   5  22
TORSDOF 5
ENDMDL
MODEL 4
REMARK VINA RESULT:      -7.1      3.363      5.435
REMARK  Name = 
REMARK  8 active torsions:
REMARK  status: ('A' for Active; 'I' for Inactive)
REMARK    1  A    between atoms: C_1  and  S_2
REMARK    2  A    between atoms: S_2  and  C_3
REMARK    3  A    between atoms: C_5  and  N_6
REMARK    4  A    between atoms: C_10  and  N_11
REMARK    5  A    between atoms: N_13  and  C_14
REMARK    6  A    between atoms: N_13  and  C_15
REMARK    7  A    between atoms: C_21  and  O_22
REMARK    8  A    between atoms: C_23  and  O_24
REMARK                            x       y       z     vdW  Elec       q    Type
REMARK                         _______ _______ _______ _____ _____    ______ ____
ROOT
ATOM      1  N   UNL     1       5.296   5.148  17.299  0.00  0.00    +0.000 N 
ATOM      2  C   UNL     1       4.792   6.194  16.576  0.00  0.00    +0.000 A 
ATOM      3  N   UNL     1       5.508   7.288  16.731  0.00  0.00    +0.000 NA
ATOM      4  C   UNL     1       6.529   6.935  17.592  0.00  0.00    +0.000 A 
ATOM      5  C   UNL     1       7.613   7.618  18.159  0.00  0.00    +0.000 A 
ATOM      6  N   UNL     1       8.455   6.981  18.999  0.00  0.00    +0.000 NA
ATOM      7  C   UNL     1       8.215   5.682  19.254  0.00  0.00    +0.000 A 
ATOM      8  F   UNL     1       9.061   5.084  20.109  0.00  0.00    +0.000 F 
ATOM      9  N   UNL     1       7.225   4.906  18.766  0.00  0.00    +0.000 NA
ATOM     10  C   UNL     1       6.416   5.599  17.947  0.00  0.00    +0.000 A 
ENDROOT
BRANCH   1  13
ATOM     11  C   UNL     1       2.563   2.936  17.388  0.00  0.00    +0.000 C 
ATOM     12  O   UNL     1       3.485   3.778  16.675  0.00  0.00    +0.000 OA
ATOM     13  C   UNL     1       4.729   3.820  17.405  0.00  0.00    +0.000 C 
ATOM     14  C   UNL     1       4.426   3.384  18.837  0.00  0.00    +0.000 C 
ATOM     15  C   UNL     1       3.299   2.387  18.624  0.00  0.00    +0.000 C 
BRANCH  11  17
ATOM     16  C   UNL     1       0.841   3.238  19.547  0.00  0.00    +0.000 C 
ATOM     17  S   UNL     1       1.067   3.861  17.860  0.00  0.00    +0.000 S 
ENDBRANCH  11  17
BRANCH  14  18
ATOM     18  O   UNL     1       5.545   2.788  19.488  0.00  0.00    +0.000 OA
ATOM     19  H   UNL     1       5.196   2.322  20.276  0.00  0.00    +0.000 HD
ENDBRANCH  14  18
BRANCH  15  20
ATOM     20  O   UNL     1       3.880   1.087  18.398  0.00  0.00    +0.000 OA
ATOM     21  H   UNL     1       4.625   0.948  19.011  0.00  0.00    +0.000 HD
ENDBRANCH  15  20
ENDBRANCH   1  13
BRANCH   5  22
ATOM     22  N   UNL     1       7.797   8.970  17.835  0.00  0.00    +0.000 NA
ATOM     23  C   UNL     1       8.699   9.647  18.456  0.00  0.00    +0.000 C 
ATOM     24  N   UNL     1       8.996  10.976  18.236  0.00  0.00    +0.000 N 
ATOM     25  C   UNL     1       8.292  11.755  17.231  0.00  0.00    +0.000 C 
ATOM     26  C   UNL     1      10.092  11.643  18.913  0.00  0.00    +0.000 C 
ENDBRANCH   5  22
TORSDOF 5
ENDMDL
MODEL 5
REMARK VINA RESULT:      -7.0      4.364      6.131
REMARK  Name = 
REMARK  8 active torsions:
REMARK  status: ('A' for Active; 'I' for Inactive)
REMARK    1  A    between atoms: C_1  and  S_2
REMARK    2  A    between atoms: S_2  and  C_3
REMARK    3  A    between atoms: C_5  and  N_6
REMARK    4  A    between atoms: C_10  and  N_11
REMARK    5  A    between atoms: N_13  and  C_14
REMARK    6  A    between atoms: N_13  and  C_15
REMARK    7  A    between atoms: C_21  and  O_22
REMARK    8  A    between atoms: C_23  and  O_24
REMARK                            x       y       z     vdW  Elec       q    Type
REMARK                         _______ _______ _______ _____ _____    ______ ____
ROOT
ATOM      1  N   UNL     1       1.159   8.860  19.550  0.00  0.00    +0.000 N 
ATOM      2  C   UNL     1       1.624   9.372  18.370  0.00  0.00    +0.000 A 
ATOM      3  N   UNL     1       2.462   8.549  17.775  0.00  0.00    +0.000 NA
ATOM      4  C   UNL     1       2.541   7.448  18.604  0.00  0.00    +0.000 A 
ATOM      5  C   UNL     1       3.245   6.237  18.562  0.00  0.00    +0.000 A 
ATOM      6  N   UNL     1       3.118   5.340  19.561  0.00  0.00    +0.000 NA
ATOM      7  C   UNL     1       2.291   5.651  20.575  0.00  0.00    +0.000 A 
ATOM      8  F   UNL     1       2.202   4.744  21.562  0.00  0.00    +0.000 F 
ATOM      9  N   UNL     1       1.546   6.765  20.731  0.00  0.00    +0.000 NA
ATOM     10  C   UNL     1       1.725   7.622  19.712  0.00  0.00    +0.000 A 
ENDROOT
BRANCH   1  13
ATOM     11  C   UNL     1      -0.704  11.640  20.635  0.00  0.00    +0.000 C 
ATOM     12  O   UNL     1      -0.517  10.499  19.780  0.00  0.00    +0.000 OA
ATOM     13  C   UNL     1       0.270   9.518  20.486  0.00  0.00    +0.000 C 
ATOM     14  C   UNL     1       0.989  10.248  21.619  0.00  0.00    +0.000 C 
ATOM     15  C   UNL     1      -0.018  11.328  21.977  0.00  0.00    +0.000 C 
BRANCH  11  17
ATOM     16  C   UNL     1      -0.667  12.956  18.188  0.00  0.00    +0.000 C 
ATOM     17  S   UNL     1      -0.020  13.145  19.872  0.00  0.00    +0.000 S 
ENDBRANCH  11  17
BRANCH  14  18
ATOM     18  O   UNL     1       1.281   9.404  22.730  0.00  0.00    +0.000 OA
ATOM     19  H   UNL     1       0.432   8.999  23.006  0.00  0.00    +0.000 HD
ENDBRANCH  14  18
BRANCH  15  20
ATOM     20  O   UNL     1      -0.928  10.791  22.960  0.00  0.00    +0.000 OA
ATOM     21  H   UNL     1      -1.842  11.052  22.741  0.00  0.00    +0.000 HD
ENDBRANCH  15  20
ENDBRANCH   1  13
BRANCH   5  22
ATOM     22  N   UNL     1       4.082   5.987  17.464  0.00  0.00    +0.000 NA
ATOM     23  C   UNL     1       5.253   5.493  17.667  0.00  0.00    +0.000 C 
ATOM     24  N   UNL     1       6.174   5.188  16.688  0.00  0.00    +0.000 N 
ATOM     25  C   UNL     1       5.883   5.396  15.280  0.00  0.00    +0.000 C 
ATOM     26  C   UNL     1       7.440   4.545  16.993  0.00  0.00    +0.000 C 
ENDBRANCH   5  22
TORSDOF 5
ENDMDL
MODEL 6
REMARK VINA RESULT:      -7.0      4.402      7.822
REMARK  Name = 
REMARK  8 active torsions:
REMARK  status: ('A' for Active; 'I' for Inactive)
REMARK    1  A    between atoms: C_1  and  S_2
REMARK    2  A    between atoms: S_2  and  C_3
REMARK    3  A    between atoms: C_5  and  N_6
REMARK    4  A    between atoms: C_10  and  N_11
REMARK    5  A    between atoms: N_13  and  C_14
REMARK    6  A    between atoms: N_13  and  C_15
REMARK    7  A    between atoms: C_21  and  O_22
REMARK    8  A    between atoms: C_23  and  O_24
REMARK                            x       y       z     vdW  Elec       q    Type
REMARK                         _______ _______ _______ _____ _____    ______ ____
ROOT
ATOM      1  N   UNL     1       2.620   6.445  19.310  0.00  0.00    +0.000 N 
ATOM      2  C   UNL     1       2.053   6.093  20.504  0.00  0.00    +0.000 A 
ATOM      3  N   UNL     1       1.354   7.079  21.024  0.00  0.00    +0.000 NA
ATOM      4  C   UNL     1       1.468   8.121  20.125  0.00  0.00    +0.000 A 
ATOM      5  C   UNL     1       0.980   9.433  20.077  0.00  0.00    +0.000 A 
ATOM      6  N   UNL     1       1.285  10.236  19.037  0.00  0.00    +0.000 NA
ATOM      7  C   UNL     1       2.058   9.725  18.062  0.00  0.00    +0.000 A 
ATOM      8  F   UNL     1       2.359  10.557  17.052  0.00  0.00    +0.000 F 
ATOM      9  N   UNL     1       2.578   8.482  17.976  0.00  0.00    +0.000 NA
ATOM     10  C   UNL     1       2.248   7.737  19.044  0.00  0.00    +0.000 A 
ENDROOT
BRANCH   1  13
ATOM     11  C   UNL     1       3.411   3.451  17.641  0.00  0.00    +0.000 C 
ATOM     12  O   UNL     1       2.700   4.697  17.734  0.00  0.00    +0.000 OA
ATOM     13  C   UNL     1       3.496   5.627  18.496  0.00  0.00    +0.000 C 
ATOM     14  C   UNL     1       4.504   4.806  19.297  0.00  0.00    +0.000 C 
ATOM     15  C   UNL     1       4.758   3.634  18.363  0.00  0.00    +0.000 C 
BRANCH  11  17
ATOM     16  C   UNL     1       0.921   2.988  18.784  0.00  0.00    +0.000 C 
ATOM     17  S   UNL     1       2.443   2.092  18.373  0.00  0.00    +0.000 S 
ENDBRANCH  11  17
BRANCH  14  18
ATOM     18  O   UNL     1       5.701   5.522  19.589  0.00  0.00    +0.000 OA
ATOM     19  H   UNL     1       5.922   6.040  18.785  0.00  0.00    +0.000 HD
ENDBRANCH  14  18
BRANCH  15  20
ATOM     20  O   UNL     1       5.830   3.993  17.467  0.00  0.00    +0.000 OA
ATOM     21  H   UNL     1       6.152   4.889  17.680  0.00  0.00    +0.000 HD
ENDBRANCH  15  20
ENDBRANCH   1  13
BRANCH   5  22
ATOM     22  N   UNL     1       0.174   9.887  21.131  0.00  0.00    +0.000 NA
ATOM     23  C   UNL     1       0.104  11.150  21.369  0.00  0.00    +0.000 C 
ATOM     24  N   UNL     1      -0.653  11.738  22.361  0.00  0.00    +0.000 N 
ATOM     25  C   UNL     1      -1.480  10.945  23.254  0.00  0.00    +0.000 C 
ATOM     26  C   UNL     1      -0.751  13.179  22.504  0.00  0.00    +0.000 C 
ENDBRANCH   5  22
TORSDOF 5
ENDMDL
MODEL 7
REMARK VINA RESULT:      -7.0      2.939      5.242
REMARK  Name = 
REMARK  8 active torsions:
REMARK  status: ('A' for Active; 'I' for Inactive)
REMARK    1  A    between atoms: C_1  and  S_2
REMARK    2  A    between atoms: S_2  and  C_3
REMARK    3  A    between atoms: C_5  and  N_6
REMARK    4  A    between atoms: C_10  and  N_11
REMARK    5  A    between atoms: N_13  and  C_14
REMARK    6  A    between atoms: N_13  and  C_15
REMARK    7  A    between atoms: C_21  and  O_22
REMARK    8  A    between atoms: C_23  and  O_24
REMARK                            x       y       z     vdW  Elec       q    Type
REMARK                         _______ _______ _______ _____ _____    ______ ____
ROOT
ATOM      1  N   UNL     1       5.436   4.270  18.546  0.00  0.00    +0.000 N 
ATOM      2  C   UNL     1       5.595   4.915  19.743  0.00  0.00    +0.000 A 
ATOM      3  N   UNL     1       6.399   5.952  19.637  0.00  0.00    +0.000 NA
ATOM      4  C   UNL     1       6.776   5.988  18.309  0.00  0.00    +0.000 A 
ATOM      5  C   UNL     1       7.606   6.821  17.547  0.00  0.00    +0.000 A 
ATOM      6  N   UNL     1       7.788   6.581  16.232  0.00  0.00    +0.000 NA
ATOM      7  C   UNL     1       7.141   5.531  15.695  0.00  0.00    +0.000 A 
ATOM      8  F   UNL     1       7.361   5.310  14.388  0.00  0.00    +0.000 F 
ATOM      9  N   UNL     1       6.306   4.665  16.306  0.00  0.00    +0.000 NA
ATOM     10  C   UNL     1       6.174   4.949  17.613  0.00  0.00    +0.000 A 
ENDROOT
BRANCH   1  13
ATOM     11  C   UNL     1       2.396   2.560  18.090  0.00  0.00    +0.000 C 
ATOM     12  O   UNL     1       3.457   3.403  17.609  0.00  0.00    +0.000 OA
ATOM     13  C   UNL     1       4.670   3.064  18.312  0.00  0.00    +0.000 C 
ATOM     14  C   UNL     1       4.262   2.327  19.586  0.00  0.00    +0.000 C 
ATOM     15  C   UNL     1       3.002   1.606  19.135  0.00  0.00    +0.000 C 
BRANCH  11  17
ATOM     16  C   UNL     1       1.112   2.976  20.518  0.00  0.00    +0.000 C 
ATOM     17  S   UNL     1       1.045   3.553  18.800  0.00  0.00    +0.000 S 
ENDBRANCH  11  17
BRANCH  14  18
ATOM     18  O   UNL     1       5.257   1.419  20.049  0.00  0.00    +0.000 OA
ATOM     19  H   UNL     1       5.818   1.197  19.275  0.00  0.00    +0.000 HD
ENDBRANCH  14  18
BRANCH  15  20
ATOM     20  O   UNL     1       3.386   0.333  18.575  0.00  0.00    +0.000 OA
ATOM     21  H   UNL     1       3.920  -0.165  19.222  0.00  0.00    +0.000 HD
ENDBRANCH  15  20
ENDBRANCH   1  13
BRANCH   5  22
ATOM     22  N   UNL     1       8.238   7.898  18.183  0.00  0.00    +0.000 NA
ATOM     23  C   UNL     1       8.077   9.086  17.713  0.00  0.00    +0.000 C 
ATOM     24  N   UNL     1       8.627  10.237  18.239  0.00  0.00    +0.000 N 
ATOM     25  C   UNL     1       9.462  10.204  19.427  0.00  0.00    +0.000 C 
ATOM     26  C   UNL     1       8.321  11.551  17.705  0.00  0.00    +0.000 C 
ENDBRANCH   5  22
TORSDOF 5
ENDMDL
MODEL 8
REMARK VINA RESULT:      -6.9      1.051      1.051
REMARK  Name = 
REMARK  8 active torsions:
REMARK  status: ('A' for Active; 'I' for Inactive)
REMARK    1  A    between atoms: C_1  and  S_2
REMARK    2  A    between atoms: S_2  and  C_3
REMARK    3  A    between atoms: C_5  and  N_6
REMARK    4  A    between atoms: C_10  and  N_11
REMARK    5  A    between atoms: N_13  and  C_14
REMARK    6  A    between atoms: N_13  and  C_15
REMARK    7  A    between atoms: C_21  and  O_22
REMARK    8  A    between atoms: C_23  and  O_24
REMARK                            x       y       z     vdW  Elec       q    Type
REMARK                         _______ _______ _______ _____ _____    ______ ____
ROOT
ATOM      1  N   UNL     1       4.134   5.122  18.202  0.00  0.00    +0.000 N 
ATOM      2  C   UNL     1       3.476   4.889  17.025  0.00  0.00    +0.000 A 
ATOM      3  N   UNL     1       4.309   4.603  16.047  0.00  0.00    +0.000 NA
ATOM      4  C   UNL     1       5.567   4.647  16.615  0.00  0.00    +0.000 A 
ATOM      5  C   UNL     1       6.868   4.448  16.133  0.00  0.00    +0.000 A 
ATOM      6  N   UNL     1       7.927   4.578  16.959  0.00  0.00    +0.000 NA
ATOM      7  C   UNL     1       7.679   4.891  18.244  0.00  0.00    +0.000 A 
ATOM      8  F   UNL     1       8.757   5.032  19.033  0.00  0.00    +0.000 F 
ATOM      9  N   UNL     1       6.485   5.092  18.838  0.00  0.00    +0.000 NA
ATOM     10  C   UNL     1       5.473   4.960  17.963  0.00  0.00    +0.000 A 
ENDROOT
BRANCH   1  13
ATOM     11  C   UNL     1       2.173   4.471  21.049  0.00  0.00    +0.000 C 
ATOM     12  O   UNL     1       3.396   4.354  20.303  0.00  0.00    +0.000 OA
ATOM     13  C   UNL     1       3.536   5.517  19.461  0.00  0.00    +0.000 C 
ATOM     14  C   UNL     1       2.150   6.142  19.323  0.00  0.00    +0.000 C 
ATOM     15  C   UNL     1       1.529   5.818  20.672  0.00  0.00    +0.000 C 
BRANCH  11  17
ATOM     16  C   UNL     1       2.020   2.233  19.411  0.00  0.00    +0.000 C 
ATOM     17  S   UNL     1       1.056   3.078  20.693  0.00  0.00    +0.000 S 
ENDBRANCH  11  17
BRANCH  14  18
ATOM     18  O   UNL     1       2.192   7.547  19.082  0.00  0.00    +0.000 OA
ATOM     19  H   UNL     1       1.730   7.975  19.833  0.00  0.00    +0.000 HD
ENDBRANCH  14  18
BRANCH  15  20
ATOM     20  O   UNL     1       1.867   6.877  21.592  0.00  0.00    +0.000 OA
ATOM     21  H   UNL     1       2.327   7.593  21.116  0.00  0.00    +0.000 HD
ENDBRANCH  15  20
ENDBRANCH   1  13
BRANCH   5  22
ATOM     22  N   UNL     1       7.038   4.117  14.782  0.00  0.00    +0.000 NA
ATOM     23  C   UNL     1       6.002   3.851  14.065  0.00  0.00    +0.000 C 
ATOM     24  N   UNL     1       6.017   3.521  12.726  0.00  0.00    +0.000 N 
ATOM     25  C   UNL     1       7.259   3.456  11.975  0.00  0.00    +0.000 C 
ATOM     26  C   UNL     1       4.796   3.326  11.966  0.00  0.00    +0.000 C 
ENDBRANCH   5  22
TORSDOF 5
ENDMDL
MODEL 9
REMARK VINA RESULT:      -6.9      4.493      6.042
REMARK  Name = 
REMARK  8 active torsions:
REMARK  status: ('A' for Active; 'I' for Inactive)
REMARK    1  A    between atoms: C_1  and  S_2
REMARK    2  A    between atoms: S_2  and  C_3
REMARK    3  A    between atoms: C_5  and  N_6
REMARK    4  A    between atoms: C_10  and  N_11
REMARK    5  A    between atoms: N_13  and  C_14
REMARK    6  A    between atoms: N_13  and  C_15
REMARK    7  A    between atoms: C_21  and  O_22
REMARK    8  A    between atoms: C_23  and  O_24
REMARK                            x       y       z     vdW  Elec       q    Type
REMARK                         _______ _______ _______ _____ _____    ______ ____
ROOT
ATOM      1  N   UNL     1       1.360   9.305  19.171  0.00  0.00    +0.000 N 
ATOM      2  C   UNL     1       1.879   9.714  17.973  0.00  0.00    +0.000 A 
ATOM      3  N   UNL     1       2.649   8.793  17.432  0.00  0.00    +0.000 NA
ATOM      4  C   UNL     1       2.626   7.733  18.318  0.00  0.00    +0.000 A 
ATOM      5  C   UNL     1       3.225   6.467  18.347  0.00  0.00    +0.000 A 
ATOM      6  N   UNL     1       3.011   5.637  19.388  0.00  0.00    +0.000 NA
ATOM      7  C   UNL     1       2.204   6.069  20.374  0.00  0.00    +0.000 A 
ATOM      8  F   UNL     1       2.029   5.226  21.404  0.00  0.00    +0.000 F 
ATOM      9  N   UNL     1       1.556   7.249  20.462  0.00  0.00    +0.000 NA
ATOM     10  C   UNL     1       1.817   8.034  19.403  0.00  0.00    +0.000 A 
ENDROOT
BRANCH   1  13
ATOM     11  C   UNL     1      -1.541  11.169  19.865  0.00  0.00    +0.000 C 
ATOM     12  O   UNL     1      -0.857   9.919  19.673  0.00  0.00    +0.000 OA
ATOM     13  C   UNL     1       0.523  10.084  20.059  0.00  0.00    +0.000 C 
ATOM     14  C   UNL     1       0.819  11.582  20.041  0.00  0.00    +0.000 C 
ATOM     15  C   UNL     1      -0.524  12.167  20.447  0.00  0.00    +0.000 C 
BRANCH  11  17
ATOM     16  C   UNL     1      -1.987  10.309  17.261  0.00  0.00    +0.000 C 
ATOM     17  S   UNL     1      -2.245  11.774  18.298  0.00  0.00    +0.000 S 
ENDBRANCH  11  17
BRANCH  14  18
ATOM     18  O   UNL     1       1.856  11.957  20.944  0.00  0.00    +0.000 OA
ATOM     19  H   UNL     1       1.951  12.931  20.874  0.00  0.00    +0.000 HD
ENDBRANCH  14  18
BRANCH  15  20
ATOM     20  O   UNL     1      -0.570  12.239  21.887  0.00  0.00    +0.000 OA
ATOM     21  H   UNL     1       0.171  12.782  22.214  0.00  0.00    +0.000 HD
ENDBRANCH  15  20
ENDBRANCH   1  13
BRANCH   5  22
ATOM     22  N   UNL     1       4.047   6.090  17.275  0.00  0.00    +0.000 NA
ATOM     23  C   UNL     1       5.214   5.605  17.520  0.00  0.00    +0.000 C 
ATOM     24  N   UNL     1       6.122   5.184  16.571  0.00  0.00    +0.000 N 
ATOM     25  C   UNL     1       5.819   5.245  15.152  0.00  0.00    +0.000 C 
ATOM     26  C   UNL     1       7.382   4.561  16.933  0.00  0.00    +0.000 C 
ENDBRANCH   5  22
TORSDOF 5
ENDMDL
