MODEL 1
REMARK VINA RESULT:      -6.9      0.000      0.000
REMARK  Name = 
REMARK  6 active torsions:
REMARK  status: ('A' for Active; 'I' for Inactive)
REMARK    1  A    between atoms: C_1  and  O_2
REMARK    2  A    between atoms: O_2  and  C_3
REMARK    3  A    between atoms: C_3  and  C_5
REMARK    4  A    between atoms: C_6  and  C_7
REMARK    5  A    between atoms: C_10  and  C_11
REMARK    6  A    between atoms: N_22  and  C_23
REMARK                            x       y       z     vdW  Elec       q    Type
REMARK                         _______ _______ _______ _____ _____    ______ ____
ROOT
ATOM      1  C   UNL     1      -1.209  11.408  19.140  0.00  0.00    +0.000 C 
ATOM      2  C   UNL     1      -0.532  10.417  20.124  0.00  0.00    +0.000 C 
ATOM      3  C   UNL     1      -0.027  11.356  21.280  0.00  0.00    +0.000 C 
ATOM      4  C   UNL     1       0.816  12.557  20.765  0.00  0.00    +0.000 C 
ATOM      5  C   UNL     1       0.073  13.894  20.643  0.00  0.00    +0.000 C 
ATOM      6  C   UNL     1      -0.613  13.855  19.270  0.00  0.00    +0.000 C 
ATOM      7  C   UNL     1      -0.185  12.503  18.673  0.00  0.00    +0.000 C 
ATOM      8  N   UNL     1       1.109  12.265  19.367  0.00  0.00    +0.000 NA
ATOM      9  C   UNL     1       2.290  12.925  18.846  0.00  0.00    +0.000 C 
ENDROOT
BRANCH   2  10
ATOM     10  C   UNL     1       0.539   9.479  19.524  0.00  0.00    +0.000 A 
ATOM     11  C   UNL     1       0.925   9.504  18.171  0.00  0.00    +0.000 A 
ATOM     12  C   UNL     1       1.895   8.634  17.652  0.00  0.00    +0.000 A 
ATOM     13  C   UNL     1       2.533   7.711  18.475  0.00  0.00    +0.000 A 
ATOM     14  C   UNL     1       2.156   7.672  19.825  0.00  0.00    +0.000 A 
ATOM     15  C   UNL     1       1.176   8.537  20.341  0.00  0.00    +0.000 A 
BRANCH  13  16
ATOM     16  C   UNL     1       3.473   6.690  17.974  0.00  0.00    +0.000 C 
ATOM     17  C   UNL     1       3.303   5.380  17.715  0.00  0.00    +0.000 C 
ATOM     18 BR   UNL     1       1.710   4.415  17.863  0.00  0.00    +0.000 Br
ATOM     19 BR   UNL     1       4.769   4.365  17.099  0.00  0.00    +0.000 Br
ENDBRANCH  13  16
ENDBRANCH   2  10
BRANCH   1  20
ATOM     20  C   UNL     1      -2.065  10.722  18.073  0.00  0.00    +0.000 C 
ATOM     21  O   UNL     1      -2.644   9.651  18.206  0.00  0.00    +0.000 OA
BRANCH  20  23
ATOM     22  C   UNL     1      -2.779  10.995  15.828  0.00  0.00    +0.000 C 
ATOM     23  O   UNL     1      -1.987  11.456  16.925  0.00  0.00    +0.000 OA
ENDBRANCH  20  23
ENDBRANCH   1  20
TORSDOF 4
ENDMDL
MODEL 2
REMARK VINA RESULT:      -6.9      4.637      8.179
REMARK  Name = 
REMARK  6 active torsions:
REMARK  status: ('A' for Active; 'I' for Inactive)
REMARK    1  A    between atoms: C_1  and  O_2
REMARK    2  A    between atoms: O_2  and  C_3
REMARK    3  A    between atoms: C_3  and  C_5
REMARK    4  A    between atoms: C_6  and  C_7
REMARK    5  A    between atoms: C_10  and  C_11
REMARK    6  A    between atoms: N_22  and  C_23
REMARK                            x       y       z     vdW  Elec       q    Type
REMARK                         _______ _______ _______ _____ _____    ______ ____
ROOT
ATOM      1  C   UNL     1       5.107   3.998  17.811  0.00  0.00    +0.000 C 
ATOM      2  C   UNL     1       4.041   4.828  17.048  0.00  0.00    +0.000 C 
ATOM      3  C   UNL     1       4.822   5.321  15.774  0.00  0.00    +0.000 C 
ATOM      4  C   UNL     1       6.173   6.012  16.118  0.00  0.00    +0.000 C 
ATOM      5  C   UNL     1       7.428   5.141  15.970  0.00  0.00    +0.000 C 
ATOM      6  C   UNL     1       7.547   4.372  17.294  0.00  0.00    +0.000 C 
ATOM      7  C   UNL     1       6.363   4.882  18.135  0.00  0.00    +0.000 C 
ATOM      8  N   UNL     1       6.149   6.237  17.557  0.00  0.00    +0.000 NA
ATOM      9  C   UNL     1       7.004   7.313  18.016  0.00  0.00    +0.000 C 
ENDROOT
BRANCH   2  10
ATOM     10  C   UNL     1       3.331   5.940  17.852  0.00  0.00    +0.000 A 
ATOM     11  C   UNL     1       3.150   7.251  17.374  0.00  0.00    +0.000 A 
ATOM     12  C   UNL     1       2.508   8.243  18.130  0.00  0.00    +0.000 A 
ATOM     13  C   UNL     1       2.004   7.957  19.395  0.00  0.00    +0.000 A 
ATOM     14  C   UNL     1       2.181   6.655  19.886  0.00  0.00    +0.000 A 
ATOM     15  C   UNL     1       2.833   5.665  19.131  0.00  0.00    +0.000 A 
BRANCH  13  16
ATOM     16  C   UNL     1       1.426   8.977  20.290  0.00  0.00    +0.000 C 
ATOM     17  C   UNL     1       0.494   9.922  20.071  0.00  0.00    +0.000 C 
ATOM     18 BR   UNL     1      -0.452  10.204  18.485  0.00  0.00    +0.000 Br
ATOM     19 BR   UNL     1       0.016  11.087  21.476  0.00  0.00    +0.000 Br
ENDBRANCH  13  16
ENDBRANCH   2  10
BRANCH   1  20
ATOM     20  C   UNL     1       4.523   3.140  18.936  0.00  0.00    +0.000 C 
ATOM     21  O   UNL     1       4.964   3.065  20.076  0.00  0.00    +0.000 OA
BRANCH  20  23
ATOM     22  C   UNL     1       2.441   2.073  19.329  0.00  0.00    +0.000 C 
ATOM     23  O   UNL     1       3.495   2.402  18.422  0.00  0.00    +0.000 OA
ENDBRANCH  20  23
ENDBRANCH   1  20
TORSDOF 4
ENDMDL
MODEL 3
REMARK VINA RESULT:      -6.9      4.494      8.168
REMARK  Name = 
REMARK  6 active torsions:
REMARK  status: ('A' for Active; 'I' for Inactive)
REMARK    1  A    between atoms: C_1  and  O_2
REMARK    2  A    between atoms: O_2  and  C_3
REMARK    3  A    between atoms: C_3  and  C_5
REMARK    4  A    between atoms: C_6  and  C_7
REMARK    5  A    between atoms: C_10  and  C_11
REMARK    6  A    between atoms: N_22  and  C_23
REMARK                            x       y       z     vdW  Elec       q    Type
REMARK                         _______ _______ _______ _____ _____    ______ ____
ROOT
ATOM      1  C   UNL     1       4.650   4.636  17.883  0.00  0.00    +0.000 C 
ATOM      2  C   UNL     1       4.302   5.425  19.172  0.00  0.00    +0.000 C 
ATOM      3  C   UNL     1       3.814   4.297  20.155  0.00  0.00    +0.000 C 
ATOM      4  C   UNL     1       2.713   3.387  19.540  0.00  0.00    +0.000 C 
ATOM      5  C   UNL     1       3.191   2.039  18.983  0.00  0.00    +0.000 C 
ATOM      6  C   UNL     1       3.668   2.336  17.554  0.00  0.00    +0.000 C 
ATOM      7  C   UNL     1       3.398   3.840  17.370  0.00  0.00    +0.000 C 
ATOM      8  N   UNL     1       2.277   4.060  18.323  0.00  0.00    +0.000 NA
ATOM      9  C   UNL     1       0.938   3.715  17.887  0.00  0.00    +0.000 C 
ENDROOT
BRANCH   2  10
ATOM     10  C   UNL     1       3.332   6.616  19.008  0.00  0.00    +0.000 A 
ATOM     11  C   UNL     1       2.394   6.996  19.986  0.00  0.00    +0.000 A 
ATOM     12  C   UNL     1       1.519   8.078  19.807  0.00  0.00    +0.000 A 
ATOM     13  C   UNL     1       1.560   8.837  18.641  0.00  0.00    +0.000 A 
ATOM     14  C   UNL     1       2.487   8.467  17.655  0.00  0.00    +0.000 A 
ATOM     15  C   UNL     1       3.356   7.377  17.833  0.00  0.00    +0.000 A 
BRANCH  13  16
ATOM     16  C   UNL     1       0.595   9.909  18.335  0.00  0.00    +0.000 C 
ATOM     17  C   UNL     1       0.195  10.973  19.055  0.00  0.00    +0.000 C 
ATOM     18 BR   UNL     1       0.826  11.478  20.740  0.00  0.00    +0.000 Br
ATOM     19 BR   UNL     1      -1.103  12.138  18.335  0.00  0.00    +0.000 Br
ENDBRANCH  13  16
ENDBRANCH   2  10
BRANCH   1  20
ATOM     20  C   UNL     1       5.449   5.452  16.864  0.00  0.00    +0.000 C 
ATOM     21  O   UNL     1       5.106   5.685  15.712  0.00  0.00    +0.000 OA
BRANCH  20  23
ATOM     22  C   UNL     1       7.564   4.713  17.642  0.00  0.00    +0.000 C 
ATOM     23  O   UNL     1       6.647   5.787  17.428  0.00  0.00    +0.000 OA
ENDBRANCH  20  23
ENDBRANCH   1  20
TORSDOF 4
ENDMDL
MODEL 4
REMARK VINA RESULT:      -6.9      4.742      7.987
REMARK  Name = 
REMARK  6 active torsions:
REMARK  status: ('A' for Active; 'I' for Inactive)
REMARK    1  A    between atoms: C_1  and  O_2
REMARK    2  A    between atoms: O_2  and  C_3
REMARK    3  A    between atoms: C_3  and  C_5
REMARK    4  A    between atoms: C_6  and  C_7
REMARK    5  A    between atoms: C_10  and  C_11
REMARK    6  A    between atoms: N_22  and  C_23
REMARK                            x       y       z     vdW  Elec       q    Type
REMARK                         _______ _______ _______ _____ _____    ______ ____
ROOT
ATOM      1  C   UNL     1       4.342   4.359  16.952  0.00  0.00    +0.000 C 
ATOM      2  C   UNL     1       3.741   5.779  16.777  0.00  0.00    +0.000 C 
ATOM      3  C   UNL     1       4.938   6.598  16.168  0.00  0.00    +0.000 C 
ATOM      4  C   UNL     1       6.250   6.461  16.992  0.00  0.00    +0.000 C 
ATOM      5  C   UNL     1       7.279   5.459  16.453  0.00  0.00    +0.000 C 
ATOM      6  C   UNL     1       6.850   4.095  17.012  0.00  0.00    +0.000 C 
ATOM      7  C   UNL     1       5.614   4.411  17.872  0.00  0.00    +0.000 C 
ATOM      8  N   UNL     1       5.866   5.829  18.248  0.00  0.00    +0.000 NA
ATOM      9  C   UNL     1       6.765   6.088  19.355  0.00  0.00    +0.000 C 
ENDROOT
BRANCH   2  10
ATOM     10  C   UNL     1       3.085   6.406  18.027  0.00  0.00    +0.000 A 
ATOM     11  C   UNL     1       2.747   5.671  19.179  0.00  0.00    +0.000 A 
ATOM     12  C   UNL     1       2.144   6.265  20.298  0.00  0.00    +0.000 A 
ATOM     13  C   UNL     1       1.870   7.629  20.315  0.00  0.00    +0.000 A 
ATOM     14  C   UNL     1       2.199   8.374  19.172  0.00  0.00    +0.000 A 
ATOM     15  C   UNL     1       2.793   7.775  18.049  0.00  0.00    +0.000 A 
BRANCH  13  16
ATOM     16  C   UNL     1       1.133   8.297  21.405  0.00  0.00    +0.000 C 
ATOM     17  C   UNL     1       0.212   9.277  21.381  0.00  0.00    +0.000 C 
ATOM     18 BR   UNL     1      -0.500  10.097  19.860  0.00  0.00    +0.000 Br
ATOM     19 BR   UNL     1      -0.506   9.906  23.008  0.00  0.00    +0.000 Br
ENDBRANCH  13  16
ENDBRANCH   2  10
BRANCH   1  20
ATOM     20  C   UNL     1       3.294   3.281  17.236  0.00  0.00    +0.000 C 
ATOM     21  O   UNL     1       2.172   3.233  16.746  0.00  0.00    +0.000 OA
BRANCH  20  23
ATOM     22  C   UNL     1       2.828   1.899  19.105  0.00  0.00    +0.000 C 
ATOM     23  O   UNL     1       3.786   2.447  18.198  0.00  0.00    +0.000 OA
ENDBRANCH  20  23
ENDBRANCH   1  20
TORSDOF 4
ENDMDL
MODEL 5
REMARK VINA RESULT:      -6.8      4.549      8.198
REMARK  Name = 
REMARK  6 active torsions:
REMARK  status: ('A' for Active; 'I' for Inactive)
REMARK    1  A    between atoms: C_1  and  O_2
REMARK    2  A    between atoms: O_2  and  C_3
REMARK    3  A    between atoms: C_3  and  C_5
REMARK    4  A    between atoms: C_6  and  C_7
REMARK    5  A    between atoms: C_10  and  C_11
REMARK    6  A    between atoms: N_22  and  C_23
REMARK                            x       y       z     vdW  Elec       q    Type
REMARK                         _______ _______ _______ _____ _____    ______ ____
ROOT
ATOM      1  C   UNL     1       5.054   3.998  17.773  0.00  0.00    +0.000 C 
ATOM      2  C   UNL     1       3.994   4.877  17.059  0.00  0.00    +0.000 C 
ATOM      3  C   UNL     1       4.768   5.412  15.799  0.00  0.00    +0.000 C 
ATOM      4  C   UNL     1       6.134   6.067  16.156  0.00  0.00    +0.000 C 
ATOM      5  C   UNL     1       7.373   5.184  15.956  0.00  0.00    +0.000 C 
ATOM      6  C   UNL     1       7.494   4.356  17.243  0.00  0.00    +0.000 C 
ATOM      7  C   UNL     1       6.329   4.847  18.120  0.00  0.00    +0.000 C 
ATOM      8  N   UNL     1       6.129   6.229  17.605  0.00  0.00    +0.000 NA
ATOM      9  C   UNL     1       7.006   7.271  18.099  0.00  0.00    +0.000 C 
ENDROOT
BRANCH   2  10
ATOM     10  C   UNL     1       3.310   5.963  17.920  0.00  0.00    +0.000 A 
ATOM     11  C   UNL     1       2.851   5.740  19.232  0.00  0.00    +0.000 A 
ATOM     12  C   UNL     1       2.226   6.743  19.987  0.00  0.00    +0.000 A 
ATOM     13  C   UNL     1       2.050   8.020  19.464  0.00  0.00    +0.000 A 
ATOM     14  C   UNL     1       2.499   8.256  18.156  0.00  0.00    +0.000 A 
ATOM     15  C   UNL     1       3.116   7.247  17.397  0.00  0.00    +0.000 A 
BRANCH  13  16
ATOM     16  C   UNL     1       1.298   9.085  20.154  0.00  0.00    +0.000 C 
ATOM     17  C   UNL     1       0.318   9.900  19.723  0.00  0.00    +0.000 C 
ATOM     18 BR   UNL     1      -0.475   9.888  18.031  0.00  0.00    +0.000 Br
ATOM     19 BR   UNL     1      -0.401  11.183  20.905  0.00  0.00    +0.000 Br
ENDBRANCH  13  16
ENDBRANCH   2  10
BRANCH   1  20
ATOM     20  C   UNL     1       4.470   3.100  18.866  0.00  0.00    +0.000 C 
ATOM     21  O   UNL     1       4.930   2.958  19.992  0.00  0.00    +0.000 OA
BRANCH  20  23
ATOM     22  C   UNL     1       2.353   2.099  19.241  0.00  0.00    +0.000 C 
ATOM     23  O   UNL     1       3.414   2.414  18.338  0.00  0.00    +0.000 OA
ENDBRANCH  20  23
ENDBRANCH   1  20
TORSDOF 4
ENDMDL
MODEL 6
REMARK VINA RESULT:      -6.8      4.453      7.897
REMARK  Name = 
REMARK  6 active torsions:
REMARK  status: ('A' for Active; 'I' for Inactive)
REMARK    1  A    between atoms: C_1  and  O_2
REMARK    2  A    between atoms: O_2  and  C_3
REMARK    3  A    between atoms: C_3  and  C_5
REMARK    4  A    between atoms: C_6  and  C_7
REMARK    5  A    between atoms: C_10  and  C_11
REMARK    6  A    between atoms: N_22  and  C_23
REMARK                            x       y       z     vdW  Elec       q    Type
REMARK                         _______ _______ _______ _____ _____    ______ ____
ROOT
ATOM      1  C   UNL     1       3.997   4.338  19.130  0.00  0.00    +0.000 C 
ATOM      2  C   UNL     1       3.134   5.064  20.196  0.00  0.00    +0.000 C 
ATOM      3  C   UNL     1       2.040   3.992  20.554  0.00  0.00    +0.000 C 
ATOM      4  C   UNL     1       1.317   3.418  19.302  0.00  0.00    +0.000 C 
ATOM      5  C   UNL     1       1.815   2.054  18.807  0.00  0.00    +0.000 C 
ATOM      6  C   UNL     1       3.018   2.363  17.905  0.00  0.00    +0.000 C 
ATOM      7  C   UNL     1       3.110   3.899  17.911  0.00  0.00    +0.000 C 
ATOM      8  N   UNL     1       1.700   4.282  18.192  0.00  0.00    +0.000 NA
ATOM      9  C   UNL     1       0.766   4.293  17.084  0.00  0.00    +0.000 C 
ENDROOT
BRANCH   2  10
ATOM     10  C   UNL     1       2.588   6.455  19.806  0.00  0.00    +0.000 A 
ATOM     11  C   UNL     1       2.843   7.071  18.566  0.00  0.00    +0.000 A 
ATOM     12  C   UNL     1       2.340   8.340  18.242  0.00  0.00    +0.000 A 
ATOM     13  C   UNL     1       1.544   9.039  19.143  0.00  0.00    +0.000 A 
ATOM     14  C   UNL     1       1.285   8.440  20.385  0.00  0.00    +0.000 A 
ATOM     15  C   UNL     1       1.797   7.173  20.712  0.00  0.00    +0.000 A 
BRANCH  13  16
ATOM     16  C   UNL     1       1.082  10.422  18.917  0.00  0.00    +0.000 C 
ATOM     17  C   UNL     1      -0.103  10.903  18.501  0.00  0.00    +0.000 C 
ATOM     18 BR   UNL     1      -1.636   9.906  18.118  0.00  0.00    +0.000 Br
ATOM     19 BR   UNL     1      -0.322  12.766  18.300  0.00  0.00    +0.000 Br
ENDBRANCH  13  16
ENDBRANCH   2  10
BRANCH   1  20
ATOM     20  C   UNL     1       5.325   5.041  18.837  0.00  0.00    +0.000 C 
ATOM     21  O   UNL     1       6.057   5.557  19.672  0.00  0.00    +0.000 OA
BRANCH  20  23
ATOM     22  C   UNL     1       6.777   4.665  17.000  0.00  0.00    +0.000 C 
ATOM     23  O   UNL     1       5.499   5.081  17.483  0.00  0.00    +0.000 OA
ENDBRANCH  20  23
ENDBRANCH   1  20
TORSDOF 4
ENDMDL
MODEL 7
REMARK VINA RESULT:      -6.8      4.391      7.843
REMARK  Name = 
REMARK  6 active torsions:
REMARK  status: ('A' for Active; 'I' for Inactive)
REMARK    1  A    between atoms: C_1  and  O_2
REMARK    2  A    between atoms: O_2  and  C_3
REMARK    3  A    between atoms: C_3  and  C_5
REMARK    4  A    between atoms: C_6  and  C_7
REMARK    5  A    between atoms: C_10  and  C_11
REMARK    6  A    between atoms: N_22  and  C_23
REMARK                            x       y       z     vdW  Elec       q    Type
REMARK                         _______ _______ _______ _____ _____    ______ ____
ROOT
ATOM      1  C   UNL     1       4.647   5.140  17.963  0.00  0.00    +0.000 C 
ATOM      2  C   UNL     1       4.132   5.837  19.250  0.00  0.00    +0.000 C 
ATOM      3  C   UNL     1       3.621   4.632  20.124  0.00  0.00    +0.000 C 
ATOM      4  C   UNL     1       2.639   3.699  19.360  0.00  0.00    +0.000 C 
ATOM      5  C   UNL     1       3.246   2.411  18.787  0.00  0.00    +0.000 C 
ATOM      6  C   UNL     1       3.839   2.811  17.428  0.00  0.00    +0.000 C 
ATOM      7  C   UNL     1       3.498   4.305  17.292  0.00  0.00    +0.000 C 
ATOM      8  N   UNL     1       2.281   4.413  18.141  0.00  0.00    +0.000 NA
ATOM      9  C   UNL     1       1.012   4.019  17.560  0.00  0.00    +0.000 C 
ENDROOT
BRANCH   2  10
ATOM     10  C   UNL     1       3.113   6.981  19.050  0.00  0.00    +0.000 A 
ATOM     11  C   UNL     1       2.998   7.720  17.858  0.00  0.00    +0.000 A 
ATOM     12  C   UNL     1       2.070   8.761  17.707  0.00  0.00    +0.000 A 
ATOM     13  C   UNL     1       1.202   9.093  18.743  0.00  0.00    +0.000 A 
ATOM     14  C   UNL     1       1.307   8.366  19.939  0.00  0.00    +0.000 A 
ATOM     15  C   UNL     1       2.245   7.331  20.091  0.00  0.00    +0.000 A 
BRANCH  13  16
ATOM     16  C   UNL     1       0.285  10.247  18.697  0.00  0.00    +0.000 C 
ATOM     17  C   UNL     1       0.528  11.569  18.635  0.00  0.00    +0.000 C 
ATOM     18 BR   UNL     1       2.203  12.388  18.522  0.00  0.00    +0.000 Br
ATOM     19 BR   UNL     1      -0.925  12.773  18.618  0.00  0.00    +0.000 Br
ENDBRANCH  13  16
ENDBRANCH   2  10
BRANCH   1  20
ATOM     20  C   UNL     1       5.489   6.052  17.068  0.00  0.00    +0.000 C 
ATOM     21  O   UNL     1       6.290   6.891  17.460  0.00  0.00    +0.000 OA
BRANCH  20  23
ATOM     22  C   UNL     1       6.067   5.159  14.949  0.00  0.00    +0.000 C 
ATOM     23  O   UNL     1       5.119   5.841  15.771  0.00  0.00    +0.000 OA
ENDBRANCH  20  23
ENDBRANCH   1  20
TORSDOF 4
ENDMDL
MODEL 8
REMARK VINA RESULT:      -6.8      4.365      7.846
REMARK  Name = 
REMARK  6 active torsions:
REMARK  status: ('A' for Active; 'I' for Inactive)
REMARK    1  A    between atoms: C_1  and  O_2
REMARK    2  A    between atoms: O_2  and  C_3
REMARK    3  A    between atoms: C_3  and  C_5
REMARK    4  A    between atoms: C_6  and  C_7
REMARK    5  A    between atoms: C_10  and  C_11
REMARK    6  A    between atoms: N_22  and  C_23
REMARK                            x       y       z     vdW  Elec       q    Type
REMARK                         _______ _______ _______ _____ _____    ______ ____
ROOT
ATOM      1  C   UNL     1       4.701   5.416  17.725  0.00  0.00    +0.000 C 
ATOM      2  C   UNL     1       4.227   6.061  19.054  0.00  0.00    +0.000 C 
ATOM      3  C   UNL     1       3.859   4.814  19.940  0.00  0.00    +0.000 C 
ATOM      4  C   UNL     1       2.894   3.824  19.227  0.00  0.00    +0.000 C 
ATOM      5  C   UNL     1       3.548   2.589  18.595  0.00  0.00    +0.000 C 
ATOM      6  C   UNL     1       4.019   3.044  17.207  0.00  0.00    +0.000 C 
ATOM      7  C   UNL     1       3.570   4.513  17.118  0.00  0.00    +0.000 C 
ATOM      8  N   UNL     1       2.407   4.526  18.046  0.00  0.00    +0.000 NA
ATOM      9  C   UNL     1       1.132   4.053  17.544  0.00  0.00    +0.000 C 
ENDROOT
BRANCH   2  10
ATOM     10  C   UNL     1       3.122   7.134  18.941  0.00  0.00    +0.000 A 
ATOM     11  C   UNL     1       2.905   7.908  17.785  0.00  0.00    +0.000 A 
ATOM     12  C   UNL     1       1.899   8.882  17.713  0.00  0.00    +0.000 A 
ATOM     13  C   UNL     1       1.053   9.111  18.794  0.00  0.00    +0.000 A 
ATOM     14  C   UNL     1       1.261   8.350  19.955  0.00  0.00    +0.000 A 
ATOM     15  C   UNL     1       2.276   7.381  20.028  0.00  0.00    +0.000 A 
BRANCH  13  16
ATOM     16  C   UNL     1       0.056  10.197  18.831  0.00  0.00    +0.000 C 
ATOM     17  C   UNL     1       0.202  11.533  18.870  0.00  0.00    +0.000 C 
ATOM     18 BR   UNL     1       1.813  12.478  18.828  0.00  0.00    +0.000 Br
ATOM     19 BR   UNL     1      -1.335  12.627  18.936  0.00  0.00    +0.000 Br
ENDBRANCH  13  16
ENDBRANCH   2  10
BRANCH   1  20
ATOM     20  C   UNL     1       5.417   6.396  16.792  0.00  0.00    +0.000 C 
ATOM     21  O   UNL     1       5.359   6.385  15.569  0.00  0.00    +0.000 OA
BRANCH  20  23
ATOM     22  C   UNL     1       7.617   7.045  17.396  0.00  0.00    +0.000 C 
ATOM     23  O   UNL     1       6.207   7.211  17.551  0.00  0.00    +0.000 OA
ENDBRANCH  20  23
ENDBRANCH   1  20
TORSDOF 4
ENDMDL
MODEL 9
REMARK VINA RESULT:      -6.7      4.555      8.259
REMARK  Name = 
REMARK  6 active torsions:
REMARK  status: ('A' for Active; 'I' for Inactive)
REMARK    1  A    between atoms: C_1  and  O_2
REMARK    2  A    between atoms: O_2  and  C_3
REMARK    3  A    between atoms: C_3  and  C_5
REMARK    4  A    between atoms: C_6  and  C_7
REMARK    5  A    between atoms: C_10  and  C_11
REMARK    6  A    between atoms: N_22  and  C_23
REMARK                            x       y       z     vdW  Elec       q    Type
REMARK                         _______ _______ _______ _____ _____    ______ ____
ROOT
ATOM      1  C   UNL     1       4.681   4.176  17.786  0.00  0.00    +0.000 C 
ATOM      2  C   UNL     1       4.462   5.086  19.023  0.00  0.00    +0.000 C 
ATOM      3  C   UNL     1       3.967   4.076  20.123  0.00  0.00    +0.000 C 
ATOM      4  C   UNL     1       2.775   3.196  19.648  0.00  0.00    +0.000 C 
ATOM      5  C   UNL     1       3.132   1.779  19.179  0.00  0.00    +0.000 C 
ATOM      6  C   UNL     1       3.539   1.929  17.706  0.00  0.00    +0.000 C 
ATOM      7  C   UNL     1       3.352   3.428  17.413  0.00  0.00    +0.000 C 
ATOM      8  N   UNL     1       2.307   3.799  18.405  0.00  0.00    +0.000 NA
ATOM      9  C   UNL     1       0.925   3.511  18.076  0.00  0.00    +0.000 C 
ENDROOT
BRANCH   2  10
ATOM     10  C   UNL     1       3.561   6.324  18.815  0.00  0.00    +0.000 A 
ATOM     11  C   UNL     1       3.603   7.131  17.663  0.00  0.00    +0.000 A 
ATOM     12  C   UNL     1       2.778   8.255  17.505  0.00  0.00    +0.000 A 
ATOM     13  C   UNL     1       1.861   8.607  18.490  0.00  0.00    +0.000 A 
ATOM     14  C   UNL     1       1.811   7.813  19.646  0.00  0.00    +0.000 A 
ATOM     15  C   UNL     1       2.645   6.694  19.807  0.00  0.00    +0.000 A 
BRANCH  13  16
ATOM     16  C   UNL     1       1.050   9.837  18.443  0.00  0.00    +0.000 C 
ATOM     17  C   UNL     1       0.508  10.579  19.426  0.00  0.00    +0.000 C 
ATOM     18 BR   UNL     1       0.681  10.289  21.264  0.00  0.00    +0.000 Br
ATOM     19 BR   UNL     1      -0.509  12.104  18.976  0.00  0.00    +0.000 Br
ENDBRANCH  13  16
ENDBRANCH   2  10
BRANCH   1  20
ATOM     20  C   UNL     1       5.465   4.854  16.660  0.00  0.00    +0.000 C 
ATOM     21  O   UNL     1       5.191   4.796  15.468  0.00  0.00    +0.000 OA
BRANCH  20  23
ATOM     22  C   UNL     1       7.627   4.563  17.589  0.00  0.00    +0.000 C 
ATOM     23  O   UNL     1       6.571   5.443  17.202  0.00  0.00    +0.000 OA
ENDBRANCH  20  23
ENDBRANCH   1  20
TORSDOF 4
ENDMDL
