MODEL 1
REMARK VINA RESULT:      -8.8      0.000      0.000
REMARK  Name = 
REMARK  6 active torsions:
REMARK  status: ('A' for Active; 'I' for Inactive)
REMARK    1  A    between atoms: C_1  and  C_2
REMARK    2  A    between atoms: C_6  and  C_8
REMARK    3  A    between atoms: C_8  and  O_9
REMARK    4  A    between atoms: O_9  and  C_10
REMARK    5  A    between atoms: C_10  and  C_12
REMARK    6  A    between atoms: N_16  and  C_17
REMARK                            x       y       z     vdW  Elec       q    Type
REMARK                         _______ _______ _______ _____ _____    ______ ____
ROOT
ATOM      1  C   UNL     1       3.748   4.038  19.426  0.00  0.00    +0.000 C 
ATOM      2  O   UNL     1       2.996   3.091  19.544  0.00  0.00    +0.000 OA
ENDROOT
BRANCH   1   3
ATOM      3  C   UNL     1       3.359   5.489  19.453  0.00  0.00    +0.000 C 
ATOM      4  C   UNL     1       3.064   5.991  18.053  0.00  0.00    +0.000 C 
ATOM      5  C   UNL     1       2.457   7.327  18.354  0.00  0.00    +0.000 C 
ATOM      6  O   UNL     1       2.537   8.265  17.577  0.00  0.00    +0.000 OA
ATOM      7  N   UNL     1       1.897   7.257  19.648  0.00  0.00    +0.000 N 
ATOM      8  C   UNL     1       2.118   5.928  20.207  0.00  0.00    +0.000 C 
BRANCH   7   9
ATOM      9  C   UNL     1       1.360   8.379  20.339  0.00  0.00    +0.000 A 
ATOM     10  C   UNL     1       1.236   8.351  21.739  0.00  0.00    +0.000 A 
ATOM     11  C   UNL     1       0.619   9.385  22.451  0.00  0.00    +0.000 A 
ATOM     12  C   UNL     1       0.118  10.481  21.767  0.00  0.00    +0.000 A 
ATOM     13 CL   UNL     1      -0.676  11.735  22.632  0.00  0.00    +0.000 Cl
ATOM     14  C   UNL     1       0.256  10.556  20.383  0.00  0.00    +0.000 A 
ATOM     15  C   UNL     1       0.887   9.518  19.673  0.00  0.00    +0.000 A 
ENDBRANCH   7   9
ENDBRANCH   1   3
BRANCH   1  16
ATOM     16  O   UNL     1       5.120   4.000  19.349  0.00  0.00    +0.000 OA
BRANCH  16  17
ATOM     17  C   UNL     1       5.828   5.236  19.302  0.00  0.00    +0.000 C 
BRANCH  17  23
ATOM     18  C   UNL     1       7.046   3.981  12.065  0.00  0.00    +0.000 C 
ATOM     19  C   UNL     1       6.916   4.382  13.478  0.00  0.00    +0.000 A 
ATOM     20  C   UNL     1       6.108   4.016  14.531  0.00  0.00    +0.000 A 
ATOM     21  C   UNL     1       6.570   4.793  15.629  0.00  0.00    +0.000 A 
ATOM     22  N   UNL     1       6.056   4.726  16.916  0.00  0.00    +0.000 N 
ATOM     23  C   UNL     1       6.543   5.479  17.971  0.00  0.00    +0.000 C 
ATOM     24  O   UNL     1       7.425   6.332  17.911  0.00  0.00    +0.000 OA
ATOM     25  N   UNL     1       7.571   5.589  15.239  0.00  0.00    +0.000 NA
ATOM     26  O   UNL     1       7.786   5.331  13.904  0.00  0.00    +0.000 OA
ATOM     27  H   UNL     1       5.308   4.072  17.086  0.00  0.00    +0.000 HD
ENDBRANCH  17  23
ENDBRANCH  16  17
ENDBRANCH   1  16
TORSDOF 5
ENDMDL
MODEL 2
REMARK VINA RESULT:      -8.7      0.967      1.072
REMARK  Name = 
REMARK  6 active torsions:
REMARK  status: ('A' for Active; 'I' for Inactive)
REMARK    1  A    between atoms: C_1  and  C_2
REMARK    2  A    between atoms: C_6  and  C_8
REMARK    3  A    between atoms: C_8  and  O_9
REMARK    4  A    between atoms: O_9  and  C_10
REMARK    5  A    between atoms: C_10  and  C_12
REMARK    6  A    between atoms: N_16  and  C_17
REMARK                            x       y       z     vdW  Elec       q    Type
REMARK                         _______ _______ _______ _____ _____    ______ ____
ROOT
ATOM      1  C   UNL     1       3.468   5.280  18.623  0.00  0.00    +0.000 C 
ATOM      2  O   UNL     1       3.050   4.561  17.737  0.00  0.00    +0.000 OA
ENDROOT
BRANCH   1   3
ATOM      3  C   UNL     1       3.024   6.687  18.907  0.00  0.00    +0.000 C 
ATOM      4  C   UNL     1       2.723   7.424  17.616  0.00  0.00    +0.000 C 
ATOM      5  C   UNL     1       2.064   8.662  18.145  0.00  0.00    +0.000 C 
ATOM      6  O   UNL     1       2.116   9.727  17.553  0.00  0.00    +0.000 OA
ATOM      7  N   UNL     1       1.494   8.337  19.395  0.00  0.00    +0.000 N 
ATOM      8  C   UNL     1       1.761   6.937  19.708  0.00  0.00    +0.000 C 
BRANCH   7   9
ATOM      9  C   UNL     1       0.909   9.295  20.270  0.00  0.00    +0.000 A 
ATOM     10  C   UNL     1       0.809   9.025  21.646  0.00  0.00    +0.000 A 
ATOM     11  C   UNL     1       0.149   9.888  22.526  0.00  0.00    +0.000 A 
ATOM     12  C   UNL     1      -0.421  11.054  22.040  0.00  0.00    +0.000 A 
ATOM     13 CL   UNL     1      -1.267  12.098  23.111  0.00  0.00    +0.000 Cl
ATOM     14  C   UNL     1      -0.310  11.368  20.688  0.00  0.00    +0.000 A 
ATOM     15  C   UNL     1       0.365  10.502  19.809  0.00  0.00    +0.000 A 
ENDBRANCH   7   9
ENDBRANCH   1   3
BRANCH   1  16
ATOM     16  O   UNL     1       4.352   4.937  19.618  0.00  0.00    +0.000 OA
BRANCH  16  17
ATOM     17  C   UNL     1       5.505   4.177  19.263  0.00  0.00    +0.000 C 
BRANCH  17  23
ATOM     18  C   UNL     1       7.213   4.364  12.019  0.00  0.00    +0.000 C 
ATOM     19  C   UNL     1       6.968   4.491  13.467  0.00  0.00    +0.000 A 
ATOM     20  C   UNL     1       6.160   3.858  14.385  0.00  0.00    +0.000 A 
ATOM     21  C   UNL     1       6.471   4.476  15.628  0.00  0.00    +0.000 A 
ATOM     22  N   UNL     1       5.908   4.125  16.847  0.00  0.00    +0.000 N 
ATOM     23  C   UNL     1       6.249   4.730  18.045  0.00  0.00    +0.000 C 
ATOM     24  O   UNL     1       7.023   5.672  18.191  0.00  0.00    +0.000 OA
ATOM     25  N   UNL     1       7.386   5.434  15.448  0.00  0.00    +0.000 NA
ATOM     26  O   UNL     1       7.694   5.441  14.107  0.00  0.00    +0.000 OA
ATOM     27  H   UNL     1       5.238   3.372  16.852  0.00  0.00    +0.000 HD
ENDBRANCH  17  23
ENDBRANCH  16  17
ENDBRANCH   1  16
TORSDOF 5
ENDMDL
MODEL 3
REMARK VINA RESULT:      -8.6      0.759      1.204
REMARK  Name = 
REMARK  6 active torsions:
REMARK  status: ('A' for Active; 'I' for Inactive)
REMARK    1  A    between atoms: C_1  and  C_2
REMARK    2  A    between atoms: C_6  and  C_8
REMARK    3  A    between atoms: C_8  and  O_9
REMARK    4  A    between atoms: O_9  and  C_10
REMARK    5  A    between atoms: C_10  and  C_12
REMARK    6  A    between atoms: N_16  and  C_17
REMARK                            x       y       z     vdW  Elec       q    Type
REMARK                         _______ _______ _______ _____ _____    ______ ____
ROOT
ATOM      1  C   UNL     1       4.210   4.958  18.682  0.00  0.00    +0.000 C 
ATOM      2  O   UNL     1       3.754   4.110  17.940  0.00  0.00    +0.000 OA
ENDROOT
BRANCH   1   3
ATOM      3  C   UNL     1       3.613   6.307  18.963  0.00  0.00    +0.000 C 
ATOM      4  C   UNL     1       3.317   7.041  17.669  0.00  0.00    +0.000 C 
ATOM      5  C   UNL     1       2.508   8.195  18.178  0.00  0.00    +0.000 C 
ATOM      6  O   UNL     1       2.489   9.274  17.608  0.00  0.00    +0.000 OA
ATOM      7  N   UNL     1       1.901   7.788  19.385  0.00  0.00    +0.000 N 
ATOM      8  C   UNL     1       2.287   6.414  19.690  0.00  0.00    +0.000 C 
BRANCH   7   9
ATOM      9  C   UNL     1       1.174   8.663  20.239  0.00  0.00    +0.000 A 
ATOM     10  C   UNL     1       0.416   9.714  19.693  0.00  0.00    +0.000 A 
ATOM     11  C   UNL     1      -0.229  10.660  20.495  0.00  0.00    +0.000 A 
ATOM     12  C   UNL     1      -0.132  10.566  21.873  0.00  0.00    +0.000 A 
ATOM     13 CL   UNL     1      -0.889  11.750  22.863  0.00  0.00    +0.000 Cl
ATOM     14  C   UNL     1       0.582   9.518  22.448  0.00  0.00    +0.000 A 
ATOM     15  C   UNL     1       1.220   8.562  21.637  0.00  0.00    +0.000 A 
ENDBRANCH   7   9
ENDBRANCH   1   3
BRANCH   1  16
ATOM     16  O   UNL     1       5.306   4.833  19.503  0.00  0.00    +0.000 OA
BRANCH  16  17
ATOM     17  C   UNL     1       6.411   5.709  19.292  0.00  0.00    +0.000 C 
BRANCH  17  23
ATOM     18  C   UNL     1       6.479   3.456  12.197  0.00  0.00    +0.000 C 
ATOM     19  C   UNL     1       6.548   4.061  13.540  0.00  0.00    +0.000 A 
ATOM     20  C   UNL     1       6.004   3.777  14.772  0.00  0.00    +0.000 A 
ATOM     21  C   UNL     1       6.537   4.770  15.640  0.00  0.00    +0.000 A 
ATOM     22  N   UNL     1       6.279   4.851  17.001  0.00  0.00    +0.000 N 
ATOM     23  C   UNL     1       6.832   5.817  17.825  0.00  0.00    +0.000 C 
ATOM     24  O   UNL     1       7.555   6.746  17.475  0.00  0.00    +0.000 OA
ATOM     25  N   UNL     1       7.326   5.605  14.954  0.00  0.00    +0.000 NA
ATOM     26  O   UNL     1       7.332   5.162  13.651  0.00  0.00    +0.000 OA
ATOM     27  H   UNL     1       5.677   4.150  17.404  0.00  0.00    +0.000 HD
ENDBRANCH  17  23
ENDBRANCH  16  17
ENDBRANCH   1  16
TORSDOF 5
ENDMDL
MODEL 4
REMARK VINA RESULT:      -8.3      1.814      2.390
REMARK  Name = 
REMARK  6 active torsions:
REMARK  status: ('A' for Active; 'I' for Inactive)
REMARK    1  A    between atoms: C_1  and  C_2
REMARK    2  A    between atoms: C_6  and  C_8
REMARK    3  A    between atoms: C_8  and  O_9
REMARK    4  A    between atoms: O_9  and  C_10
REMARK    5  A    between atoms: C_10  and  C_12
REMARK    6  A    between atoms: N_16  and  C_17
REMARK                            x       y       z     vdW  Elec       q    Type
REMARK                         _______ _______ _______ _____ _____    ______ ____
ROOT
ATOM      1  C   UNL     1       2.826   5.259  18.481  0.00  0.00    +0.000 C 
ATOM      2  O   UNL     1       2.508   4.464  17.618  0.00  0.00    +0.000 OA
ENDROOT
BRANCH   1   3
ATOM      3  C   UNL     1       2.032   6.456  18.921  0.00  0.00    +0.000 C 
ATOM      4  C   UNL     1       2.112   6.628  20.425  0.00  0.00    +0.000 C 
ATOM      5  C   UNL     1       1.498   7.985  20.588  0.00  0.00    +0.000 C 
ATOM      6  O   UNL     1       0.903   8.310  21.603  0.00  0.00    +0.000 OA
ATOM      7  N   UNL     1       1.696   8.687  19.380  0.00  0.00    +0.000 N 
ATOM      8  C   UNL     1       2.411   7.840  18.431  0.00  0.00    +0.000 C 
BRANCH   7   9
ATOM      9  C   UNL     1       1.122   9.959  19.101  0.00  0.00    +0.000 A 
ATOM     10  C   UNL     1       1.944  11.042  18.744  0.00  0.00    +0.000 A 
ATOM     11  C   UNL     1       1.437  12.332  18.563  0.00  0.00    +0.000 A 
ATOM     12  C   UNL     1       0.081  12.563  18.731  0.00  0.00    +0.000 A 
ATOM     13 CL   UNL     1      -0.541  14.154  18.550  0.00  0.00    +0.000 Cl
ATOM     14  C   UNL     1      -0.767  11.505  19.051  0.00  0.00    +0.000 A 
ATOM     15  C   UNL     1      -0.253  10.206  19.220  0.00  0.00    +0.000 A 
ENDBRANCH   7   9
ENDBRANCH   1   3
BRANCH   1  16
ATOM     16  O   UNL     1       3.918   5.183  19.312  0.00  0.00    +0.000 OA
BRANCH  16  17
ATOM     17  C   UNL     1       4.949   4.253  18.988  0.00  0.00    +0.000 C 
BRANCH  17  23
ATOM     18  C   UNL     1       7.352   4.485  11.945  0.00  0.00    +0.000 C 
ATOM     19  C   UNL     1       6.991   4.587  13.371  0.00  0.00    +0.000 A 
ATOM     20  C   UNL     1       6.015   4.044  14.177  0.00  0.00    +0.000 A 
ATOM     21  C   UNL     1       6.292   4.555  15.475  0.00  0.00    +0.000 A 
ATOM     22  N   UNL     1       5.570   4.242  16.617  0.00  0.00    +0.000 N 
ATOM     23  C   UNL     1       5.879   4.738  17.873  0.00  0.00    +0.000 C 
ATOM     24  O   UNL     1       6.765   5.545  18.140  0.00  0.00    +0.000 OA
ATOM     25  N   UNL     1       7.351   5.371  15.431  0.00  0.00    +0.000 NA
ATOM     26  O   UNL     1       7.784   5.388  14.124  0.00  0.00    +0.000 OA
ATOM     27  H   UNL     1       4.799   3.600  16.521  0.00  0.00    +0.000 HD
ENDBRANCH  17  23
ENDBRANCH  16  17
ENDBRANCH   1  16
TORSDOF 5
ENDMDL
MODEL 5
REMARK VINA RESULT:      -8.2      4.224      8.420
REMARK  Name = 
REMARK  6 active torsions:
REMARK  status: ('A' for Active; 'I' for Inactive)
REMARK    1  A    between atoms: C_1  and  C_2
REMARK    2  A    between atoms: C_6  and  C_8
REMARK    3  A    between atoms: C_8  and  O_9
REMARK    4  A    between atoms: O_9  and  C_10
REMARK    5  A    between atoms: C_10  and  C_12
REMARK    6  A    between atoms: N_16  and  C_17
REMARK                            x       y       z     vdW  Elec       q    Type
REMARK                         _______ _______ _______ _____ _____    ______ ____
ROOT
ATOM      1  C   UNL     1       0.900   8.516  20.997  0.00  0.00    +0.000 C 
ATOM      2  O   UNL     1      -0.142   8.236  21.555  0.00  0.00    +0.000 OA
ENDROOT
BRANCH   1   3
ATOM      3  C   UNL     1       1.896   7.541  20.436  0.00  0.00    +0.000 C 
ATOM      4  C   UNL     1       1.526   6.120  20.814  0.00  0.00    +0.000 C 
ATOM      5  C   UNL     1       2.469   5.343  19.947  0.00  0.00    +0.000 C 
ATOM      6  O   UNL     1       2.883   4.240  20.266  0.00  0.00    +0.000 OA
ATOM      7  N   UNL     1       2.779   6.147  18.830  0.00  0.00    +0.000 N 
ATOM      8  C   UNL     1       2.081   7.424  18.935  0.00  0.00    +0.000 C 
BRANCH   7   9
ATOM      9  C   UNL     1       3.761   5.807  17.858  0.00  0.00    +0.000 A 
ATOM     10  C   UNL     1       4.609   6.798  17.334  0.00  0.00    +0.000 A 
ATOM     11  C   UNL     1       5.516   6.532  16.304  0.00  0.00    +0.000 A 
ATOM     12  C   UNL     1       5.597   5.252  15.780  0.00  0.00    +0.000 A 
ATOM     13 CL   UNL     1       6.681   4.929  14.487  0.00  0.00    +0.000 Cl
ATOM     14  C   UNL     1       4.796   4.238  16.300  0.00  0.00    +0.000 A 
ATOM     15  C   UNL     1       3.893   4.509  17.344  0.00  0.00    +0.000 A 
ENDBRANCH   7   9
ENDBRANCH   1   3
BRANCH   1  16
ATOM     16  O   UNL     1       1.346   9.772  20.663  0.00  0.00    +0.000 OA
BRANCH  16  17
ATOM     17  C   UNL     1       0.593  10.897  21.112  0.00  0.00    +0.000 C 
BRANCH  17  23
ATOM     18  C   UNL     1      -3.479  10.144  14.925  0.00  0.00    +0.000 C 
ATOM     19  C   UNL     1      -2.804  10.417  16.207  0.00  0.00    +0.000 A 
ATOM     20  C   UNL     1      -1.773   9.841  16.915  0.00  0.00    +0.000 A 
ATOM     21  C   UNL     1      -1.623  10.662  18.067  0.00  0.00    +0.000 A 
ATOM     22  N   UNL     1      -0.668  10.468  19.055  0.00  0.00    +0.000 N 
ATOM     23  C   UNL     1      -0.531  11.299  20.155  0.00  0.00    +0.000 C 
ATOM     24  O   UNL     1      -1.247  12.256  20.438  0.00  0.00    +0.000 OA
ATOM     25  N   UNL     1      -2.528  11.646  18.052  0.00  0.00    +0.000 NA
ATOM     26  O   UNL     1      -3.259  11.493  16.895  0.00  0.00    +0.000 OA
ATOM     27  H   UNL     1      -0.031   9.696  18.943  0.00  0.00    +0.000 HD
ENDBRANCH  17  23
ENDBRANCH  16  17
ENDBRANCH   1  16
TORSDOF 5
ENDMDL
MODEL 6
REMARK VINA RESULT:      -8.2      1.241      1.751
REMARK  Name = 
REMARK  6 active torsions:
REMARK  status: ('A' for Active; 'I' for Inactive)
REMARK    1  A    between atoms: C_1  and  C_2
REMARK    2  A    between atoms: C_6  and  C_8
REMARK    3  A    between atoms: C_8  and  O_9
REMARK    4  A    between atoms: O_9  and  C_10
REMARK    5  A    between atoms: C_10  and  C_12
REMARK    6  A    between atoms: N_16  and  C_17
REMARK                            x       y       z     vdW  Elec       q    Type
REMARK                         _______ _______ _______ _____ _____    ______ ____
ROOT
ATOM      1  C   UNL     1       2.938   5.568  19.869  0.00  0.00    +0.000 C 
ATOM      2  O   UNL     1       2.571   4.861  20.787  0.00  0.00    +0.000 OA
ENDROOT
BRANCH   1   3
ATOM      3  C   UNL     1       2.643   7.031  19.702  0.00  0.00    +0.000 C 
ATOM      4  C   UNL     1       2.368   7.359  18.247  0.00  0.00    +0.000 C 
ATOM      5  C   UNL     1       1.851   8.760  18.366  0.00  0.00    +0.000 C 
ATOM      6  O   UNL     1       1.984   9.579  17.471  0.00  0.00    +0.000 OA
ATOM      7  N   UNL     1       1.298   8.900  19.658  0.00  0.00    +0.000 N 
ATOM      8  C   UNL     1       1.440   7.646  20.390  0.00  0.00    +0.000 C 
BRANCH   7   9
ATOM      9  C   UNL     1       0.841  10.137  20.193  0.00  0.00    +0.000 A 
ATOM     10  C   UNL     1       1.310  11.351  19.663  0.00  0.00    +0.000 A 
ATOM     11  C   UNL     1       0.971  12.587  20.223  0.00  0.00    +0.000 A 
ATOM     12  C   UNL     1       0.140  12.629  21.331  0.00  0.00    +0.000 A 
ATOM     13 CL   UNL     1      -0.248  14.142  22.047  0.00  0.00    +0.000 Cl
ATOM     14  C   UNL     1      -0.370  11.446  21.860  0.00  0.00    +0.000 A 
ATOM     15  C   UNL     1      -0.035  10.206  21.285  0.00  0.00    +0.000 A 
ENDBRANCH   7   9
ENDBRANCH   1   3
BRANCH   1  16
ATOM     16  O   UNL     1       3.784   5.217  18.844  0.00  0.00    +0.000 OA
BRANCH  16  17
ATOM     17  C   UNL     1       5.177   5.099  19.130  0.00  0.00    +0.000 C 
BRANCH  17  23
ATOM     18  C   UNL     1       7.174   4.189  12.016  0.00  0.00    +0.000 C 
ATOM     19  C   UNL     1       6.905   4.510  13.429  0.00  0.00    +0.000 A 
ATOM     20  C   UNL     1       5.941   4.160  14.349  0.00  0.00    +0.000 A 
ATOM     21  C   UNL     1       6.330   4.818  15.548  0.00  0.00    +0.000 A 
ATOM     22  N   UNL     1       5.655   4.720  16.757  0.00  0.00    +0.000 N 
ATOM     23  C   UNL     1       6.071   5.354  17.915  0.00  0.00    +0.000 C 
ATOM     24  O   UNL     1       7.028   6.118  18.024  0.00  0.00    +0.000 OA
ATOM     25  N   UNL     1       7.440   5.534  15.341  0.00  0.00    +0.000 NA
ATOM     26  O   UNL     1       7.796   5.341  14.025  0.00  0.00    +0.000 OA
ATOM     27  H   UNL     1       4.836   4.133  16.788  0.00  0.00    +0.000 HD
ENDBRANCH  17  23
ENDBRANCH  16  17
ENDBRANCH   1  16
TORSDOF 5
ENDMDL
MODEL 7
REMARK VINA RESULT:      -8.2      1.107      1.579
REMARK  Name = 
REMARK  6 active torsions:
REMARK  status: ('A' for Active; 'I' for Inactive)
REMARK    1  A    between atoms: C_1  and  C_2
REMARK    2  A    between atoms: C_6  and  C_8
REMARK    3  A    between atoms: C_8  and  O_9
REMARK    4  A    between atoms: O_9  and  C_10
REMARK    5  A    between atoms: C_10  and  C_12
REMARK    6  A    between atoms: N_16  and  C_17
REMARK                            x       y       z     vdW  Elec       q    Type
REMARK                         _______ _______ _______ _____ _____    ______ ____
ROOT
ATOM      1  C   UNL     1       2.721   4.207  20.535  0.00  0.00    +0.000 C 
ATOM      2  O   UNL     1       2.476   3.531  21.514  0.00  0.00    +0.000 OA
ENDROOT
BRANCH   1   3
ATOM      3  C   UNL     1       2.553   5.696  20.420  0.00  0.00    +0.000 C 
ATOM      4  C   UNL     1       2.699   6.140  18.977  0.00  0.00    +0.000 C 
ATOM      5  C   UNL     1       2.237   7.563  19.072  0.00  0.00    +0.000 C 
ATOM      6  O   UNL     1       2.647   8.429  18.317  0.00  0.00    +0.000 OA
ATOM      7  N   UNL     1       1.363   7.652  20.177  0.00  0.00    +0.000 N 
ATOM      8  C   UNL     1       1.240   6.344  20.812  0.00  0.00    +0.000 C 
BRANCH   7   9
ATOM      9  C   UNL     1       0.838   8.878  20.673  0.00  0.00    +0.000 A 
ATOM     10  C   UNL     1       0.835  10.025  19.860  0.00  0.00    +0.000 A 
ATOM     11  C   UNL     1       0.427  11.274  20.338  0.00  0.00    +0.000 A 
ATOM     12  C   UNL     1       0.003  11.396  21.652  0.00  0.00    +0.000 A 
ATOM     13 CL   UNL     1      -0.461  12.936  22.256  0.00  0.00    +0.000 Cl
ATOM     14  C   UNL     1      -0.039  10.273  22.474  0.00  0.00    +0.000 A 
ATOM     15  C   UNL     1       0.362   9.017  21.985  0.00  0.00    +0.000 A 
ENDBRANCH   7   9
ENDBRANCH   1   3
BRANCH   1  16
ATOM     16  O   UNL     1       3.301   3.784  19.363  0.00  0.00    +0.000 OA
BRANCH  16  17
ATOM     17  C   UNL     1       4.627   3.261  19.417  0.00  0.00    +0.000 C 
BRANCH  17  23
ATOM     18  C   UNL     1       7.498   4.997  12.771  0.00  0.00    +0.000 C 
ATOM     19  C   UNL     1       7.035   4.795  14.155  0.00  0.00    +0.000 A 
ATOM     20  C   UNL     1       6.031   4.070  14.758  0.00  0.00    +0.000 A 
ATOM     21  C   UNL     1       6.194   4.314  16.150  0.00  0.00    +0.000 A 
ATOM     22  N   UNL     1       5.410   3.753  17.147  0.00  0.00    +0.000 N 
ATOM     23  C   UNL     1       5.608   3.991  18.497  0.00  0.00    +0.000 C 
ATOM     24  O   UNL     1       6.436   4.755  18.988  0.00  0.00    +0.000 OA
ATOM     25  N   UNL     1       7.215   5.154  16.353  0.00  0.00    +0.000 NA
ATOM     26  O   UNL     1       7.736   5.450  15.114  0.00  0.00    +0.000 OA
ATOM     27  H   UNL     1       4.678   3.120  16.865  0.00  0.00    +0.000 HD
ENDBRANCH  17  23
ENDBRANCH  16  17
ENDBRANCH   1  16
TORSDOF 5
ENDMDL
MODEL 8
REMARK VINA RESULT:      -8.1      4.561      8.692
REMARK  Name = 
REMARK  6 active torsions:
REMARK  status: ('A' for Active; 'I' for Inactive)
REMARK    1  A    between atoms: C_1  and  C_2
REMARK    2  A    between atoms: C_6  and  C_8
REMARK    3  A    between atoms: C_8  and  O_9
REMARK    4  A    between atoms: O_9  and  C_10
REMARK    5  A    between atoms: C_10  and  C_12
REMARK    6  A    between atoms: N_16  and  C_17
REMARK                            x       y       z     vdW  Elec       q    Type
REMARK                         _______ _______ _______ _____ _____    ______ ____
ROOT
ATOM      1  C   UNL     1       0.445   9.900  21.225  0.00  0.00    +0.000 C 
ATOM      2  O   UNL     1       0.283   9.647  22.402  0.00  0.00    +0.000 OA
ENDROOT
BRANCH   1   3
ATOM      3  C   UNL     1       0.893   8.937  20.163  0.00  0.00    +0.000 C 
ATOM      4  C   UNL     1       1.605   9.669  19.042  0.00  0.00    +0.000 C 
ATOM      5  C   UNL     1       2.176   8.517  18.271  0.00  0.00    +0.000 C 
ATOM      6  O   UNL     1       2.376   8.578  17.069  0.00  0.00    +0.000 OA
ATOM      7  N   UNL     1       2.339   7.443  19.172  0.00  0.00    +0.000 N 
ATOM      8  C   UNL     1       1.890   7.844  20.501  0.00  0.00    +0.000 C 
BRANCH   7   9
ATOM      9  C   UNL     1       2.719   6.130  18.777  0.00  0.00    +0.000 A 
ATOM     10  C   UNL     1       1.776   5.268  18.191  0.00  0.00    +0.000 A 
ATOM     11  C   UNL     1       2.075   3.938  17.883  0.00  0.00    +0.000 A 
ATOM     12  C   UNL     1       3.341   3.443  18.152  0.00  0.00    +0.000 A 
ATOM     13 CL   UNL     1       3.702   1.798  17.813  0.00  0.00    +0.000 Cl
ATOM     14  C   UNL     1       4.310   4.280  18.700  0.00  0.00    +0.000 A 
ATOM     15  C   UNL     1       4.007   5.621  18.998  0.00  0.00    +0.000 A 
ENDBRANCH   7   9
ENDBRANCH   1   3
BRANCH   1  16
ATOM     16  O   UNL     1       0.155  11.083  20.587  0.00  0.00    +0.000 OA
BRANCH  16  17
ATOM     17  C   UNL     1      -1.045  11.765  20.943  0.00  0.00    +0.000 C 
BRANCH  17  23
ATOM     18  C   UNL     1      -3.644  10.019  14.188  0.00  0.00    +0.000 C 
ATOM     19  C   UNL     1      -3.297  10.448  15.555  0.00  0.00    +0.000 A 
ATOM     20  C   UNL     1      -2.287  10.163  16.446  0.00  0.00    +0.000 A 
ATOM     21  C   UNL     1      -2.561  10.979  17.578  0.00  0.00    +0.000 A 
ATOM     22  N   UNL     1      -1.774  11.038  18.719  0.00  0.00    +0.000 N 
ATOM     23  C   UNL     1      -2.055  11.861  19.797  0.00  0.00    +0.000 C 
ATOM     24  O   UNL     1      -3.039  12.585  19.923  0.00  0.00    +0.000 OA
ATOM     25  N   UNL     1      -3.681  11.681  17.377  0.00  0.00    +0.000 NA
ATOM     26  O   UNL     1      -4.135  11.352  16.120  0.00  0.00    +0.000 OA
ATOM     27  H   UNL     1      -0.943  10.468  18.743  0.00  0.00    +0.000 HD
ENDBRANCH  17  23
ENDBRANCH  16  17
ENDBRANCH   1  16
TORSDOF 5
ENDMDL
MODEL 9
REMARK VINA RESULT:      -8.1      3.503      4.882
REMARK  Name = 
REMARK  6 active torsions:
REMARK  status: ('A' for Active; 'I' for Inactive)
REMARK    1  A    between atoms: C_1  and  C_2
REMARK    2  A    between atoms: C_6  and  C_8
REMARK    3  A    between atoms: C_8  and  O_9
REMARK    4  A    between atoms: O_9  and  C_10
REMARK    5  A    between atoms: C_10  and  C_12
REMARK    6  A    between atoms: N_16  and  C_17
REMARK                            x       y       z     vdW  Elec       q    Type
REMARK                         _______ _______ _______ _____ _____    ______ ____
ROOT
ATOM      1  C   UNL     1       6.075   4.539  16.420  0.00  0.00    +0.000 C 
ATOM      2  O   UNL     1       6.205   3.502  15.801  0.00  0.00    +0.000 OA
ENDROOT
BRANCH   1   3
ATOM      3  C   UNL     1       4.776   5.171  16.833  0.00  0.00    +0.000 C 
ATOM      4  C   UNL     1       3.721   4.110  17.081  0.00  0.00    +0.000 C 
ATOM      5  C   UNL     1       2.641   4.930  17.720  0.00  0.00    +0.000 C 
ATOM      6  O   UNL     1       1.461   4.635  17.625  0.00  0.00    +0.000 OA
ATOM      7  N   UNL     1       3.259   6.044  18.329  0.00  0.00    +0.000 N 
ATOM      8  C   UNL     1       4.700   5.988  18.108  0.00  0.00    +0.000 C 
BRANCH   7   9
ATOM      9  C   UNL     1       2.541   7.127  18.909  0.00  0.00    +0.000 A 
ATOM     10  C   UNL     1       2.096   7.046  20.240  0.00  0.00    +0.000 A 
ATOM     11  C   UNL     1       1.299   8.038  20.819  0.00  0.00    +0.000 A 
ATOM     12  C   UNL     1       0.936   9.146  20.069  0.00  0.00    +0.000 A 
ATOM     13 CL   UNL     1      -0.076  10.349  20.762  0.00  0.00    +0.000 Cl
ATOM     14  C   UNL     1       1.389   9.274  18.758  0.00  0.00    +0.000 A 
ATOM     15  C   UNL     1       2.201   8.278  18.185  0.00  0.00    +0.000 A 
ENDBRANCH   7   9
ENDBRANCH   1   3
BRANCH   1  16
ATOM     16  O   UNL     1       7.077   5.305  16.968  0.00  0.00    +0.000 OA
BRANCH  16  17
ATOM     17  C   UNL     1       7.091   6.702  16.685  0.00  0.00    +0.000 C 
BRANCH  17  23
ATOM     18  C   UNL     1      10.070  12.989  19.335  0.00  0.00    +0.000 C 
ATOM     19  C   UNL     1       9.503  11.674  18.984  0.00  0.00    +0.000 A 
ATOM     20  C   UNL     1       8.805  11.160  17.914  0.00  0.00    +0.000 A 
ATOM     21  C   UNL     1       8.611   9.788  18.234  0.00  0.00    +0.000 A 
ATOM     22  N   UNL     1       7.974   8.868  17.414  0.00  0.00    +0.000 N 
ATOM     23  C   UNL     1       7.820   7.532  17.743  0.00  0.00    +0.000 C 
ATOM     24  O   UNL     1       8.158   6.998  18.797  0.00  0.00    +0.000 OA
ATOM     25  N   UNL     1       9.139   9.517  19.433  0.00  0.00    +0.000 NA
ATOM     26  O   UNL     1       9.693  10.688  19.896  0.00  0.00    +0.000 OA
ATOM     27  H   UNL     1       7.631   9.195  16.524  0.00  0.00    +0.000 HD
ENDBRANCH  17  23
ENDBRANCH  16  17
ENDBRANCH   1  16
TORSDOF 5
ENDMDL
