MODEL 1
REMARK VINA RESULT:      -8.3      0.000      0.000
REMARK  Name = 
REMARK  6 active torsions:
REMARK  status: ('A' for Active; 'I' for Inactive)
REMARK    1  A    between atoms: C_10  and  O_11
REMARK    2  A    between atoms: C_12  and  C_13
REMARK    3  A    between atoms: C_13  and  C_14
REMARK    4  A    between atoms: C_13  and  C_23
REMARK    5  A    between atoms: C_17  and  N_18
REMARK    6  A    between atoms: C_24  and  O_25
REMARK                            x       y       z     vdW  Elec       q    Type
REMARK                         _______ _______ _______ _____ _____    ______ ____
ROOT
ATOM      1  C   UNL     1      -0.873  12.684  20.782  0.00  0.00    +0.000 C 
ENDROOT
BRANCH   1  12
ATOM      2  O   UNL     1      -0.605  10.645  22.706  0.00  0.00    +0.000 OA
ATOM      3  C   UNL     1      -0.078  10.403  21.624  0.00  0.00    +0.000 A 
ATOM      4  O   UNL     1       0.649   9.236  21.436  0.00  0.00    +0.000 OA
ATOM      5  C   UNL     1       1.226   8.907  20.196  0.00  0.00    +0.000 A 
ATOM      6  C   UNL     1       1.896   7.683  20.121  0.00  0.00    +0.000 A 
ATOM      7  C   UNL     1       2.463   7.288  18.914  0.00  0.00    +0.000 A 
ATOM      8  C   UNL     1       2.360   8.117  17.802  0.00  0.00    +0.000 A 
ATOM      9  C   UNL     1       1.692   9.343  17.894  0.00  0.00    +0.000 A 
ATOM     10  C   UNL     1       1.111   9.760  19.102  0.00  0.00    +0.000 A 
ATOM     11  C   UNL     1       0.387  11.020  19.296  0.00  0.00    +0.000 A 
ATOM     12  C   UNL     1      -0.146  11.357  20.486  0.00  0.00    +0.000 A 
BRANCH  11  13
ATOM     13  O   UNL     1       0.253  11.868  18.212  0.00  0.00    +0.000 OA
ATOM     14  H   UNL     1       0.409  12.786  18.478  0.00  0.00    +0.000 HD
ENDBRANCH  11  13
ENDBRANCH   1  12
BRANCH   1  15
ATOM     15  C   UNL     1      -2.393  12.671  20.501  0.00  0.00    +0.000 A 
ATOM     16  C   UNL     1      -2.996  12.359  19.331  0.00  0.00    +0.000 A 
ATOM     17  C   UNL     1      -4.434  12.092  19.268  0.00  0.00    +0.000 A 
ATOM     18  C   UNL     1      -5.062  11.538  18.145  0.00  0.00    +0.000 A 
ATOM     19  C   UNL     1      -6.429  11.237  18.167  0.00  0.00    +0.000 A 
ATOM     20  C   UNL     1      -7.182  11.490  19.311  0.00  0.00    +0.000 A 
ATOM     21  C   UNL     1      -6.569  12.035  20.436  0.00  0.00    +0.000 A 
ATOM     22  C   UNL     1      -5.204  12.315  20.399  0.00  0.00    +0.000 A 
ATOM     23  O   UNL     1      -4.627  12.838  21.560  0.00  0.00    +0.000 OA
ATOM     24  C   UNL     1      -3.270  13.111  21.630  0.00  0.00    +0.000 A 
ATOM     25  O   UNL     1      -2.831  13.724  22.598  0.00  0.00    +0.000 OA
BRANCH  16  26
ATOM     26  O   UNL     1      -2.350  12.182  18.125  0.00  0.00    +0.000 OA
ATOM     27  H   UNL     1      -2.686  11.389  17.676  0.00  0.00    +0.000 HD
ENDBRANCH  16  26
ENDBRANCH   1  15
BRANCH   1  28
ATOM     28  C   UNL     1      -0.060  13.809  20.084  0.00  0.00    +0.000 A 
ATOM     29  C   UNL     1       1.336  13.930  20.265  0.00  0.00    +0.000 A 
ATOM     30  C   UNL     1       2.053  15.013  19.762  0.00  0.00    +0.000 A 
ATOM     31  C   UNL     1       1.370  16.011  19.064  0.00  0.00    +0.000 A 
ATOM     32  C   UNL     1      -0.005  15.907  18.836  0.00  0.00    +0.000 A 
ATOM     33  C   UNL     1      -0.717  14.811  19.348  0.00  0.00    +0.000 A 
BRANCH  31  34
ATOM     34  N   UNL     1       2.119  17.186  18.597  0.00  0.00    +0.000 N 
ATOM     35  O   UNL     1       1.847  18.288  19.091  0.00  0.00    +0.000 OA
ATOM     36  O   UNL     1       2.971  17.003  17.719  0.00  0.00    +0.000 OA
ENDBRANCH  31  34
ENDBRANCH   1  28
TORSDOF 6
ENDMDL
MODEL 2
REMARK VINA RESULT:      -8.0      0.495      1.103
REMARK  Name = 
REMARK  6 active torsions:
REMARK  status: ('A' for Active; 'I' for Inactive)
REMARK    1  A    between atoms: C_10  and  O_11
REMARK    2  A    between atoms: C_12  and  C_13
REMARK    3  A    between atoms: C_13  and  C_14
REMARK    4  A    between atoms: C_13  and  C_23
REMARK    5  A    between atoms: C_17  and  N_18
REMARK    6  A    between atoms: C_24  and  O_25
REMARK                            x       y       z     vdW  Elec       q    Type
REMARK                         _______ _______ _______ _____ _____    ______ ____
ROOT
ATOM      1  C   UNL     1      -0.731  12.457  20.975  0.00  0.00    +0.000 C 
ENDROOT
BRANCH   1  12
ATOM      2  O   UNL     1      -0.486  10.433  22.917  0.00  0.00    +0.000 OA
ATOM      3  C   UNL     1       0.024  10.168  21.832  0.00  0.00    +0.000 A 
ATOM      4  O   UNL     1       0.725   8.984  21.649  0.00  0.00    +0.000 OA
ATOM      5  C   UNL     1       1.281   8.630  20.407  0.00  0.00    +0.000 A 
ATOM      6  C   UNL     1       1.925   7.392  20.337  0.00  0.00    +0.000 A 
ATOM      7  C   UNL     1       2.470   6.973  19.129  0.00  0.00    +0.000 A 
ATOM      8  C   UNL     1       2.372   7.793  18.008  0.00  0.00    +0.000 A 
ATOM      9  C   UNL     1       1.731   9.033  18.095  0.00  0.00    +0.000 A 
ATOM     10  C   UNL     1       1.172   9.474  19.305  0.00  0.00    +0.000 A 
ATOM     11  C   UNL     1       0.477  10.752  19.493  0.00  0.00    +0.000 A 
ATOM     12  C   UNL     1      -0.036  11.112  20.685  0.00  0.00    +0.000 A 
BRANCH  11  13
ATOM     13  O   UNL     1       0.350  11.591  18.402  0.00  0.00    +0.000 OA
ATOM     14  H   UNL     1      -0.041  11.116  17.653  0.00  0.00    +0.000 HD
ENDBRANCH  11  13
ENDBRANCH   1  12
BRANCH   1  15
ATOM     15  C   UNL     1      -2.235  12.503  20.617  0.00  0.00    +0.000 A 
ATOM     16  C   UNL     1      -2.780  12.315  19.394  0.00  0.00    +0.000 A 
ATOM     17  C   UNL     1      -4.217  12.086  19.232  0.00  0.00    +0.000 A 
ATOM     18  C   UNL     1      -4.795  11.654  18.031  0.00  0.00    +0.000 A 
ATOM     19  C   UNL     1      -6.165  11.382  17.955  0.00  0.00    +0.000 A 
ATOM     20  C   UNL     1      -6.973  11.543  19.078  0.00  0.00    +0.000 A 
ATOM     21  C   UNL     1      -6.412  11.967  20.279  0.00  0.00    +0.000 A 
ATOM     22  C   UNL     1      -5.042  12.219  20.339  0.00  0.00    +0.000 A 
ATOM     23  O   UNL     1      -4.518  12.619  21.571  0.00  0.00    +0.000 OA
ATOM     24  C   UNL     1      -3.163  12.854  21.736  0.00  0.00    +0.000 A 
ATOM     25  O   UNL     1      -2.766  13.364  22.779  0.00  0.00    +0.000 OA
BRANCH  16  26
ATOM     26  O   UNL     1      -2.075  12.238  18.210  0.00  0.00    +0.000 OA
ATOM     27  H   UNL     1      -2.327  12.967  17.620  0.00  0.00    +0.000 HD
ENDBRANCH  16  26
ENDBRANCH   1  15
BRANCH   1  28
ATOM     28  C   UNL     1       0.154  13.567  20.346  0.00  0.00    +0.000 A 
ATOM     29  C   UNL     1      -0.402  14.582  19.536  0.00  0.00    +0.000 A 
ATOM     30  C   UNL     1       0.394  15.498  18.852  0.00  0.00    +0.000 A 
ATOM     31  C   UNL     1       1.782  15.404  18.965  0.00  0.00    +0.000 A 
ATOM     32  C   UNL     1       2.366  14.435  19.784  0.00  0.00    +0.000 A 
ATOM     33  C   UNL     1       1.554  13.518  20.469  0.00  0.00    +0.000 A 
BRANCH  31  34
ATOM     34  N   UNL     1       2.619  16.328  18.184  0.00  0.00    +0.000 N 
ATOM     35  O   UNL     1       3.233  15.878  17.208  0.00  0.00    +0.000 OA
ATOM     36  O   UNL     1       2.671  17.504  18.565  0.00  0.00    +0.000 OA
ENDBRANCH  31  34
ENDBRANCH   1  28
TORSDOF 6
ENDMDL
MODEL 3
REMARK VINA RESULT:      -7.8      3.222      7.191
REMARK  Name = 
REMARK  6 active torsions:
REMARK  status: ('A' for Active; 'I' for Inactive)
REMARK    1  A    between atoms: C_10  and  O_11
REMARK    2  A    between atoms: C_12  and  C_13
REMARK    3  A    between atoms: C_13  and  C_14
REMARK    4  A    between atoms: C_13  and  C_23
REMARK    5  A    between atoms: C_17  and  N_18
REMARK    6  A    between atoms: C_24  and  O_25
REMARK                            x       y       z     vdW  Elec       q    Type
REMARK                         _______ _______ _______ _____ _____    ______ ____
ROOT
ATOM      1  C   UNL     1       0.254  10.246  19.741  0.00  0.00    +0.000 C 
ENDROOT
BRANCH   1  12
ATOM      2  O   UNL     1       0.464  11.570  22.217  0.00  0.00    +0.000 OA
ATOM      3  C   UNL     1       1.067  12.109  21.293  0.00  0.00    +0.000 A 
ATOM      4  O   UNL     1       1.721  13.318  21.485  0.00  0.00    +0.000 OA
ATOM      5  C   UNL     1       2.459  13.939  20.461  0.00  0.00    +0.000 A 
ATOM      6  C   UNL     1       3.110  15.130  20.790  0.00  0.00    +0.000 A 
ATOM      7  C   UNL     1       3.879  15.776  19.829  0.00  0.00    +0.000 A 
ATOM      8  C   UNL     1       3.985  15.231  18.553  0.00  0.00    +0.000 A 
ATOM      9  C   UNL     1       3.322  14.041  18.236  0.00  0.00    +0.000 A 
ATOM     10  C   UNL     1       2.542  13.372  19.193  0.00  0.00    +0.000 A 
ATOM     11  C   UNL     1       1.817  12.119  18.958  0.00  0.00    +0.000 A 
ATOM     12  C   UNL     1       1.086  11.531  19.924  0.00  0.00    +0.000 A 
BRANCH  11  13
ATOM     13  O   UNL     1       1.906  11.540  17.706  0.00  0.00    +0.000 OA
ATOM     14  H   UNL     1       2.803  11.632  17.353  0.00  0.00    +0.000 HD
ENDBRANCH  11  13
ENDBRANCH   1  12
BRANCH   1  15
ATOM     15  C   UNL     1       1.083   8.962  19.500  0.00  0.00    +0.000 A 
ATOM     16  C   UNL     1       1.793   8.656  18.391  0.00  0.00    +0.000 A 
ATOM     17  C   UNL     1       2.769   7.564  18.396  0.00  0.00    +0.000 A 
ATOM     18  C   UNL     1       3.692   7.357  17.362  0.00  0.00    +0.000 A 
ATOM     19  C   UNL     1       4.651   6.342  17.453  0.00  0.00    +0.000 A 
ATOM     20  C   UNL     1       4.694   5.520  18.577  0.00  0.00    +0.000 A 
ATOM     21  C   UNL     1       3.786   5.718  19.613  0.00  0.00    +0.000 A 
ATOM     22  C   UNL     1       2.848   6.744  19.510  0.00  0.00    +0.000 A 
ATOM     23  O   UNL     1       1.973   6.921  20.586  0.00  0.00    +0.000 OA
ATOM     24  C   UNL     1       1.033   7.939  20.590  0.00  0.00    +0.000 A 
ATOM     25  O   UNL     1       0.175   7.959  21.467  0.00  0.00    +0.000 OA
BRANCH  16  26
ATOM     26  O   UNL     1       1.748   9.348  17.199  0.00  0.00    +0.000 OA
ATOM     27  H   UNL     1       2.513   9.118  16.647  0.00  0.00    +0.000 HD
ENDBRANCH  16  26
ENDBRANCH   1  15
BRANCH   1  28
ATOM     28  C   UNL     1      -0.836  10.562  18.681  0.00  0.00    +0.000 A 
ATOM     29  C   UNL     1      -1.699  11.672  18.819  0.00  0.00    +0.000 A 
ATOM     30  C   UNL     1      -2.769  11.886  17.954  0.00  0.00    +0.000 A 
ATOM     31  C   UNL     1      -3.000  10.972  16.925  0.00  0.00    +0.000 A 
ATOM     32  C   UNL     1      -2.147   9.881  16.737  0.00  0.00    +0.000 A 
ATOM     33  C   UNL     1      -1.072   9.676  17.614  0.00  0.00    +0.000 A 
BRANCH  31  34
ATOM     34  N   UNL     1      -4.173  11.164  16.059  0.00  0.00    +0.000 N 
ATOM     35  O   UNL     1      -5.095  11.879  16.474  0.00  0.00    +0.000 OA
ATOM     36  O   UNL     1      -4.174  10.581  14.969  0.00  0.00    +0.000 OA
ENDBRANCH  31  34
ENDBRANCH   1  28
TORSDOF 6
ENDMDL
MODEL 4
REMARK VINA RESULT:      -7.6      2.274      3.769
REMARK  Name = 
REMARK  6 active torsions:
REMARK  status: ('A' for Active; 'I' for Inactive)
REMARK    1  A    between atoms: C_10  and  O_11
REMARK    2  A    between atoms: C_12  and  C_13
REMARK    3  A    between atoms: C_13  and  C_14
REMARK    4  A    between atoms: C_13  and  C_23
REMARK    5  A    between atoms: C_17  and  N_18
REMARK    6  A    between atoms: C_24  and  O_25
REMARK                            x       y       z     vdW  Elec       q    Type
REMARK                         _______ _______ _______ _____ _____    ______ ____
ROOT
ATOM      1  C   UNL     1      -1.163  12.846  21.106  0.00  0.00    +0.000 C 
ENDROOT
BRANCH   1  12
ATOM      2  O   UNL     1       0.511  10.764  20.216  0.00  0.00    +0.000 OA
ATOM      3  C   UNL     1      -0.469  10.974  19.507  0.00  0.00    +0.000 A 
ATOM      4  O   UNL     1      -0.654  10.267  18.327  0.00  0.00    +0.000 OA
ATOM      5  C   UNL     1      -1.789  10.450  17.516  0.00  0.00    +0.000 A 
ATOM      6  C   UNL     1      -1.882   9.648  16.376  0.00  0.00    +0.000 A 
ATOM      7  C   UNL     1      -2.994   9.762  15.550  0.00  0.00    +0.000 A 
ATOM      8  C   UNL     1      -3.995  10.676  15.866  0.00  0.00    +0.000 A 
ATOM      9  C   UNL     1      -3.884  11.478  17.007  0.00  0.00    +0.000 A 
ATOM     10  C   UNL     1      -2.771  11.377  17.856  0.00  0.00    +0.000 A 
ATOM     11  C   UNL     1      -2.569  12.167  19.075  0.00  0.00    +0.000 A 
ATOM     12  C   UNL     1      -1.472  12.018  19.843  0.00  0.00    +0.000 A 
BRANCH  11  13
ATOM     13  O   UNL     1      -3.545  13.078  19.429  0.00  0.00    +0.000 OA
ATOM     14  H   UNL     1      -4.426  12.714  19.260  0.00  0.00    +0.000 HD
ENDBRANCH  11  13
ENDBRANCH   1  12
BRANCH   1  15
ATOM     15  C   UNL     1      -2.364  13.056  22.058  0.00  0.00    +0.000 A 
ATOM     16  C   UNL     1      -3.195  14.122  22.086  0.00  0.00    +0.000 A 
ATOM     17  C   UNL     1      -4.462  14.074  22.819  0.00  0.00    +0.000 A 
ATOM     18  C   UNL     1      -5.460  15.050  22.689  0.00  0.00    +0.000 A 
ATOM     19  C   UNL     1      -6.681  14.915  23.358  0.00  0.00    +0.000 A 
ATOM     20  C   UNL     1      -6.916  13.806  24.169  0.00  0.00    +0.000 A 
ATOM     21  C   UNL     1      -5.935  12.828  24.303  0.00  0.00    +0.000 A 
ATOM     22  C   UNL     1      -4.730  12.973  23.616  0.00  0.00    +0.000 A 
ATOM     23  O   UNL     1      -3.785  11.954  23.761  0.00  0.00    +0.000 OA
ATOM     24  C   UNL     1      -2.575  11.991  23.087  0.00  0.00    +0.000 A 
ATOM     25  O   UNL     1      -1.706  11.172  23.369  0.00  0.00    +0.000 OA
BRANCH  16  26
ATOM     26  O   UNL     1      -3.002  15.301  21.396  0.00  0.00    +0.000 OA
ATOM     27  H   UNL     1      -3.850  15.637  21.062  0.00  0.00    +0.000 HD
ENDBRANCH  16  26
ENDBRANCH   1  15
BRANCH   1  28
ATOM     28  C   UNL     1      -0.434  14.134  20.633  0.00  0.00    +0.000 A 
ATOM     29  C   UNL     1      -0.468  14.546  19.282  0.00  0.00    +0.000 A 
ATOM     30  C   UNL     1       0.295  15.615  18.819  0.00  0.00    +0.000 A 
ATOM     31  C   UNL     1       1.122  16.295  19.715  0.00  0.00    +0.000 A 
ATOM     32  C   UNL     1       1.154  15.937  21.065  0.00  0.00    +0.000 A 
ATOM     33  C   UNL     1       0.381  14.858  21.521  0.00  0.00    +0.000 A 
BRANCH  31  34
ATOM     34  N   UNL     1       1.978  17.377  19.206  0.00  0.00    +0.000 N 
ATOM     35  O   UNL     1       2.367  18.239  20.004  0.00  0.00    +0.000 OA
ATOM     36  O   UNL     1       2.244  17.368  17.998  0.00  0.00    +0.000 OA
ENDBRANCH  31  34
ENDBRANCH   1  28
TORSDOF 6
ENDMDL
MODEL 5
REMARK VINA RESULT:      -7.5      2.692      6.925
REMARK  Name = 
REMARK  6 active torsions:
REMARK  status: ('A' for Active; 'I' for Inactive)
REMARK    1  A    between atoms: C_10  and  O_11
REMARK    2  A    between atoms: C_12  and  C_13
REMARK    3  A    between atoms: C_13  and  C_14
REMARK    4  A    between atoms: C_13  and  C_23
REMARK    5  A    between atoms: C_17  and  N_18
REMARK    6  A    between atoms: C_24  and  O_25
REMARK                            x       y       z     vdW  Elec       q    Type
REMARK                         _______ _______ _______ _____ _____    ______ ____
ROOT
ATOM      1  C   UNL     1      -0.126  12.950  21.841  0.00  0.00    +0.000 C 
ENDROOT
BRANCH   1  12
ATOM      2  O   UNL     1       2.417  14.128  22.116  0.00  0.00    +0.000 OA
ATOM      3  C   UNL     1       1.685  14.672  21.294  0.00  0.00    +0.000 A 
ATOM      4  O   UNL     1       2.094  15.822  20.633  0.00  0.00    +0.000 OA
ATOM      5  C   UNL     1       1.300  16.442  19.652  0.00  0.00    +0.000 A 
ATOM      6  C   UNL     1       1.841  17.568  19.027  0.00  0.00    +0.000 A 
ATOM      7  C   UNL     1       1.115  18.209  18.028  0.00  0.00    +0.000 A 
ATOM      8  C   UNL     1      -0.139  17.724  17.669  0.00  0.00    +0.000 A 
ATOM      9  C   UNL     1      -0.670  16.599  18.310  0.00  0.00    +0.000 A 
ATOM     10  C   UNL     1       0.046  15.936  19.319  0.00  0.00    +0.000 A 
ATOM     11  C   UNL     1      -0.423  14.750  20.041  0.00  0.00    +0.000 A 
ATOM     12  C   UNL     1       0.319  14.165  21.002  0.00  0.00    +0.000 A 
BRANCH  11  13
ATOM     13  O   UNL     1      -1.659  14.230  19.707  0.00  0.00    +0.000 OA
ATOM     14  H   UNL     1      -1.600  13.711  18.892  0.00  0.00    +0.000 HD
ENDBRANCH  11  13
ENDBRANCH   1  12
BRANCH   1  15
ATOM     15  C   UNL     1       0.202  11.573  21.218  0.00  0.00    +0.000 A 
ATOM     16  C   UNL     1       0.358  11.297  19.903  0.00  0.00    +0.000 A 
ATOM     17  C   UNL     1       0.955  10.036  19.460  0.00  0.00    +0.000 A 
ATOM     18  C   UNL     1       1.355   9.800  18.138  0.00  0.00    +0.000 A 
ATOM     19  C   UNL     1       1.988   8.603  17.786  0.00  0.00    +0.000 A 
ATOM     20  C   UNL     1       2.223   7.626  18.752  0.00  0.00    +0.000 A 
ATOM     21  C   UNL     1       1.835   7.850  20.070  0.00  0.00    +0.000 A 
ATOM     22  C   UNL     1       1.219   9.056  20.404  0.00  0.00    +0.000 A 
ATOM     23  O   UNL     1       0.870   9.246  21.743  0.00  0.00    +0.000 OA
ATOM     24  C   UNL     1       0.289  10.427  22.176  0.00  0.00    +0.000 A 
ATOM     25  O   UNL     1      -0.157  10.494  23.317  0.00  0.00    +0.000 OA
BRANCH  16  26
ATOM     26  O   UNL     1       0.063  12.160  18.868  0.00  0.00    +0.000 OA
ATOM     27  H   UNL     1       0.489  11.860  18.049  0.00  0.00    +0.000 HD
ENDBRANCH  16  26
ENDBRANCH   1  15
BRANCH   1  28
ATOM     28  C   UNL     1      -1.611  13.188  22.226  0.00  0.00    +0.000 A 
ATOM     29  C   UNL     1      -1.972  14.098  23.245  0.00  0.00    +0.000 A 
ATOM     30  C   UNL     1      -3.284  14.216  23.697  0.00  0.00    +0.000 A 
ATOM     31  C   UNL     1      -4.270  13.407  23.130  0.00  0.00    +0.000 A 
ATOM     32  C   UNL     1      -3.957  12.521  22.096  0.00  0.00    +0.000 A 
ATOM     33  C   UNL     1      -2.631  12.411  21.649  0.00  0.00    +0.000 A 
BRANCH  31  34
ATOM     34  N   UNL     1      -5.639  13.486  23.660  0.00  0.00    +0.000 N 
ATOM     35  O   UNL     1      -6.130  14.607  23.848  0.00  0.00    +0.000 OA
ATOM     36  O   UNL     1      -6.214  12.419  23.904  0.00  0.00    +0.000 OA
ENDBRANCH  31  34
ENDBRANCH   1  28
TORSDOF 6
ENDMDL
MODEL 6
REMARK VINA RESULT:      -7.1      2.604      6.842
REMARK  Name = 
REMARK  6 active torsions:
REMARK  status: ('A' for Active; 'I' for Inactive)
REMARK    1  A    between atoms: C_10  and  O_11
REMARK    2  A    between atoms: C_12  and  C_13
REMARK    3  A    between atoms: C_13  and  C_14
REMARK    4  A    between atoms: C_13  and  C_23
REMARK    5  A    between atoms: C_17  and  N_18
REMARK    6  A    between atoms: C_24  and  O_25
REMARK                            x       y       z     vdW  Elec       q    Type
REMARK                         _______ _______ _______ _____ _____    ______ ____
ROOT
ATOM      1  C   UNL     1      -0.063  12.915  21.851  0.00  0.00    +0.000 C 
ENDROOT
BRANCH   1  12
ATOM      2  O   UNL     1       2.461  14.130  22.137  0.00  0.00    +0.000 OA
ATOM      3  C   UNL     1       1.727  14.660  21.308  0.00  0.00    +0.000 A 
ATOM      4  O   UNL     1       2.123  15.814  20.646  0.00  0.00    +0.000 OA
ATOM      5  C   UNL     1       1.325  16.419  19.659  0.00  0.00    +0.000 A 
ATOM      6  C   UNL     1       1.854  17.551  19.032  0.00  0.00    +0.000 A 
ATOM      7  C   UNL     1       1.125  18.178  18.027  0.00  0.00    +0.000 A 
ATOM      8  C   UNL     1      -0.120  17.674  17.664  0.00  0.00    +0.000 A 
ATOM      9  C   UNL     1      -0.639  16.544  18.305  0.00  0.00    +0.000 A 
ATOM     10  C   UNL     1       0.081  15.895  19.320  0.00  0.00    +0.000 A 
ATOM     11  C   UNL     1      -0.376  14.704  20.045  0.00  0.00    +0.000 A 
ATOM     12  C   UNL     1       0.369  14.133  21.011  0.00  0.00    +0.000 A 
BRANCH  11  13
ATOM     13  O   UNL     1      -1.603  14.167  19.706  0.00  0.00    +0.000 OA
ATOM     14  H   UNL     1      -1.730  14.190  18.746  0.00  0.00    +0.000 HD
ENDBRANCH  11  13
ENDBRANCH   1  12
BRANCH   1  15
ATOM     15  C   UNL     1       0.250  11.540  21.216  0.00  0.00    +0.000 A 
ATOM     16  C   UNL     1       0.386  11.272  19.898  0.00  0.00    +0.000 A 
ATOM     17  C   UNL     1       0.972  10.011  19.439  0.00  0.00    +0.000 A 
ATOM     18  C   UNL     1       1.352   9.782  18.109  0.00  0.00    +0.000 A 
ATOM     19  C   UNL     1       1.975   8.584  17.741  0.00  0.00    +0.000 A 
ATOM     20  C   UNL     1       2.219   7.601  18.698  0.00  0.00    +0.000 A 
ATOM     21  C   UNL     1       1.852   7.818  20.023  0.00  0.00    +0.000 A 
ATOM     22  C   UNL     1       1.246   9.024  20.372  0.00  0.00    +0.000 A 
ATOM     23  O   UNL     1       0.917   9.207  21.718  0.00  0.00    +0.000 OA
ATOM     24  C   UNL     1       0.347  10.389  22.166  0.00  0.00    +0.000 A 
ATOM     25  O   UNL     1      -0.083  10.450  23.313  0.00  0.00    +0.000 OA
BRANCH  16  26
ATOM     26  O   UNL     1       0.079  12.142  18.872  0.00  0.00    +0.000 OA
ATOM     27  H   UNL     1      -0.837  12.452  18.956  0.00  0.00    +0.000 HD
ENDBRANCH  16  26
ENDBRANCH   1  15
BRANCH   1  28
ATOM     28  C   UNL     1      -1.541  13.155  22.265  0.00  0.00    +0.000 A 
ATOM     29  C   UNL     1      -2.595  12.398  21.706  0.00  0.00    +0.000 A 
ATOM     30  C   UNL     1      -3.931  12.695  21.959  0.00  0.00    +0.000 A 
ATOM     31  C   UNL     1      -4.238  13.779  22.785  0.00  0.00    +0.000 A 
ATOM     32  C   UNL     1      -3.222  14.529  23.382  0.00  0.00    +0.000 A 
ATOM     33  C   UNL     1      -1.879  14.219  23.120  0.00  0.00    +0.000 A 
BRANCH  31  34
ATOM     34  N   UNL     1      -5.650  14.132  22.992  0.00  0.00    +0.000 N 
ATOM     35  O   UNL     1      -6.507  13.526  22.334  0.00  0.00    +0.000 OA
ATOM     36  O   UNL     1      -5.896  15.032  23.804  0.00  0.00    +0.000 OA
ENDBRANCH  31  34
ENDBRANCH   1  28
TORSDOF 6
ENDMDL
MODEL 7
REMARK VINA RESULT:      -7.1      2.360      4.167
REMARK  Name = 
REMARK  6 active torsions:
REMARK  status: ('A' for Active; 'I' for Inactive)
REMARK    1  A    between atoms: C_10  and  O_11
REMARK    2  A    between atoms: C_12  and  C_13
REMARK    3  A    between atoms: C_13  and  C_14
REMARK    4  A    between atoms: C_13  and  C_23
REMARK    5  A    between atoms: C_17  and  N_18
REMARK    6  A    between atoms: C_24  and  O_25
REMARK                            x       y       z     vdW  Elec       q    Type
REMARK                         _______ _______ _______ _____ _____    ______ ____
ROOT
ATOM      1  C   UNL     1      -0.068  11.844  20.517  0.00  0.00    +0.000 C 
ENDROOT
BRANCH   1  12
ATOM      2  O   UNL     1       0.950   9.638  19.094  0.00  0.00    +0.000 OA
ATOM      3  C   UNL     1      -0.081  10.116  18.631  0.00  0.00    +0.000 A 
ATOM      4  O   UNL     1      -0.622   9.625  17.451  0.00  0.00    +0.000 OA
ATOM      5  C   UNL     1      -1.826  10.119  16.918  0.00  0.00    +0.000 A 
ATOM      6  C   UNL     1      -2.291   9.512  15.749  0.00  0.00    +0.000 A 
ATOM      7  C   UNL     1      -3.491   9.938  15.190  0.00  0.00    +0.000 A 
ATOM      8  C   UNL     1      -4.208  10.964  15.798  0.00  0.00    +0.000 A 
ATOM      9  C   UNL     1      -3.726  11.567  16.964  0.00  0.00    +0.000 A 
ATOM     10  C   UNL     1      -2.518  11.151  17.546  0.00  0.00    +0.000 A 
ATOM     11  C   UNL     1      -1.936  11.716  18.768  0.00  0.00    +0.000 A 
ATOM     12  C   UNL     1      -0.769  11.267  19.271  0.00  0.00    +0.000 A 
BRANCH  11  13
ATOM     13  O   UNL     1      -2.622  12.730  19.408  0.00  0.00    +0.000 OA
ATOM     14  H   UNL     1      -3.463  12.402  19.759  0.00  0.00    +0.000 HD
ENDBRANCH  11  13
ENDBRANCH   1  12
BRANCH   1  15
ATOM     15  C   UNL     1      -1.016  12.244  21.672  0.00  0.00    +0.000 A 
ATOM     16  C   UNL     1      -1.569  13.460  21.879  0.00  0.00    +0.000 A 
ATOM     17  C   UNL     1      -2.675  13.638  22.822  0.00  0.00    +0.000 A 
ATOM     18  C   UNL     1      -3.434  14.814  22.899  0.00  0.00    +0.000 A 
ATOM     19  C   UNL     1      -4.527  14.902  23.769  0.00  0.00    +0.000 A 
ATOM     20  C   UNL     1      -4.868  13.817  24.575  0.00  0.00    +0.000 A 
ATOM     21  C   UNL     1      -4.125  12.642  24.504  0.00  0.00    +0.000 A 
ATOM     22  C   UNL     1      -3.049  12.569  23.620  0.00  0.00    +0.000 A 
ATOM     23  O   UNL     1      -2.348  11.361  23.566  0.00  0.00    +0.000 OA
ATOM     24  C   UNL     1      -1.289  11.182  22.690  0.00  0.00    +0.000 A 
ATOM     25  O   UNL     1      -0.593  10.176  22.788  0.00  0.00    +0.000 OA
BRANCH  16  26
ATOM     26  O   UNL     1      -1.232  14.614  21.202  0.00  0.00    +0.000 OA
ATOM     27  H   UNL     1      -1.685  15.378  21.593  0.00  0.00    +0.000 HD
ENDBRANCH  16  26
ENDBRANCH   1  15
BRANCH   1  28
ATOM     28  C   UNL     1       0.902  12.949  20.018  0.00  0.00    +0.000 A 
ATOM     29  C   UNL     1       0.816  13.468  18.706  0.00  0.00    +0.000 A 
ATOM     30  C   UNL     1       1.764  14.353  18.200  0.00  0.00    +0.000 A 
ATOM     31  C   UNL     1       2.835  14.734  19.011  0.00  0.00    +0.000 A 
ATOM     32  C   UNL     1       2.934  14.268  20.325  0.00  0.00    +0.000 A 
ATOM     33  C   UNL     1       1.972  13.377  20.824  0.00  0.00    +0.000 A 
BRANCH  31  34
ATOM     34  N   UNL     1       3.870  15.613  18.448  0.00  0.00    +0.000 N 
ATOM     35  O   UNL     1       3.755  16.834  18.613  0.00  0.00    +0.000 OA
ATOM     36  O   UNL     1       4.792  15.074  17.823  0.00  0.00    +0.000 OA
ENDBRANCH  31  34
ENDBRANCH   1  28
TORSDOF 6
ENDMDL
MODEL 8
REMARK VINA RESULT:      -7.0      2.341      4.238
REMARK  Name = 
REMARK  6 active torsions:
REMARK  status: ('A' for Active; 'I' for Inactive)
REMARK    1  A    between atoms: C_10  and  O_11
REMARK    2  A    between atoms: C_12  and  C_13
REMARK    3  A    between atoms: C_13  and  C_14
REMARK    4  A    between atoms: C_13  and  C_23
REMARK    5  A    between atoms: C_17  and  N_18
REMARK    6  A    between atoms: C_24  and  O_25
REMARK                            x       y       z     vdW  Elec       q    Type
REMARK                         _______ _______ _______ _____ _____    ______ ____
ROOT
ATOM      1  C   UNL     1       0.283  12.241  20.681  0.00  0.00    +0.000 C 
ENDROOT
BRANCH   1  12
ATOM      2  O   UNL     1       1.169   9.897  19.399  0.00  0.00    +0.000 OA
ATOM      3  C   UNL     1       0.122  10.360  18.956  0.00  0.00    +0.000 A 
ATOM      4  O   UNL     1      -0.499   9.783  17.857  0.00  0.00    +0.000 OA
ATOM      5  C   UNL     1      -1.722  10.261  17.353  0.00  0.00    +0.000 A 
ATOM      6  C   UNL     1      -2.268   9.567  16.270  0.00  0.00    +0.000 A 
ATOM      7  C   UNL     1      -3.490   9.974  15.746  0.00  0.00    +0.000 A 
ATOM      8  C   UNL     1      -4.149  11.066  16.303  0.00  0.00    +0.000 A 
ATOM      9  C   UNL     1      -3.585  11.755  17.383  0.00  0.00    +0.000 A 
ATOM     10  C   UNL     1      -2.354  11.359  17.928  0.00  0.00    +0.000 A 
ATOM     11  C   UNL     1      -1.688  12.012  19.061  0.00  0.00    +0.000 A 
ATOM     12  C   UNL     1      -0.503  11.578  19.533  0.00  0.00    +0.000 A 
BRANCH  11  13
ATOM     13  O   UNL     1      -2.315  13.094  19.649  0.00  0.00    +0.000 OA
ATOM     14  H   UNL     1      -2.799  13.608  18.985  0.00  0.00    +0.000 HD
ENDBRANCH  11  13
ENDBRANCH   1  12
BRANCH   1  15
ATOM     15  C   UNL     1      -0.591  12.919  21.763  0.00  0.00    +0.000 A 
ATOM     16  C   UNL     1      -0.941  14.224  21.818  0.00  0.00    +0.000 A 
ATOM     17  C   UNL     1      -2.006  14.685  22.711  0.00  0.00    +0.000 A 
ATOM     18  C   UNL     1      -2.566  15.967  22.638  0.00  0.00    +0.000 A 
ATOM     19  C   UNL     1      -3.632  16.329  23.469  0.00  0.00    +0.000 A 
ATOM     20  C   UNL     1      -4.146  15.414  24.386  0.00  0.00    +0.000 A 
ATOM     21  C   UNL     1      -3.602  14.135  24.465  0.00  0.00    +0.000 A 
ATOM     22  C   UNL     1      -2.550  13.789  23.618  0.00  0.00    +0.000 A 
ATOM     23  O   UNL     1      -2.053  12.487  23.716  0.00  0.00    +0.000 OA
ATOM     24  C   UNL     1      -1.035  12.040  22.889  0.00  0.00    +0.000 A 
ATOM     25  O   UNL     1      -0.511  10.954  23.116  0.00  0.00    +0.000 OA
BRANCH  16  26
ATOM     26  O   UNL     1      -0.420  15.222  21.021  0.00  0.00    +0.000 OA
ATOM     27  H   UNL     1      -1.003  15.385  20.262  0.00  0.00    +0.000 HD
ENDBRANCH  16  26
ENDBRANCH   1  15
BRANCH   1  28
ATOM     28  C   UNL     1       1.371  13.135  20.026  0.00  0.00    +0.000 A 
ATOM     29  C   UNL     1       2.530  13.524  20.734  0.00  0.00    +0.000 A 
ATOM     30  C   UNL     1       3.442  14.437  20.211  0.00  0.00    +0.000 A 
ATOM     31  C   UNL     1       3.199  14.990  18.952  0.00  0.00    +0.000 A 
ATOM     32  C   UNL     1       2.081  14.603  18.208  0.00  0.00    +0.000 A 
ATOM     33  C   UNL     1       1.169  13.681  18.746  0.00  0.00    +0.000 A 
BRANCH  31  34
ATOM     34  N   UNL     1       4.127  16.006  18.435  0.00  0.00    +0.000 N 
ATOM     35  O   UNL     1       3.655  17.075  18.025  0.00  0.00    +0.000 OA
ATOM     36  O   UNL     1       5.330  15.722  18.426  0.00  0.00    +0.000 OA
ENDBRANCH  31  34
ENDBRANCH   1  28
TORSDOF 6
ENDMDL
MODEL 9
REMARK VINA RESULT:      -7.0      1.358      2.282
REMARK  Name = 
REMARK  6 active torsions:
REMARK  status: ('A' for Active; 'I' for Inactive)
REMARK    1  A    between atoms: C_10  and  O_11
REMARK    2  A    between atoms: C_12  and  C_13
REMARK    3  A    between atoms: C_13  and  C_14
REMARK    4  A    between atoms: C_13  and  C_23
REMARK    5  A    between atoms: C_17  and  N_18
REMARK    6  A    between atoms: C_24  and  O_25
REMARK                            x       y       z     vdW  Elec       q    Type
REMARK                         _______ _______ _______ _____ _____    ______ ____
ROOT
ATOM      1  C   UNL     1      -0.048  12.150  21.051  0.00  0.00    +0.000 C 
ENDROOT
BRANCH   1  12
ATOM      2  O   UNL     1       0.300  10.089  22.938  0.00  0.00    +0.000 OA
ATOM      3  C   UNL     1       0.664   9.810  21.799  0.00  0.00    +0.000 A 
ATOM      4  O   UNL     1       1.267   8.589  21.528  0.00  0.00    +0.000 OA
ATOM      5  C   UNL     1       1.653   8.219  20.227  0.00  0.00    +0.000 A 
ATOM      6  C   UNL     1       2.208   6.947  20.075  0.00  0.00    +0.000 A 
ATOM      7  C   UNL     1       2.583   6.512  18.809  0.00  0.00    +0.000 A 
ATOM      8  C   UNL     1       2.405   7.351  17.712  0.00  0.00    +0.000 A 
ATOM      9  C   UNL     1       1.854   8.626  17.882  0.00  0.00    +0.000 A 
ATOM     10  C   UNL     1       1.467   9.083  19.151  0.00  0.00    +0.000 A 
ATOM     11  C   UNL     1       0.876  10.397  19.427  0.00  0.00    +0.000 A 
ATOM     12  C   UNL     1       0.528  10.770  20.673  0.00  0.00    +0.000 A 
BRANCH  11  13
ATOM     13  O   UNL     1       0.673  11.256  18.363  0.00  0.00    +0.000 OA
ATOM     14  H   UNL     1      -0.249  11.552  18.338  0.00  0.00    +0.000 HD
ENDBRANCH  11  13
ENDBRANCH   1  12
BRANCH   1  15
ATOM     15  C   UNL     1      -1.592  12.223  21.089  0.00  0.00    +0.000 A 
ATOM     16  C   UNL     1      -2.370  12.307  22.192  0.00  0.00    +0.000 A 
ATOM     17  C   UNL     1      -3.785  12.669  22.095  0.00  0.00    +0.000 A 
ATOM     18  C   UNL     1      -4.570  13.000  23.208  0.00  0.00    +0.000 A 
ATOM     19  C   UNL     1      -5.898  13.409  23.048  0.00  0.00    +0.000 A 
ATOM     20  C   UNL     1      -6.457  13.488  21.774  0.00  0.00    +0.000 A 
ATOM     21  C   UNL     1      -5.687  13.167  20.660  0.00  0.00    +0.000 A 
ATOM     22  C   UNL     1      -4.361  12.775  20.839  0.00  0.00    +0.000 A 
ATOM     23  O   UNL     1      -3.620  12.487  19.690  0.00  0.00    +0.000 OA
ATOM     24  C   UNL     1      -2.284  12.127  19.766  0.00  0.00    +0.000 A 
ATOM     25  O   UNL     1      -1.715  11.718  18.759  0.00  0.00    +0.000 OA
BRANCH  16  26
ATOM     26  O   UNL     1      -1.930  12.148  23.490  0.00  0.00    +0.000 OA
ATOM     27  H   UNL     1      -2.003  12.987  23.975  0.00  0.00    +0.000 HD
ENDBRANCH  16  26
ENDBRANCH   1  15
BRANCH   1  28
ATOM     28  C   UNL     1       0.662  13.196  20.149  0.00  0.00    +0.000 A 
ATOM     29  C   UNL     1       2.068  13.217  20.010  0.00  0.00    +0.000 A 
ATOM     30  C   UNL     1       2.725  14.233  19.322  0.00  0.00    +0.000 A 
ATOM     31  C   UNL     1       1.973  15.265  18.758  0.00  0.00    +0.000 A 
ATOM     32  C   UNL     1       0.578  15.259  18.846  0.00  0.00    +0.000 A 
ATOM     33  C   UNL     1      -0.073  14.230  19.542  0.00  0.00    +0.000 A 
BRANCH  31  34
ATOM     34  N   UNL     1       2.677  16.372  18.094  0.00  0.00    +0.000 N 
ATOM     35  O   UNL     1       3.333  16.120  17.075  0.00  0.00    +0.000 OA
ATOM     36  O   UNL     1       2.584  17.493  18.608  0.00  0.00    +0.000 OA
ENDBRANCH  31  34
ENDBRANCH   1  28
TORSDOF 6
ENDMDL
