MODEL 1
REMARK VINA RESULT:      -6.6      0.000      0.000
REMARK  Name = 
REMARK  16 active torsions:
REMARK  status: ('A' for Active; 'I' for Inactive)
REMARK    1  A    between atoms: C_2  and  C_3
REMARK    2  A    between atoms: C_3  and  C_4
REMARK    3  A    between atoms: C_4  and  C_5
REMARK    4  A    between atoms: C_5  and  S_6
REMARK    5  A    between atoms: S_6  and  C_7
REMARK    6  A    between atoms: C_7  and  C_8
REMARK    7  A    between atoms: C_8  and  O_10
REMARK    8  A    between atoms: C_12  and  O_13
REMARK    9  A    between atoms: C_14  and  N_15
REMARK   10  A    between atoms: C_16  and  C_17
REMARK   11  A    between atoms: C_19  and  C_20
REMARK   12  A    between atoms: C_20  and  O_21
REMARK   13  A    between atoms: C_20  and  C_22
REMARK   14  A    between atoms: C_22  and  O_23
REMARK   15  A    between atoms: C_22  and  C_24
REMARK   16  A    between atoms: C_24  and  O_25
REMARK                            x       y       z     vdW  Elec       q    Type
REMARK                         _______ _______ _______ _____ _____    ______ ____
ROOT
ATOM      1  C   UNL     1       6.030   5.183  16.694  0.00  0.00    +0.000 C 
ATOM      2  C   UNL     1       6.054   3.880  17.485  0.00  0.00    +0.000 C 
ATOM      3  C   UNL     1       5.142   3.954  18.701  0.00  0.00    +0.000 C 
ATOM      4  C   UNL     1       3.711   4.308  18.273  0.00  0.00    +0.000 C 
ATOM      5  C   UNL     1       3.686   5.571  17.368  0.00  0.00    +0.000 C 
ATOM      6  O   UNL     1       4.686   5.515  16.326  0.00  0.00    +0.000 OA
ENDROOT
BRANCH   4   7
ATOM      7  N   UNL     1       2.808   4.382  19.421  0.00  0.00    +0.000 N 
ATOM      8  C   UNL     1       2.072   3.300  19.858  0.00  0.00    +0.000 C 
ATOM      9  C   UNL     1       1.183   3.579  21.039  0.00  0.00    +0.000 C 
ATOM     10  O   UNL     1       2.115   2.215  19.300  0.00  0.00    +0.000 OA
ATOM     11  H   UNL     1       2.707   5.277  19.896  0.00  0.00    +0.000 HD
ENDBRANCH   4   7
BRANCH   1  12
ATOM     12  C   UNL     1       6.862   6.371  17.332  0.00  0.00    +0.000 C 
ATOM     13  O   UNL     1       7.223   7.352  16.690  0.00  0.00    +0.000 OA
BRANCH  12  14
ATOM     14  O   UNL     1       7.148   6.298  18.654  0.00  0.00    +0.000 OA
ATOM     15  H   UNL     1       7.991   5.899  18.937  0.00  0.00    +0.000 HD
ENDBRANCH  12  14
ENDBRANCH   1  12
BRANCH   3  16
ATOM     16  O   UNL     1       5.195   2.690  19.374  0.00  0.00    +0.000 OA
ATOM     17  H   UNL     1       4.410   2.599  19.942  0.00  0.00    +0.000 HD
ENDBRANCH   3  16
BRANCH   1  18
ATOM     18  S   UNL     1       7.015   4.866  15.103  0.00  0.00    +0.000 S 
BRANCH  18  19
ATOM     19  C   UNL     1       5.829   3.948  14.065  0.00  0.00    +0.000 C 
BRANCH  19  20
ATOM     20  C   UNL     1       6.463   3.751  12.683  0.00  0.00    +0.000 C 
BRANCH  20  21
ATOM     21  C   UNL     1       5.634   2.814  11.801  0.00  0.00    +0.000 C 
BRANCH  21  23
ATOM     22  C   UNL     1       3.323   2.971  10.818  0.00  0.00    +0.000 C 
ATOM     23  C   UNL     1       4.480   3.546  11.179  0.00  0.00    +0.000 C 
ENDBRANCH  21  23
ENDBRANCH  20  21
ENDBRANCH  19  20
ENDBRANCH  18  19
ENDBRANCH   1  18
BRANCH   5  24
ATOM     24  C   UNL     1       3.672   6.934  18.120  0.00  0.00    +0.000 C 
BRANCH  24  25
ATOM     25  O   UNL     1       4.582   7.848  17.498  0.00  0.00    +0.000 OA
ATOM     26  H   UNL     1       4.356   7.864  16.538  0.00  0.00    +0.000 HD
ENDBRANCH  24  25
BRANCH  24  27
ATOM     27  C   UNL     1       2.261   7.565  18.245  0.00  0.00    +0.000 C 
BRANCH  27  28
ATOM     28  O   UNL     1       2.202   8.747  17.417  0.00  0.00    +0.000 OA
ATOM     29  H   UNL     1       1.425   8.681  16.834  0.00  0.00    +0.000 HD
ENDBRANCH  27  28
BRANCH  27  30
ATOM     30  C   UNL     1       1.909   7.973  19.682  0.00  0.00    +0.000 C 
BRANCH  30  31
ATOM     31  O   UNL     1       2.237   6.928  20.595  0.00  0.00    +0.000 OA
ATOM     32  H   UNL     1       2.101   6.081  20.127  0.00  0.00    +0.000 HD
ENDBRANCH  30  31
ENDBRANCH  27  30
ENDBRANCH  24  27
ENDBRANCH   5  24
TORSDOF 15
ENDMDL
MODEL 2
REMARK VINA RESULT:      -6.4      1.112      1.555
REMARK  Name = 
REMARK  16 active torsions:
REMARK  status: ('A' for Active; 'I' for Inactive)
REMARK    1  A    between atoms: C_2  and  C_3
REMARK    2  A    between atoms: C_3  and  C_4
REMARK    3  A    between atoms: C_4  and  C_5
REMARK    4  A    between atoms: C_5  and  S_6
REMARK    5  A    between atoms: S_6  and  C_7
REMARK    6  A    between atoms: C_7  and  C_8
REMARK    7  A    between atoms: C_8  and  O_10
REMARK    8  A    between atoms: C_12  and  O_13
REMARK    9  A    between atoms: C_14  and  N_15
REMARK   10  A    between atoms: C_16  and  C_17
REMARK   11  A    between atoms: C_19  and  C_20
REMARK   12  A    between atoms: C_20  and  O_21
REMARK   13  A    between atoms: C_20  and  C_22
REMARK   14  A    between atoms: C_22  and  O_23
REMARK   15  A    between atoms: C_22  and  C_24
REMARK   16  A    between atoms: C_24  and  O_25
REMARK                            x       y       z     vdW  Elec       q    Type
REMARK                         _______ _______ _______ _____ _____    ______ ____
ROOT
ATOM      1  C   UNL     1       5.857   4.503  16.131  0.00  0.00    +0.000 C 
ATOM      2  C   UNL     1       5.385   3.088  16.449  0.00  0.00    +0.000 C 
ATOM      3  C   UNL     1       4.574   3.051  17.736  0.00  0.00    +0.000 C 
ATOM      4  C   UNL     1       3.385   4.017  17.646  0.00  0.00    +0.000 C 
ATOM      5  C   UNL     1       3.840   5.437  17.209  0.00  0.00    +0.000 C 
ATOM      6  O   UNL     1       4.739   5.397  16.078  0.00  0.00    +0.000 OA
ENDROOT
BRANCH   4   7
ATOM      7  N   UNL     1       2.583   4.000  18.868  0.00  0.00    +0.000 N 
ATOM      8  C   UNL     1       1.496   3.167  19.033  0.00  0.00    +0.000 C 
ATOM      9  C   UNL     1       0.784   3.312  20.350  0.00  0.00    +0.000 C 
ATOM     10  O   UNL     1       1.124   2.402  18.157  0.00  0.00    +0.000 OA
ATOM     11  H   UNL     1       2.829   4.650  19.613  0.00  0.00    +0.000 HD
ENDBRANCH   4   7
BRANCH   1  12
ATOM     12  C   UNL     1       7.080   5.012  16.998  0.00  0.00    +0.000 C 
ATOM     13  O   UNL     1       7.617   6.102  16.818  0.00  0.00    +0.000 OA
BRANCH  12  14
ATOM     14  O   UNL     1       7.519   4.211  17.999  0.00  0.00    +0.000 OA
ATOM     15  H   UNL     1       8.117   3.472  17.788  0.00  0.00    +0.000 HD
ENDBRANCH  12  14
ENDBRANCH   1  12
BRANCH   3  16
ATOM     16  O   UNL     1       4.144   1.701  17.952  0.00  0.00    +0.000 OA
ATOM     17  H   UNL     1       4.135   1.520  18.908  0.00  0.00    +0.000 HD
ENDBRANCH   3  16
BRANCH   1  18
ATOM     18  S   UNL     1       6.640   4.435  14.404  0.00  0.00    +0.000 S 
BRANCH  18  19
ATOM     19  C   UNL     1       5.250   3.906  13.347  0.00  0.00    +0.000 C 
BRANCH  19  20
ATOM     20  C   UNL     1       5.826   3.108  12.171  0.00  0.00    +0.000 C 
BRANCH  20  21
ATOM     21  C   UNL     1       4.736   2.649  11.201  0.00  0.00    +0.000 C 
BRANCH  21  23
ATOM     22  C   UNL     1       2.916   3.724   9.835  0.00  0.00    +0.000 C 
ATOM     23  C   UNL     1       3.956   3.820  10.678  0.00  0.00    +0.000 C 
ENDBRANCH  21  23
ENDBRANCH  20  21
ENDBRANCH  19  20
ENDBRANCH  18  19
ENDBRANCH   1  18
BRANCH   5  24
ATOM     24  C   UNL     1       4.350   6.360  18.354  0.00  0.00    +0.000 C 
BRANCH  24  25
ATOM     25  O   UNL     1       5.388   7.218  17.868  0.00  0.00    +0.000 OA
ATOM     26  H   UNL     1       5.686   7.764  18.634  0.00  0.00    +0.000 HD
ENDBRANCH  24  25
BRANCH  24  27
ATOM     27  C   UNL     1       3.230   7.187  19.037  0.00  0.00    +0.000 C 
BRANCH  27  28
ATOM     28  O   UNL     1       2.655   6.405  20.107  0.00  0.00    +0.000 OA
ATOM     29  H   UNL     1       3.185   6.540  20.912  0.00  0.00    +0.000 HD
ENDBRANCH  27  28
BRANCH  27  30
ATOM     30  C   UNL     1       2.100   7.580  18.076  0.00  0.00    +0.000 C 
BRANCH  30  31
ATOM     31  O   UNL     1       2.469   8.725  17.309  0.00  0.00    +0.000 OA
ATOM     32  H   UNL     1       1.670   9.278  17.213  0.00  0.00    +0.000 HD
ENDBRANCH  30  31
ENDBRANCH  27  30
ENDBRANCH  24  27
ENDBRANCH   5  24
TORSDOF 15
ENDMDL
MODEL 3
REMARK VINA RESULT:      -6.3      2.885      6.281
REMARK  Name = 
REMARK  16 active torsions:
REMARK  status: ('A' for Active; 'I' for Inactive)
REMARK    1  A    between atoms: C_2  and  C_3
REMARK    2  A    between atoms: C_3  and  C_4
REMARK    3  A    between atoms: C_4  and  C_5
REMARK    4  A    between atoms: C_5  and  S_6
REMARK    5  A    between atoms: S_6  and  C_7
REMARK    6  A    between atoms: C_7  and  C_8
REMARK    7  A    between atoms: C_8  and  O_10
REMARK    8  A    between atoms: C_12  and  O_13
REMARK    9  A    between atoms: C_14  and  N_15
REMARK   10  A    between atoms: C_16  and  C_17
REMARK   11  A    between atoms: C_19  and  C_20
REMARK   12  A    between atoms: C_20  and  O_21
REMARK   13  A    between atoms: C_20  and  C_22
REMARK   14  A    between atoms: C_22  and  O_23
REMARK   15  A    between atoms: C_22  and  C_24
REMARK   16  A    between atoms: C_24  and  O_25
REMARK                            x       y       z     vdW  Elec       q    Type
REMARK                         _______ _______ _______ _____ _____    ______ ____
ROOT
ATOM      1  C   UNL     1       5.117   4.268  17.673  0.00  0.00    +0.000 C 
ATOM      2  C   UNL     1       4.661   3.858  16.277  0.00  0.00    +0.000 C 
ATOM      3  C   UNL     1       5.313   4.719  15.205  0.00  0.00    +0.000 C 
ATOM      4  C   UNL     1       6.841   4.651  15.323  0.00  0.00    +0.000 C 
ATOM      5  C   UNL     1       7.313   4.954  16.772  0.00  0.00    +0.000 C 
ATOM      6  O   UNL     1       6.546   4.226  17.758  0.00  0.00    +0.000 OA
ENDROOT
BRANCH   4   7
ATOM      7  N   UNL     1       7.498   5.466  14.302  0.00  0.00    +0.000 N 
ATOM      8  C   UNL     1       7.618   5.058  12.989  0.00  0.00    +0.000 C 
ATOM      9  C   UNL     1       8.345   6.024  12.094  0.00  0.00    +0.000 C 
ATOM     10  O   UNL     1       7.199   3.980  12.601  0.00  0.00    +0.000 OA
ATOM     11  H   UNL     1       7.901   6.358  14.585  0.00  0.00    +0.000 HD
ENDBRANCH   4   7
BRANCH   1  12
ATOM     12  C   UNL     1       4.452   5.592  18.233  0.00  0.00    +0.000 C 
ATOM     13  O   UNL     1       4.527   5.927  19.412  0.00  0.00    +0.000 OA
BRANCH  12  14
ATOM     14  O   UNL     1       3.805   6.393  17.353  0.00  0.00    +0.000 OA
ATOM     15  H   UNL     1       4.317   6.851  16.662  0.00  0.00    +0.000 HD
ENDBRANCH  12  14
ENDBRANCH   1  12
BRANCH   3  16
ATOM     16  O   UNL     1       4.860   4.257  13.926  0.00  0.00    +0.000 OA
ATOM     17  H   UNL     1       5.548   3.696  13.529  0.00  0.00    +0.000 HD
ENDBRANCH   3  16
BRANCH   1  18
ATOM     18  S   UNL     1       4.416   2.974  18.871  0.00  0.00    +0.000 S 
BRANCH  18  19
ATOM     19  C   UNL     1       3.011   2.277  17.941  0.00  0.00    +0.000 C 
BRANCH  19  20
ATOM     20  C   UNL     1       1.766   3.110  18.269  0.00  0.00    +0.000 C 
BRANCH  20  21
ATOM     21  C   UNL     1       0.989   2.537  19.456  0.00  0.00    +0.000 C 
BRANCH  21  23
ATOM     22  C   UNL     1       1.442   4.759  20.546  0.00  0.00    +0.000 C 
ATOM     23  C   UNL     1       0.986   3.499  20.609  0.00  0.00    +0.000 C 
ENDBRANCH  21  23
ENDBRANCH  20  21
ENDBRANCH  19  20
ENDBRANCH  18  19
ENDBRANCH   1  18
BRANCH   5  24
ATOM     24  C   UNL     1       7.472   6.462  17.123  0.00  0.00    +0.000 C 
BRANCH  24  25
ATOM     25  O   UNL     1       6.355   7.204  16.622  0.00  0.00    +0.000 OA
ATOM     26  H   UNL     1       5.542   6.733  16.924  0.00  0.00    +0.000 HD
ENDBRANCH  24  25
BRANCH  24  27
ATOM     27  C   UNL     1       7.676   6.735  18.636  0.00  0.00    +0.000 C 
BRANCH  27  28
ATOM     28  O   UNL     1       8.584   7.847  18.794  0.00  0.00    +0.000 OA
ATOM     29  H   UNL     1       8.063   8.656  18.942  0.00  0.00    +0.000 HD
ENDBRANCH  27  28
BRANCH  27  30
ATOM     30  C   UNL     1       8.260   5.533  19.391  0.00  0.00    +0.000 C 
BRANCH  30  31
ATOM     31  O   UNL     1       7.409   5.155  20.471  0.00  0.00    +0.000 OA
ATOM     32  H   UNL     1       7.305   5.939  21.045  0.00  0.00    +0.000 HD
ENDBRANCH  30  31
ENDBRANCH  27  30
ENDBRANCH  24  27
ENDBRANCH   5  24
TORSDOF 15
ENDMDL
MODEL 4
REMARK VINA RESULT:      -6.2      0.772      1.057
REMARK  Name = 
REMARK  16 active torsions:
REMARK  status: ('A' for Active; 'I' for Inactive)
REMARK    1  A    between atoms: C_2  and  C_3
REMARK    2  A    between atoms: C_3  and  C_4
REMARK    3  A    between atoms: C_4  and  C_5
REMARK    4  A    between atoms: C_5  and  S_6
REMARK    5  A    between atoms: S_6  and  C_7
REMARK    6  A    between atoms: C_7  and  C_8
REMARK    7  A    between atoms: C_8  and  O_10
REMARK    8  A    between atoms: C_12  and  O_13
REMARK    9  A    between atoms: C_14  and  N_15
REMARK   10  A    between atoms: C_16  and  C_17
REMARK   11  A    between atoms: C_19  and  C_20
REMARK   12  A    between atoms: C_20  and  O_21
REMARK   13  A    between atoms: C_20  and  C_22
REMARK   14  A    between atoms: C_22  and  O_23
REMARK   15  A    between atoms: C_22  and  C_24
REMARK   16  A    between atoms: C_24  and  O_25
REMARK                            x       y       z     vdW  Elec       q    Type
REMARK                         _______ _______ _______ _____ _____    ______ ____
ROOT
ATOM      1  C   UNL     1       6.103   5.088  16.730  0.00  0.00    +0.000 C 
ATOM      2  C   UNL     1       6.149   3.788  17.526  0.00  0.00    +0.000 C 
ATOM      3  C   UNL     1       5.241   3.854  18.745  0.00  0.00    +0.000 C 
ATOM      4  C   UNL     1       3.804   4.186  18.323  0.00  0.00    +0.000 C 
ATOM      5  C   UNL     1       3.756   5.445  17.413  0.00  0.00    +0.000 C 
ATOM      6  O   UNL     1       4.753   5.399  16.367  0.00  0.00    +0.000 OA
ENDROOT
BRANCH   4   7
ATOM      7  N   UNL     1       2.904   4.251  19.474  0.00  0.00    +0.000 N 
ATOM      8  C   UNL     1       2.168   3.167  19.904  0.00  0.00    +0.000 C 
ATOM      9  C   UNL     1       1.283   3.437  21.090  0.00  0.00    +0.000 C 
ATOM     10  O   UNL     1       2.207   2.087  19.337  0.00  0.00    +0.000 OA
ATOM     11  H   UNL     1       2.806   5.142  19.957  0.00  0.00    +0.000 HD
ENDBRANCH   4   7
BRANCH   1  12
ATOM     12  C   UNL     1       6.920   6.290  17.360  0.00  0.00    +0.000 C 
ATOM     13  O   UNL     1       7.524   6.199  18.425  0.00  0.00    +0.000 OA
BRANCH  12  14
ATOM     14  O   UNL     1       6.972   7.450  16.663  0.00  0.00    +0.000 OA
ATOM     15  H   UNL     1       7.380   8.233  17.073  0.00  0.00    +0.000 HD
ENDBRANCH  12  14
ENDBRANCH   1  12
BRANCH   3  16
ATOM     16  O   UNL     1       5.315   2.593  19.423  0.00  0.00    +0.000 OA
ATOM     17  H   UNL     1       4.420   2.325  19.693  0.00  0.00    +0.000 HD
ENDBRANCH   3  16
BRANCH   1  18
ATOM     18  S   UNL     1       7.086   4.778  15.136  0.00  0.00    +0.000 S 
BRANCH  18  19
ATOM     19  C   UNL     1       5.819   4.129  13.996  0.00  0.00    +0.000 C 
BRANCH  19  20
ATOM     20  C   UNL     1       6.522   3.700  12.702  0.00  0.00    +0.000 C 
BRANCH  20  21
ATOM     21  C   UNL     1       5.638   2.793  11.844  0.00  0.00    +0.000 C 
BRANCH  21  23
ATOM     22  C   UNL     1       3.492   3.146  10.578  0.00  0.00    +0.000 C 
ATOM     23  C   UNL     1       4.288   3.412  11.625  0.00  0.00    +0.000 C 
ENDBRANCH  21  23
ENDBRANCH  20  21
ENDBRANCH  19  20
ENDBRANCH  18  19
ENDBRANCH   1  18
BRANCH   5  24
ATOM     24  C   UNL     1       3.726   6.810  18.159  0.00  0.00    +0.000 C 
BRANCH  24  25
ATOM     25  O   UNL     1       4.319   7.828  17.346  0.00  0.00    +0.000 OA
ATOM     26  H   UNL     1       4.939   7.373  16.727  0.00  0.00    +0.000 HD
ENDBRANCH  24  25
BRANCH  24  27
ATOM     27  C   UNL     1       2.310   7.237  18.626  0.00  0.00    +0.000 C 
BRANCH  27  28
ATOM     28  O   UNL     1       1.335   6.348  18.040  0.00  0.00    +0.000 OA
ATOM     29  H   UNL     1       0.617   6.205  18.682  0.00  0.00    +0.000 HD
ENDBRANCH  27  28
BRANCH  27  30
ATOM     30  C   UNL     1       1.950   8.673  18.220  0.00  0.00    +0.000 C 
BRANCH  30  31
ATOM     31  O   UNL     1       1.133   9.287  19.215  0.00  0.00    +0.000 OA
ATOM     32  H   UNL     1       0.646   8.573  19.670  0.00  0.00    +0.000 HD
ENDBRANCH  30  31
ENDBRANCH  27  30
ENDBRANCH  24  27
ENDBRANCH   5  24
TORSDOF 15
ENDMDL
MODEL 5
REMARK VINA RESULT:      -6.1      3.139      5.542
REMARK  Name = 
REMARK  16 active torsions:
REMARK  status: ('A' for Active; 'I' for Inactive)
REMARK    1  A    between atoms: C_2  and  C_3
REMARK    2  A    between atoms: C_3  and  C_4
REMARK    3  A    between atoms: C_4  and  C_5
REMARK    4  A    between atoms: C_5  and  S_6
REMARK    5  A    between atoms: S_6  and  C_7
REMARK    6  A    between atoms: C_7  and  C_8
REMARK    7  A    between atoms: C_8  and  O_10
REMARK    8  A    between atoms: C_12  and  O_13
REMARK    9  A    between atoms: C_14  and  N_15
REMARK   10  A    between atoms: C_16  and  C_17
REMARK   11  A    between atoms: C_19  and  C_20
REMARK   12  A    between atoms: C_20  and  O_21
REMARK   13  A    between atoms: C_20  and  C_22
REMARK   14  A    between atoms: C_22  and  O_23
REMARK   15  A    between atoms: C_22  and  C_24
REMARK   16  A    between atoms: C_24  and  O_25
REMARK                            x       y       z     vdW  Elec       q    Type
REMARK                         _______ _______ _______ _____ _____    ______ ____
ROOT
ATOM      1  C   UNL     1       4.307   4.443  17.865  0.00  0.00    +0.000 C 
ATOM      2  C   UNL     1       3.670   5.751  17.408  0.00  0.00    +0.000 C 
ATOM      3  C   UNL     1       2.467   6.110  18.267  0.00  0.00    +0.000 C 
ATOM      4  C   UNL     1       2.870   6.184  19.746  0.00  0.00    +0.000 C 
ATOM      5  C   UNL     1       3.624   4.901  20.194  0.00  0.00    +0.000 C 
ATOM      6  O   UNL     1       4.652   4.518  19.252  0.00  0.00    +0.000 OA
ENDROOT
BRANCH   4   7
ATOM      7  N   UNL     1       1.734   6.533  20.598  0.00  0.00    +0.000 N 
ATOM      8  C   UNL     1       1.333   7.836  20.807  0.00  0.00    +0.000 C 
ATOM      9  C   UNL     1       0.159   7.993  21.733  0.00  0.00    +0.000 C 
ATOM     10  O   UNL     1       1.916   8.785  20.306  0.00  0.00    +0.000 OA
ATOM     11  H   UNL     1       1.239   5.778  21.071  0.00  0.00    +0.000 HD
ENDBRANCH   4   7
BRANCH   1  12
ATOM     12  C   UNL     1       3.525   3.133  17.439  0.00  0.00    +0.000 C 
ATOM     13  O   UNL     1       2.521   3.156  16.734  0.00  0.00    +0.000 OA
BRANCH  12  14
ATOM     14  O   UNL     1       4.021   1.942  17.853  0.00  0.00    +0.000 OA
ATOM     15  H   UNL     1       3.492   1.135  17.721  0.00  0.00    +0.000 HD
ENDBRANCH  12  14
ENDBRANCH   1  12
BRANCH   3  16
ATOM     16  O   UNL     1       1.943   7.359  17.799  0.00  0.00    +0.000 OA
ATOM     17  H   UNL     1       2.055   7.409  16.834  0.00  0.00    +0.000 HD
ENDBRANCH   3  16
BRANCH   1  18
ATOM     18  S   UNL     1       5.911   4.247  16.868  0.00  0.00    +0.000 S 
BRANCH  18  19
ATOM     19  C   UNL     1       7.142   5.107  17.904  0.00  0.00    +0.000 C 
BRANCH  19  20
ATOM     20  C   UNL     1       7.114   6.596  17.535  0.00  0.00    +0.000 C 
BRANCH  20  21
ATOM     21  C   UNL     1       8.121   7.407  18.352  0.00  0.00    +0.000 C 
BRANCH  21  23
ATOM     22  C   UNL     1       8.793   9.825  18.541  0.00  0.00    +0.000 C 
ATOM     23  C   UNL     1       8.153   8.837  17.897  0.00  0.00    +0.000 C 
ENDBRANCH  21  23
ENDBRANCH  20  21
ENDBRANCH  19  20
ENDBRANCH  18  19
ENDBRANCH   1  18
BRANCH   5  24
ATOM     24  C   UNL     1       2.721   3.708  20.622  0.00  0.00    +0.000 C 
BRANCH  24  25
ATOM     25  O   UNL     1       2.410   3.803  22.017  0.00  0.00    +0.000 OA
ATOM     26  H   UNL     1       3.133   3.338  22.501  0.00  0.00    +0.000 HD
ENDBRANCH  24  25
BRANCH  24  27
ATOM     27  C   UNL     1       1.426   3.570  19.780  0.00  0.00    +0.000 C 
BRANCH  27  28
ATOM     28  O   UNL     1       0.341   4.217  20.479  0.00  0.00    +0.000 OA
ATOM     29  H   UNL     1      -0.313   3.543  20.735  0.00  0.00    +0.000 HD
ENDBRANCH  27  28
BRANCH  27  30
ATOM     30  C   UNL     1       1.025   2.110  19.528  0.00  0.00    +0.000 C 
BRANCH  30  31
ATOM     31  O   UNL     1       0.320   1.988  18.295  0.00  0.00    +0.000 OA
ATOM     32  H   UNL     1       0.839   2.461  17.616  0.00  0.00    +0.000 HD
ENDBRANCH  30  31
ENDBRANCH  27  30
ENDBRANCH  24  27
ENDBRANCH   5  24
TORSDOF 15
ENDMDL
MODEL 6
REMARK VINA RESULT:      -6.1      1.930      4.241
REMARK  Name = 
REMARK  16 active torsions:
REMARK  status: ('A' for Active; 'I' for Inactive)
REMARK    1  A    between atoms: C_2  and  C_3
REMARK    2  A    between atoms: C_3  and  C_4
REMARK    3  A    between atoms: C_4  and  C_5
REMARK    4  A    between atoms: C_5  and  S_6
REMARK    5  A    between atoms: S_6  and  C_7
REMARK    6  A    between atoms: C_7  and  C_8
REMARK    7  A    between atoms: C_8  and  O_10
REMARK    8  A    between atoms: C_12  and  O_13
REMARK    9  A    between atoms: C_14  and  N_15
REMARK   10  A    between atoms: C_16  and  C_17
REMARK   11  A    between atoms: C_19  and  C_20
REMARK   12  A    between atoms: C_20  and  O_21
REMARK   13  A    between atoms: C_20  and  C_22
REMARK   14  A    between atoms: C_22  and  O_23
REMARK   15  A    between atoms: C_22  and  C_24
REMARK   16  A    between atoms: C_24  and  O_25
REMARK                            x       y       z     vdW  Elec       q    Type
REMARK                         _______ _______ _______ _____ _____    ______ ____
ROOT
ATOM      1  C   UNL     1       4.698   4.640  18.053  0.00  0.00    +0.000 C 
ATOM      2  C   UNL     1       4.173   6.013  17.645  0.00  0.00    +0.000 C 
ATOM      3  C   UNL     1       2.837   6.314  18.308  0.00  0.00    +0.000 C 
ATOM      4  C   UNL     1       2.963   6.207  19.834  0.00  0.00    +0.000 C 
ATOM      5  C   UNL     1       3.605   4.857  20.258  0.00  0.00    +0.000 C 
ATOM      6  O   UNL     1       4.783   4.546  19.479  0.00  0.00    +0.000 OA
ENDROOT
BRANCH   4   7
ATOM      7  N   UNL     1       1.695   6.497  20.502  0.00  0.00    +0.000 N 
ATOM      8  C   UNL     1       1.300   7.779  20.826  0.00  0.00    +0.000 C 
ATOM      9  C   UNL     1      -0.026   7.871  21.529  0.00  0.00    +0.000 C 
ATOM     10  O   UNL     1       1.997   8.753  20.591  0.00  0.00    +0.000 OA
ATOM     11  H   UNL     1       1.095   5.713  20.755  0.00  0.00    +0.000 HD
ENDBRANCH   4   7
BRANCH   1  12
ATOM     12  C   UNL     1       3.990   3.414  17.343  0.00  0.00    +0.000 C 
ATOM     13  O   UNL     1       3.176   3.550  16.433  0.00  0.00    +0.000 OA
BRANCH  12  14
ATOM     14  O   UNL     1       4.334   2.168  17.747  0.00  0.00    +0.000 OA
ATOM     15  H   UNL     1       3.673   1.616  18.201  0.00  0.00    +0.000 HD
ENDBRANCH  12  14
ENDBRANCH   1  12
BRANCH   3  16
ATOM     16  O   UNL     1       2.424   7.625  17.902  0.00  0.00    +0.000 OA
ATOM     17  H   UNL     1       1.584   7.557  17.416  0.00  0.00    +0.000 HD
ENDBRANCH   3  16
BRANCH   1  18
ATOM     18  S   UNL     1       6.454   4.503  17.346  0.00  0.00    +0.000 S 
BRANCH  18  19
ATOM     19  C   UNL     1       6.466   5.772  16.036  0.00  0.00    +0.000 C 
BRANCH  19  20
ATOM     20  C   UNL     1       6.911   5.100  14.731  0.00  0.00    +0.000 C 
BRANCH  20  21
ATOM     21  C   UNL     1       6.137   3.809  14.458  0.00  0.00    +0.000 C 
BRANCH  21  23
ATOM     22  C   UNL     1       6.358   3.119  12.048  0.00  0.00    +0.000 C 
ATOM     23  C   UNL     1       5.688   3.746  13.027  0.00  0.00    +0.000 C 
ENDBRANCH  21  23
ENDBRANCH  20  21
ENDBRANCH  19  20
ENDBRANCH  18  19
ENDBRANCH   1  18
BRANCH   5  24
ATOM     24  C   UNL     1       2.623   3.655  20.373  0.00  0.00    +0.000 C 
BRANCH  24  25
ATOM     25  O   UNL     1       2.311   3.407  21.748  0.00  0.00    +0.000 OA
ATOM     26  H   UNL     1       2.925   2.698  22.056  0.00  0.00    +0.000 HD
ENDBRANCH  24  25
BRANCH  24  27
ATOM     27  C   UNL     1       1.327   3.823  19.539  0.00  0.00    +0.000 C 
BRANCH  27  28
ATOM     28  O   UNL     1       0.230   4.117  20.431  0.00  0.00    +0.000 OA
ATOM     29  H   UNL     1       0.202   5.078  20.586  0.00  0.00    +0.000 HD
ENDBRANCH  27  28
BRANCH  27  30
ATOM     30  C   UNL     1       0.963   2.569  18.733  0.00  0.00    +0.000 C 
BRANCH  30  31
ATOM     31  O   UNL     1       1.768   1.462  19.134  0.00  0.00    +0.000 OA
ATOM     32  H   UNL     1       2.608   1.521  18.638  0.00  0.00    +0.000 HD
ENDBRANCH  30  31
ENDBRANCH  27  30
ENDBRANCH  24  27
ENDBRANCH   5  24
TORSDOF 15
ENDMDL
MODEL 7
REMARK VINA RESULT:      -6.1      1.378      2.045
REMARK  Name = 
REMARK  16 active torsions:
REMARK  status: ('A' for Active; 'I' for Inactive)
REMARK    1  A    between atoms: C_2  and  C_3
REMARK    2  A    between atoms: C_3  and  C_4
REMARK    3  A    between atoms: C_4  and  C_5
REMARK    4  A    between atoms: C_5  and  S_6
REMARK    5  A    between atoms: S_6  and  C_7
REMARK    6  A    between atoms: C_7  and  C_8
REMARK    7  A    between atoms: C_8  and  O_10
REMARK    8  A    between atoms: C_12  and  O_13
REMARK    9  A    between atoms: C_14  and  N_15
REMARK   10  A    between atoms: C_16  and  C_17
REMARK   11  A    between atoms: C_19  and  C_20
REMARK   12  A    between atoms: C_20  and  O_21
REMARK   13  A    between atoms: C_20  and  C_22
REMARK   14  A    between atoms: C_22  and  O_23
REMARK   15  A    between atoms: C_22  and  C_24
REMARK   16  A    between atoms: C_24  and  O_25
REMARK                            x       y       z     vdW  Elec       q    Type
REMARK                         _______ _______ _______ _____ _____    ______ ____
ROOT
ATOM      1  C   UNL     1       5.850   5.091  16.347  0.00  0.00    +0.000 C 
ATOM      2  C   UNL     1       6.690   4.825  17.592  0.00  0.00    +0.000 C 
ATOM      3  C   UNL     1       5.864   4.980  18.860  0.00  0.00    +0.000 C 
ATOM      4  C   UNL     1       4.641   4.053  18.817  0.00  0.00    +0.000 C 
ATOM      5  C   UNL     1       3.840   4.232  17.498  0.00  0.00    +0.000 C 
ATOM      6  O   UNL     1       4.699   4.239  16.335  0.00  0.00    +0.000 OA
ENDROOT
BRANCH   4   7
ATOM      7  N   UNL     1       3.829   4.175  20.027  0.00  0.00    +0.000 N 
ATOM      8  C   UNL     1       2.969   3.182  20.448  0.00  0.00    +0.000 C 
ATOM      9  C   UNL     1       2.203   3.502  21.702  0.00  0.00    +0.000 C 
ATOM     10  O   UNL     1       2.817   2.143  19.824  0.00  0.00    +0.000 OA
ATOM     11  H   UNL     1       3.889   5.040  20.561  0.00  0.00    +0.000 HD
ENDBRANCH   4   7
BRANCH   1  12
ATOM     12  C   UNL     1       5.554   6.619  16.052  0.00  0.00    +0.000 C 
ATOM     13  O   UNL     1       4.815   6.991  15.145  0.00  0.00    +0.000 OA
BRANCH  12  14
ATOM     14  O   UNL     1       6.124   7.539  16.866  0.00  0.00    +0.000 OA
ATOM     15  H   UNL     1       6.623   8.277  16.474  0.00  0.00    +0.000 HD
ENDBRANCH  12  14
ENDBRANCH   1  12
BRANCH   3  16
ATOM     16  O   UNL     1       6.710   4.688  19.980  0.00  0.00    +0.000 OA
ATOM     17  H   UNL     1       6.167   4.324  20.702  0.00  0.00    +0.000 HD
ENDBRANCH   3  16
BRANCH   1  18
ATOM     18  S   UNL     1       6.935   4.637  14.857  0.00  0.00    +0.000 S 
BRANCH  18  19
ATOM     19  C   UNL     1       5.788   3.708  13.786  0.00  0.00    +0.000 C 
BRANCH  19  20
ATOM     20  C   UNL     1       6.467   3.510  12.425  0.00  0.00    +0.000 C 
BRANCH  20  21
ATOM     21  C   UNL     1       5.696   2.532  11.537  0.00  0.00    +0.000 C 
BRANCH  21  23
ATOM     22  C   UNL     1       6.176   0.080  11.237  0.00  0.00    +0.000 C 
ATOM     23  C   UNL     1       6.557   1.363  11.153  0.00  0.00    +0.000 C 
ENDBRANCH  21  23
ENDBRANCH  20  21
ENDBRANCH  19  20
ENDBRANCH  18  19
ENDBRANCH   1  18
BRANCH   5  24
ATOM     24  C   UNL     1       2.808   5.397  17.494  0.00  0.00    +0.000 C 
BRANCH  24  25
ATOM     25  O   UNL     1       1.488   4.886  17.712  0.00  0.00    +0.000 OA
ATOM     26  H   UNL     1       1.239   5.130  18.635  0.00  0.00    +0.000 HD
ENDBRANCH  24  25
BRANCH  24  27
ATOM     27  C   UNL     1       3.133   6.525  18.508  0.00  0.00    +0.000 C 
BRANCH  27  28
ATOM     28  O   UNL     1       2.234   6.418  19.632  0.00  0.00    +0.000 OA
ATOM     29  H   UNL     1       1.590   5.711  19.451  0.00  0.00    +0.000 HD
ENDBRANCH  27  28
BRANCH  27  30
ATOM     30  C   UNL     1       2.985   7.931  17.912  0.00  0.00    +0.000 C 
BRANCH  30  31
ATOM     31  O   UNL     1       1.933   8.643  18.560  0.00  0.00    +0.000 OA
ATOM     32  H   UNL     1       2.104   9.596  18.429  0.00  0.00    +0.000 HD
ENDBRANCH  30  31
ENDBRANCH  27  30
ENDBRANCH  24  27
ENDBRANCH   5  24
TORSDOF 15
ENDMDL
MODEL 8
REMARK VINA RESULT:      -6.0      1.257      1.843
REMARK  Name = 
REMARK  16 active torsions:
REMARK  status: ('A' for Active; 'I' for Inactive)
REMARK    1  A    between atoms: C_2  and  C_3
REMARK    2  A    between atoms: C_3  and  C_4
REMARK    3  A    between atoms: C_4  and  C_5
REMARK    4  A    between atoms: C_5  and  S_6
REMARK    5  A    between atoms: S_6  and  C_7
REMARK    6  A    between atoms: C_7  and  C_8
REMARK    7  A    between atoms: C_8  and  O_10
REMARK    8  A    between atoms: C_12  and  O_13
REMARK    9  A    between atoms: C_14  and  N_15
REMARK   10  A    between atoms: C_16  and  C_17
REMARK   11  A    between atoms: C_19  and  C_20
REMARK   12  A    between atoms: C_20  and  O_21
REMARK   13  A    between atoms: C_20  and  C_22
REMARK   14  A    between atoms: C_22  and  O_23
REMARK   15  A    between atoms: C_22  and  C_24
REMARK   16  A    between atoms: C_24  and  O_25
REMARK                            x       y       z     vdW  Elec       q    Type
REMARK                         _______ _______ _______ _____ _____    ______ ____
ROOT
ATOM      1  C   UNL     1       5.960   5.128  16.421  0.00  0.00    +0.000 C 
ATOM      2  C   UNL     1       6.775   4.919  17.694  0.00  0.00    +0.000 C 
ATOM      3  C   UNL     1       5.906   5.049  18.936  0.00  0.00    +0.000 C 
ATOM      4  C   UNL     1       4.731   4.063  18.870  0.00  0.00    +0.000 C 
ATOM      5  C   UNL     1       3.962   4.186  17.525  0.00  0.00    +0.000 C 
ATOM      6  O   UNL     1       4.854   4.220  16.388  0.00  0.00    +0.000 OA
ENDROOT
BRANCH   4   7
ATOM      7  N   UNL     1       3.879   4.159  20.053  0.00  0.00    +0.000 N 
ATOM      8  C   UNL     1       3.022   3.148  20.437  0.00  0.00    +0.000 C 
ATOM      9  C   UNL     1       2.211   3.444  21.669  0.00  0.00    +0.000 C 
ATOM     10  O   UNL     1       2.908   2.114  19.799  0.00  0.00    +0.000 OA
ATOM     11  H   UNL     1       3.907   5.020  20.597  0.00  0.00    +0.000 HD
ENDBRANCH   4   7
BRANCH   1  12
ATOM     12  C   UNL     1       5.599   6.636  16.097  0.00  0.00    +0.000 C 
ATOM     13  O   UNL     1       4.827   6.957  15.199  0.00  0.00    +0.000 OA
BRANCH  12  14
ATOM     14  O   UNL     1       6.151   7.597  16.876  0.00  0.00    +0.000 OA
ATOM     15  H   UNL     1       6.959   7.393  17.381  0.00  0.00    +0.000 HD
ENDBRANCH  12  14
ENDBRANCH   1  12
BRANCH   3  16
ATOM     16  O   UNL     1       6.731   4.813  20.083  0.00  0.00    +0.000 OA
ATOM     17  H   UNL     1       7.639   4.626  19.788  0.00  0.00    +0.000 HD
ENDBRANCH   3  16
BRANCH   1  18
ATOM     18  S   UNL     1       7.110   4.710  14.970  0.00  0.00    +0.000 S 
BRANCH  18  19
ATOM     19  C   UNL     1       6.176   3.430  14.066  0.00  0.00    +0.000 C 
BRANCH  19  20
ATOM     20  C   UNL     1       5.419   4.116  12.922  0.00  0.00    +0.000 C 
BRANCH  20  21
ATOM     21  C   UNL     1       5.136   3.155  11.766  0.00  0.00    +0.000 C 
BRANCH  21  23
ATOM     22  C   UNL     1       3.368   3.687  10.056  0.00  0.00    +0.000 C 
ATOM     23  C   UNL     1       3.719   3.293  11.290  0.00  0.00    +0.000 C 
ENDBRANCH  21  23
ENDBRANCH  20  21
ENDBRANCH  19  20
ENDBRANCH  18  19
ENDBRANCH   1  18
BRANCH   5  24
ATOM     24  C   UNL     1       2.875   5.299  17.475  0.00  0.00    +0.000 C 
BRANCH  24  25
ATOM     25  O   UNL     1       1.577   4.728  17.676  0.00  0.00    +0.000 OA
ATOM     26  H   UNL     1       1.718   3.819  18.030  0.00  0.00    +0.000 HD
ENDBRANCH  24  25
BRANCH  24  27
ATOM     27  C   UNL     1       3.123   6.461  18.472  0.00  0.00    +0.000 C 
BRANCH  27  28
ATOM     28  O   UNL     1       2.236   6.307  19.601  0.00  0.00    +0.000 OA
ATOM     29  H   UNL     1       2.631   5.673  20.225  0.00  0.00    +0.000 HD
ENDBRANCH  27  28
BRANCH  27  30
ATOM     30  C   UNL     1       2.874   7.845  17.857  0.00  0.00    +0.000 C 
BRANCH  30  31
ATOM     31  O   UNL     1       2.111   8.660  18.745  0.00  0.00    +0.000 OA
ATOM     32  H   UNL     1       1.298   8.164  18.965  0.00  0.00    +0.000 HD
ENDBRANCH  30  31
ENDBRANCH  27  30
ENDBRANCH  24  27
ENDBRANCH   5  24
TORSDOF 15
ENDMDL
MODEL 9
REMARK VINA RESULT:      -6.0      1.243      1.890
REMARK  Name = 
REMARK  16 active torsions:
REMARK  status: ('A' for Active; 'I' for Inactive)
REMARK    1  A    between atoms: C_2  and  C_3
REMARK    2  A    between atoms: C_3  and  C_4
REMARK    3  A    between atoms: C_4  and  C_5
REMARK    4  A    between atoms: C_5  and  S_6
REMARK    5  A    between atoms: S_6  and  C_7
REMARK    6  A    between atoms: C_7  and  C_8
REMARK    7  A    between atoms: C_8  and  O_10
REMARK    8  A    between atoms: C_12  and  O_13
REMARK    9  A    between atoms: C_14  and  N_15
REMARK   10  A    between atoms: C_16  and  C_17
REMARK   11  A    between atoms: C_19  and  C_20
REMARK   12  A    between atoms: C_20  and  O_21
REMARK   13  A    between atoms: C_20  and  C_22
REMARK   14  A    between atoms: C_22  and  O_23
REMARK   15  A    between atoms: C_22  and  C_24
REMARK   16  A    between atoms: C_24  and  O_25
REMARK                            x       y       z     vdW  Elec       q    Type
REMARK                         _______ _______ _______ _____ _____    ______ ____
ROOT
ATOM      1  C   UNL     1       5.787   4.556  16.061  0.00  0.00    +0.000 C 
ATOM      2  C   UNL     1       5.324   3.146  16.412  0.00  0.00    +0.000 C 
ATOM      3  C   UNL     1       4.536   3.131  17.714  0.00  0.00    +0.000 C 
ATOM      4  C   UNL     1       3.344   4.094  17.628  0.00  0.00    +0.000 C 
ATOM      5  C   UNL     1       3.788   5.507  17.158  0.00  0.00    +0.000 C 
ATOM      6  O   UNL     1       4.667   5.447  16.012  0.00  0.00    +0.000 OA
ENDROOT
BRANCH   4   7
ATOM      7  N   UNL     1       2.564   4.098  18.865  0.00  0.00    +0.000 N 
ATOM      8  C   UNL     1       1.444   3.311  19.040  0.00  0.00    +0.000 C 
ATOM      9  C   UNL     1       0.763   3.472  20.371  0.00  0.00    +0.000 C 
ATOM     10  O   UNL     1       1.022   2.575  18.162  0.00  0.00    +0.000 OA
ATOM     11  H   UNL     1       2.852   4.726  19.613  0.00  0.00    +0.000 HD
ENDBRANCH   4   7
BRANCH   1  12
ATOM     12  C   UNL     1       7.025   5.083  16.896  0.00  0.00    +0.000 C 
ATOM     13  O   UNL     1       7.426   4.527  17.915  0.00  0.00    +0.000 OA
BRANCH  12  14
ATOM     14  O   UNL     1       7.679   6.175  16.433  0.00  0.00    +0.000 OA
ATOM     15  H   UNL     1       7.606   7.015  16.920  0.00  0.00    +0.000 HD
ENDBRANCH  12  14
ENDBRANCH   1  12
BRANCH   3  16
ATOM     16  O   UNL     1       4.112   1.785  17.962  0.00  0.00    +0.000 OA
ATOM     17  H   UNL     1       4.070   1.637  18.923  0.00  0.00    +0.000 HD
ENDBRANCH   3  16
BRANCH   1  18
ATOM     18  S   UNL     1       6.539   4.458  14.321  0.00  0.00    +0.000 S 
BRANCH  18  19
ATOM     19  C   UNL     1       5.243   3.603  13.364  0.00  0.00    +0.000 C 
BRANCH  19  20
ATOM     20  C   UNL     1       5.701   3.535  11.902  0.00  0.00    +0.000 C 
BRANCH  20  21
ATOM     21  C   UNL     1       7.148   3.055  11.776  0.00  0.00    +0.000 C 
BRANCH  21  23
ATOM     22  C   UNL     1       6.251   0.810  11.078  0.00  0.00    +0.000 C 
ATOM     23  C   UNL     1       7.216   1.741  11.053  0.00  0.00    +0.000 C 
ENDBRANCH  21  23
ENDBRANCH  20  21
ENDBRANCH  19  20
ENDBRANCH  18  19
ENDBRANCH   1  18
BRANCH   5  24
ATOM     24  C   UNL     1       4.317   6.450  18.277  0.00  0.00    +0.000 C 
BRANCH  24  25
ATOM     25  O   UNL     1       5.416   7.226  17.787  0.00  0.00    +0.000 OA
ATOM     26  H   UNL     1       6.206   6.966  18.317  0.00  0.00    +0.000 HD
ENDBRANCH  24  25
BRANCH  24  27
ATOM     27  C   UNL     1       3.227   7.368  18.888  0.00  0.00    +0.000 C 
BRANCH  27  28
ATOM     28  O   UNL     1       2.644   6.706  20.032  0.00  0.00    +0.000 OA
ATOM     29  H   UNL     1       3.265   6.027  20.350  0.00  0.00    +0.000 HD
ENDBRANCH  27  28
BRANCH  27  30
ATOM     30  C   UNL     1       2.097   7.700  17.904  0.00  0.00    +0.000 C 
BRANCH  30  31
ATOM     31  O   UNL     1       2.198   9.052  17.461  0.00  0.00    +0.000 OA
ATOM     32  H   UNL     1       1.374   9.261  16.979  0.00  0.00    +0.000 HD
ENDBRANCH  30  31
ENDBRANCH  27  30
ENDBRANCH  24  27
ENDBRANCH   5  24
TORSDOF 15
ENDMDL
