MODEL 1
REMARK VINA RESULT:      -8.4      0.000      0.000
REMARK  Name = 
REMARK  13 active torsions:
REMARK  status: ('A' for Active; 'I' for Inactive)
REMARK    1  A    between atoms: C_1  and  O_2
REMARK    2  A    between atoms: O_2  and  C_3
REMARK    3  A    between atoms: C_5  and  N_6
REMARK    4  A    between atoms: N_6  and  C_7
REMARK    5  A    between atoms: C_7  and  C_8
REMARK    6  A    between atoms: C_7  and  C_9
REMARK    7  A    between atoms: C_9  and  C_10
REMARK    8  A    between atoms: C_10  and  C_11
REMARK    9  A    between atoms: C_11  and  N_12
REMARK   10  A    between atoms: C_13  and  C_15
REMARK   11  A    between atoms: C_16  and  C_17
REMARK   12  A    between atoms: C_22  and  C_23
REMARK   13  A    between atoms: C_24  and  C_25
REMARK                            x       y       z     vdW  Elec       q    Type
REMARK                         _______ _______ _______ _____ _____    ______ ____
ROOT
ATOM      1  C   UNL     1       1.790   3.828  21.281  0.00  0.00    +0.000 C 
ENDROOT
BRANCH   1   2
ATOM      2  N   UNL     1       1.416   5.163  20.871  0.00  0.00    +0.000 N 
ATOM      3  C   UNL     1       2.353   6.047  20.404  0.00  0.00    +0.000 C 
ATOM      4  O   UNL     1       3.544   5.773  20.321  0.00  0.00    +0.000 OA
ATOM      5  H   UNL     1       0.580   5.590  21.289  0.00  0.00    +0.000 HD
BRANCH   3   6
ATOM      6  C   UNL     1       1.866   7.368  19.950  0.00  0.00    +0.000 A 
ATOM      7  C   UNL     1       2.248   7.887  18.700  0.00  0.00    +0.000 A 
ATOM      8  C   UNL     1       3.068   7.162  17.674  0.00  0.00    +0.000 C 
ATOM      9  N   UNL     1       1.847   9.165  18.339  0.00  0.00    +0.000 N 
ATOM     10  O   UNL     1       2.203   9.655  17.216  0.00  0.00    +0.000 OA
ATOM     11  C   UNL     1       1.038   9.931  19.210  0.00  0.00    +0.000 A 
ATOM     12  C   UNL     1       0.630  11.233  18.865  0.00  0.00    +0.000 A 
ATOM     13  C   UNL     1      -0.174  12.017  19.708  0.00  0.00    +0.000 A 
ATOM     14  C   UNL     1      -0.559  13.401  19.257  0.00  0.00    +0.000 C 
ATOM     15  C   UNL     1      -0.590  11.485  20.935  0.00  0.00    +0.000 A 
ATOM     16  C   UNL     1      -1.439  12.246  21.916  0.00  0.00    +0.000 C 
ATOM     17  C   UNL     1      -0.195  10.179  21.281  0.00  0.00    +0.000 A 
ATOM     18  C   UNL     1       0.623   9.383  20.439  0.00  0.00    +0.000 A 
ATOM     19  N   UNL     1       1.027   8.081  20.805  0.00  0.00    +0.000 N 
ATOM     20  O   UNL     1       0.608   7.588  21.915  0.00  0.00    +0.000 OA
ENDBRANCH   3   6
ENDBRANCH   1   2
BRANCH   1  21
ATOM     21  C   UNL     1       1.262   2.824  20.276  0.00  0.00    +0.000 C 
BRANCH  21  22
ATOM     22  C   UNL     1       2.378   2.277  19.388  0.00  0.00    +0.000 C 
BRANCH  22  23
ATOM     23  C   UNL     1       2.929   3.310  18.393  0.00  0.00    +0.000 C 
ATOM     24  C   UNL     1       1.920   3.656  17.297  0.00  0.00    +0.000 C 
BRANCH  23  25
ATOM     25  N   UNL     1       4.190   2.803  17.843  0.00  0.00    +0.000 N 
ATOM     26  H   UNL     1       4.165   1.843  17.490  0.00  0.00    +0.000 HD
BRANCH  25  29
ATOM     27  C   UNL     1       5.603   4.271  14.725  0.00  0.00    +0.000 A 
ATOM     28  C   UNL     1       4.820   3.520  15.591  0.00  0.00    +0.000 A 
ATOM     29  C   UNL     1       4.994   3.581  16.981  0.00  0.00    +0.000 A 
ATOM     30  C   UNL     1       5.906   4.509  17.532  0.00  0.00    +0.000 A 
ATOM     31  N   UNL     1       6.042   4.630  18.876  0.00  0.00    +0.000 NA
ATOM     32  C   UNL     1       6.915   5.541  19.358  0.00  0.00    +0.000 A 
ATOM     33  C   UNL     1       7.702   6.354  18.563  0.00  0.00    +0.000 A 
ATOM     34  C   UNL     1       7.581   6.223  17.187  0.00  0.00    +0.000 A 
ATOM     35  C   UNL     1       6.676   5.299  16.646  0.00  0.00    +0.000 A 
ATOM     36  C   UNL     1       6.533   5.157  15.256  0.00  0.00    +0.000 A 
BRANCH  27  38
ATOM     37  C   UNL     1       6.720   3.806  12.685  0.00  0.00    +0.000 C 
ATOM     38  O   UNL     1       5.535   4.222  13.359  0.00  0.00    +0.000 OA
ENDBRANCH  27  38
ENDBRANCH  25  29
ENDBRANCH  23  25
ENDBRANCH  22  23
ENDBRANCH  21  22
ENDBRANCH   1  21
TORSDOF 8
ENDMDL
MODEL 2
REMARK VINA RESULT:      -8.4      1.895      2.991
REMARK  Name = 
REMARK  13 active torsions:
REMARK  status: ('A' for Active; 'I' for Inactive)
REMARK    1  A    between atoms: C_1  and  O_2
REMARK    2  A    between atoms: O_2  and  C_3
REMARK    3  A    between atoms: C_5  and  N_6
REMARK    4  A    between atoms: N_6  and  C_7
REMARK    5  A    between atoms: C_7  and  C_8
REMARK    6  A    between atoms: C_7  and  C_9
REMARK    7  A    between atoms: C_9  and  C_10
REMARK    8  A    between atoms: C_10  and  C_11
REMARK    9  A    between atoms: C_11  and  N_12
REMARK   10  A    between atoms: C_13  and  C_15
REMARK   11  A    between atoms: C_16  and  C_17
REMARK   12  A    between atoms: C_22  and  C_23
REMARK   13  A    between atoms: C_24  and  C_25
REMARK                            x       y       z     vdW  Elec       q    Type
REMARK                         _______ _______ _______ _____ _____    ______ ____
ROOT
ATOM      1  C   UNL     1       2.568   7.340  19.107  0.00  0.00    +0.000 C 
ENDROOT
BRANCH   1   2
ATOM      2  N   UNL     1       1.532   8.256  19.529  0.00  0.00    +0.000 N 
ATOM      3  C   UNL     1       1.293   9.418  18.844  0.00  0.00    +0.000 C 
ATOM      4  O   UNL     1       1.941   9.756  17.860  0.00  0.00    +0.000 OA
ATOM      5  H   UNL     1       1.259   8.266  20.520  0.00  0.00    +0.000 HD
BRANCH   3   6
ATOM      6  C   UNL     1       0.172  10.261  19.315  0.00  0.00    +0.000 A 
ATOM      7  C   UNL     1      -0.989  10.417  18.537  0.00  0.00    +0.000 A 
ATOM      8  C   UNL     1      -1.271   9.704  17.247  0.00  0.00    +0.000 C 
ATOM      9  N   UNL     1      -1.986  11.282  18.963  0.00  0.00    +0.000 N 
ATOM     10  O   UNL     1      -3.036  11.448  18.257  0.00  0.00    +0.000 OA
ATOM     11  C   UNL     1      -1.849  11.982  20.184  0.00  0.00    +0.000 A 
ATOM     12  C   UNL     1      -2.845  12.871  20.628  0.00  0.00    +0.000 A 
ATOM     13  C   UNL     1      -2.738  13.578  21.836  0.00  0.00    +0.000 A 
ATOM     14  C   UNL     1      -3.853  14.511  22.229  0.00  0.00    +0.000 C 
ATOM     15  C   UNL     1      -1.601  13.391  22.632  0.00  0.00    +0.000 A 
ATOM     16  C   UNL     1      -1.381  14.111  23.935  0.00  0.00    +0.000 C 
ATOM     17  C   UNL     1      -0.606  12.495  22.200  0.00  0.00    +0.000 A 
ATOM     18  C   UNL     1      -0.703  11.782  20.978  0.00  0.00    +0.000 A 
ATOM     19  N   UNL     1       0.310  10.899  20.548  0.00  0.00    +0.000 N 
ATOM     20  O   UNL     1       1.330  10.704  21.303  0.00  0.00    +0.000 OA
ENDBRANCH   3   6
ENDBRANCH   1   2
BRANCH   1  21
ATOM     21  C   UNL     1       1.981   5.953  18.946  0.00  0.00    +0.000 C 
BRANCH  21  22
ATOM     22  C   UNL     1       2.785   4.910  19.720  0.00  0.00    +0.000 C 
BRANCH  22  23
ATOM     23  C   UNL     1       2.872   3.552  19.006  0.00  0.00    +0.000 C 
ATOM     24  C   UNL     1       2.199   2.433  19.802  0.00  0.00    +0.000 C 
BRANCH  23  25
ATOM     25  N   UNL     1       4.282   3.260  18.727  0.00  0.00    +0.000 N 
ATOM     26  H   UNL     1       4.530   2.268  18.693  0.00  0.00    +0.000 HD
BRANCH  25  29
ATOM     27  C   UNL     1       5.320   4.475  15.363  0.00  0.00    +0.000 A 
ATOM     28  C   UNL     1       4.626   3.821  16.371  0.00  0.00    +0.000 A 
ATOM     29  C   UNL     1       4.998   3.940  17.718  0.00  0.00    +0.000 A 
ATOM     30  C   UNL     1       6.031   4.834  18.082  0.00  0.00    +0.000 A 
ATOM     31  N   UNL     1       6.362   5.013  19.384  0.00  0.00    +0.000 NA
ATOM     32  C   UNL     1       7.345   5.889  19.687  0.00  0.00    +0.000 A 
ATOM     33  C   UNL     1       8.056   6.609  18.744  0.00  0.00    +0.000 A 
ATOM     34  C   UNL     1       7.735   6.417  17.408  0.00  0.00    +0.000 A 
ATOM     35  C   UNL     1       6.711   5.527  17.053  0.00  0.00    +0.000 A 
ATOM     36  C   UNL     1       6.365   5.325  15.707  0.00  0.00    +0.000 A 
BRANCH  27  38
ATOM     37  C   UNL     1       6.052   3.707  13.241  0.00  0.00    +0.000 C 
ATOM     38  O   UNL     1       5.057   4.362  14.024  0.00  0.00    +0.000 OA
ENDBRANCH  27  38
ENDBRANCH  25  29
ENDBRANCH  23  25
ENDBRANCH  22  23
ENDBRANCH  21  22
ENDBRANCH   1  21
TORSDOF 8
ENDMDL
MODEL 3
REMARK VINA RESULT:      -8.1      2.181      9.001
REMARK  Name = 
REMARK  13 active torsions:
REMARK  status: ('A' for Active; 'I' for Inactive)
REMARK    1  A    between atoms: C_1  and  O_2
REMARK    2  A    between atoms: O_2  and  C_3
REMARK    3  A    between atoms: C_5  and  N_6
REMARK    4  A    between atoms: N_6  and  C_7
REMARK    5  A    between atoms: C_7  and  C_8
REMARK    6  A    between atoms: C_7  and  C_9
REMARK    7  A    between atoms: C_9  and  C_10
REMARK    8  A    between atoms: C_10  and  C_11
REMARK    9  A    between atoms: C_11  and  N_12
REMARK   10  A    between atoms: C_13  and  C_15
REMARK   11  A    between atoms: C_16  and  C_17
REMARK   12  A    between atoms: C_22  and  C_23
REMARK   13  A    between atoms: C_24  and  C_25
REMARK                            x       y       z     vdW  Elec       q    Type
REMARK                         _______ _______ _______ _____ _____    ______ ____
ROOT
ATOM      1  C   UNL     1       2.370   5.163  20.824  0.00  0.00    +0.000 C 
ENDROOT
BRANCH   1   2
ATOM      2  N   UNL     1       3.294   5.269  19.717  0.00  0.00    +0.000 N 
ATOM      3  C   UNL     1       4.085   4.211  19.352  0.00  0.00    +0.000 C 
ATOM      4  O   UNL     1       4.072   3.136  19.941  0.00  0.00    +0.000 OA
ATOM      5  H   UNL     1       3.660   6.197  19.470  0.00  0.00    +0.000 HD
BRANCH   3   6
ATOM      6  C   UNL     1       4.953   4.395  18.169  0.00  0.00    +0.000 A 
ATOM      7  C   UNL     1       6.177   5.079  18.271  0.00  0.00    +0.000 A 
ATOM      8  C   UNL     1       6.781   5.593  19.545  0.00  0.00    +0.000 C 
ATOM      9  N   UNL     1       6.928   5.312  17.128  0.00  0.00    +0.000 N 
ATOM     10  O   UNL     1       8.030   5.949  17.203  0.00  0.00    +0.000 OA
ATOM     11  C   UNL     1       6.478   4.841  15.872  0.00  0.00    +0.000 A 
ATOM     12  C   UNL     1       7.221   5.076  14.699  0.00  0.00    +0.000 A 
ATOM     13  C   UNL     1       6.802   4.620  13.440  0.00  0.00    +0.000 A 
ATOM     14  C   UNL     1       7.660   4.921  12.240  0.00  0.00    +0.000 C 
ATOM     15  C   UNL     1       5.604   3.901  13.344  0.00  0.00    +0.000 A 
ATOM     16  C   UNL     1       5.058   3.382  12.041  0.00  0.00    +0.000 C 
ATOM     17  C   UNL     1       4.861   3.653  14.513  0.00  0.00    +0.000 A 
ATOM     18  C   UNL     1       5.274   4.116  15.788  0.00  0.00    +0.000 A 
ATOM     19  N   UNL     1       4.512   3.875  16.952  0.00  0.00    +0.000 N 
ATOM     20  O   UNL     1       3.435   3.182  16.859  0.00  0.00    +0.000 OA
ENDBRANCH   3   6
ENDBRANCH   1   2
BRANCH   1  21
ATOM     21  C   UNL     1       1.274   6.197  20.668  0.00  0.00    +0.000 C 
BRANCH  21  22
ATOM     22  C   UNL     1       1.845   7.580  20.365  0.00  0.00    +0.000 C 
BRANCH  22  23
ATOM     23  C   UNL     1       1.162   8.710  21.150  0.00  0.00    +0.000 C 
ATOM     24  C   UNL     1      -0.259   8.341  21.579  0.00  0.00    +0.000 C 
BRANCH  23  25
ATOM     25  N   UNL     1       1.195   9.931  20.339  0.00  0.00    +0.000 N 
ATOM     26  H   UNL     1       1.991  10.017  19.702  0.00  0.00    +0.000 HD
BRANCH  25  29
ATOM     27  C   UNL     1      -1.527  10.347  17.832  0.00  0.00    +0.000 A 
ATOM     28  C   UNL     1      -0.400   9.869  18.486  0.00  0.00    +0.000 A 
ATOM     29  C   UNL     1       0.043  10.429  19.693  0.00  0.00    +0.000 A 
ATOM     30  C   UNL     1      -0.731  11.428  20.327  0.00  0.00    +0.000 A 
ATOM     31  N   UNL     1      -0.355  11.935  21.527  0.00  0.00    +0.000 NA
ATOM     32  C   UNL     1      -1.133  12.878  22.102  0.00  0.00    +0.000 A 
ATOM     33  C   UNL     1      -2.291  13.378  21.533  0.00  0.00    +0.000 A 
ATOM     34  C   UNL     1      -2.672  12.875  20.298  0.00  0.00    +0.000 A 
ATOM     35  C   UNL     1      -1.899  11.886  19.673  0.00  0.00    +0.000 A 
ATOM     36  C   UNL     1      -2.272  11.359  18.426  0.00  0.00    +0.000 A 
BRANCH  27  38
ATOM     37  C   UNL     1      -2.758  10.819  15.859  0.00  0.00    +0.000 C 
ATOM     38  O   UNL     1      -1.987   9.895  16.624  0.00  0.00    +0.000 OA
ENDBRANCH  27  38
ENDBRANCH  25  29
ENDBRANCH  23  25
ENDBRANCH  22  23
ENDBRANCH  21  22
ENDBRANCH   1  21
TORSDOF 8
ENDMDL
MODEL 4
REMARK VINA RESULT:      -8.0      2.314      9.368
REMARK  Name = 
REMARK  13 active torsions:
REMARK  status: ('A' for Active; 'I' for Inactive)
REMARK    1  A    between atoms: C_1  and  O_2
REMARK    2  A    between atoms: O_2  and  C_3
REMARK    3  A    between atoms: C_5  and  N_6
REMARK    4  A    between atoms: N_6  and  C_7
REMARK    5  A    between atoms: C_7  and  C_8
REMARK    6  A    between atoms: C_7  and  C_9
REMARK    7  A    between atoms: C_9  and  C_10
REMARK    8  A    between atoms: C_10  and  C_11
REMARK    9  A    between atoms: C_11  and  N_12
REMARK   10  A    between atoms: C_13  and  C_15
REMARK   11  A    between atoms: C_16  and  C_17
REMARK   12  A    between atoms: C_22  and  C_23
REMARK   13  A    between atoms: C_24  and  C_25
REMARK                            x       y       z     vdW  Elec       q    Type
REMARK                         _______ _______ _______ _____ _____    ______ ____
ROOT
ATOM      1  C   UNL     1       2.150   5.046  20.612  0.00  0.00    +0.000 C 
ENDROOT
BRANCH   1   2
ATOM      2  N   UNL     1       3.086   5.165  19.517  0.00  0.00    +0.000 N 
ATOM      3  C   UNL     1       4.083   4.243  19.335  0.00  0.00    +0.000 C 
ATOM      4  O   UNL     1       4.250   3.287  20.084  0.00  0.00    +0.000 OA
ATOM      5  H   UNL     1       3.278   6.099  19.133  0.00  0.00    +0.000 HD
BRANCH   3   6
ATOM      6  C   UNL     1       4.953   4.414  18.151  0.00  0.00    +0.000 A 
ATOM      7  C   UNL     1       6.183   5.086  18.252  0.00  0.00    +0.000 A 
ATOM      8  C   UNL     1       6.792   5.597  19.524  0.00  0.00    +0.000 C 
ATOM      9  N   UNL     1       6.937   5.308  17.108  0.00  0.00    +0.000 N 
ATOM     10  O   UNL     1       8.046   5.934  17.182  0.00  0.00    +0.000 OA
ATOM     11  C   UNL     1       6.483   4.838  15.853  0.00  0.00    +0.000 A 
ATOM     12  C   UNL     1       7.228   5.063  14.680  0.00  0.00    +0.000 A 
ATOM     13  C   UNL     1       6.805   4.607  13.422  0.00  0.00    +0.000 A 
ATOM     14  C   UNL     1       7.666   4.896  12.221  0.00  0.00    +0.000 C 
ATOM     15  C   UNL     1       5.599   3.900  13.327  0.00  0.00    +0.000 A 
ATOM     16  C   UNL     1       5.049   3.383  12.026  0.00  0.00    +0.000 C 
ATOM     17  C   UNL     1       4.854   3.663  14.497  0.00  0.00    +0.000 A 
ATOM     18  C   UNL     1       5.271   4.125  15.771  0.00  0.00    +0.000 A 
ATOM     19  N   UNL     1       4.506   3.895  16.935  0.00  0.00    +0.000 N 
ATOM     20  O   UNL     1       3.422   3.213  16.844  0.00  0.00    +0.000 OA
ENDBRANCH   3   6
ENDBRANCH   1   2
BRANCH   1  21
ATOM     21  C   UNL     1       1.187   6.215  20.583  0.00  0.00    +0.000 C 
BRANCH  21  22
ATOM     22  C   UNL     1       1.906   7.529  20.288  0.00  0.00    +0.000 C 
BRANCH  22  23
ATOM     23  C   UNL     1       1.191   8.760  20.864  0.00  0.00    +0.000 C 
ATOM     24  C   UNL     1      -0.095   8.391  21.604  0.00  0.00    +0.000 C 
BRANCH  23  25
ATOM     25  N   UNL     1       0.949   9.714  19.777  0.00  0.00    +0.000 N 
ATOM     26  H   UNL     1       1.002   9.328  18.831  0.00  0.00    +0.000 HD
BRANCH  25  29
ATOM     27  C   UNL     1      -1.173  12.564  20.892  0.00  0.00    +0.000 A 
ATOM     28  C   UNL     1      -0.141  11.638  20.820  0.00  0.00    +0.000 A 
ATOM     29  C   UNL     1      -0.108  10.649  19.827  0.00  0.00    +0.000 A 
ATOM     30  C   UNL     1      -1.080  10.654  18.802  0.00  0.00    +0.000 A 
ATOM     31  N   UNL     1      -1.027   9.746  17.795  0.00  0.00    +0.000 NA
ATOM     32  C   UNL     1      -1.969   9.798  16.828  0.00  0.00    +0.000 A 
ATOM     33  C   UNL     1      -3.006  10.713  16.807  0.00  0.00    +0.000 A 
ATOM     34  C   UNL     1      -3.076  11.634  17.842  0.00  0.00    +0.000 A 
ATOM     35  C   UNL     1      -2.110  11.623  18.858  0.00  0.00    +0.000 A 
ATOM     36  C   UNL     1      -2.158  12.551  19.911  0.00  0.00    +0.000 A 
BRANCH  27  38
ATOM     37  C   UNL     1      -1.348  13.047  23.207  0.00  0.00    +0.000 C 
ATOM     38  O   UNL     1      -1.309  13.519  21.863  0.00  0.00    +0.000 OA
ENDBRANCH  27  38
ENDBRANCH  25  29
ENDBRANCH  23  25
ENDBRANCH  22  23
ENDBRANCH  21  22
ENDBRANCH   1  21
TORSDOF 8
ENDMDL
MODEL 5
REMARK VINA RESULT:      -8.0      3.536      5.369
REMARK  Name = 
REMARK  13 active torsions:
REMARK  status: ('A' for Active; 'I' for Inactive)
REMARK    1  A    between atoms: C_1  and  O_2
REMARK    2  A    between atoms: O_2  and  C_3
REMARK    3  A    between atoms: C_5  and  N_6
REMARK    4  A    between atoms: N_6  and  C_7
REMARK    5  A    between atoms: C_7  and  C_8
REMARK    6  A    between atoms: C_7  and  C_9
REMARK    7  A    between atoms: C_9  and  C_10
REMARK    8  A    between atoms: C_10  and  C_11
REMARK    9  A    between atoms: C_11  and  N_12
REMARK   10  A    between atoms: C_13  and  C_15
REMARK   11  A    between atoms: C_16  and  C_17
REMARK   12  A    between atoms: C_22  and  C_23
REMARK   13  A    between atoms: C_24  and  C_25
REMARK                            x       y       z     vdW  Elec       q    Type
REMARK                         _______ _______ _______ _____ _____    ______ ____
ROOT
ATOM      1  C   UNL     1       1.035   9.748  20.969  0.00  0.00    +0.000 C 
ENDROOT
BRANCH   1   2
ATOM      2  N   UNL     1      -0.287  10.117  20.515  0.00  0.00    +0.000 N 
ATOM      3  C   UNL     1      -0.466  11.118  19.597  0.00  0.00    +0.000 C 
ATOM      4  O   UNL     1       0.465  11.761  19.124  0.00  0.00    +0.000 OA
ATOM      5  H   UNL     1      -1.086   9.946  21.139  0.00  0.00    +0.000 HD
BRANCH   3   6
ATOM      6  C   UNL     1      -1.850  11.382  19.148  0.00  0.00    +0.000 A 
ATOM      7  C   UNL     1      -2.331  10.846  17.940  0.00  0.00    +0.000 A 
ATOM      8  C   UNL     1      -1.579   9.901  17.050  0.00  0.00    +0.000 C 
ATOM      9  N   UNL     1      -3.603  11.183  17.502  0.00  0.00    +0.000 N 
ATOM     10  O   UNL     1      -4.045  10.719  16.398  0.00  0.00    +0.000 OA
ATOM     11  C   UNL     1      -4.421  12.038  18.276  0.00  0.00    +0.000 A 
ATOM     12  C   UNL     1      -5.711  12.398  17.843  0.00  0.00    +0.000 A 
ATOM     13  C   UNL     1      -6.547  13.243  18.591  0.00  0.00    +0.000 A 
ATOM     14  C   UNL     1      -7.910  13.577  18.047  0.00  0.00    +0.000 C 
ATOM     15  C   UNL     1      -6.084  13.744  19.814  0.00  0.00    +0.000 A 
ATOM     16  C   UNL     1      -6.893  14.668  20.684  0.00  0.00    +0.000 C 
ATOM     17  C   UNL     1      -4.800  13.379  20.259  0.00  0.00    +0.000 A 
ATOM     18  C   UNL     1      -3.947  12.532  19.507  0.00  0.00    +0.000 A 
ATOM     19  N   UNL     1      -2.654  12.186  19.956  0.00  0.00    +0.000 N 
ATOM     20  O   UNL     1      -2.254  12.619  21.097  0.00  0.00    +0.000 OA
ENDBRANCH   3   6
ENDBRANCH   1   2
BRANCH   1  21
ATOM     21  C   UNL     1       0.979   8.389  21.635  0.00  0.00    +0.000 C 
BRANCH  21  22
ATOM     22  C   UNL     1       1.219   7.261  20.634  0.00  0.00    +0.000 C 
BRANCH  22  23
ATOM     23  C   UNL     1       2.415   7.513  19.704  0.00  0.00    +0.000 C 
ATOM     24  C   UNL     1       1.990   7.672  18.243  0.00  0.00    +0.000 C 
BRANCH  23  25
ATOM     25  N   UNL     1       3.384   6.427  19.882  0.00  0.00    +0.000 N 
ATOM     26  H   UNL     1       3.325   5.923  20.770  0.00  0.00    +0.000 HD
BRANCH  25  29
ATOM     27  C   UNL     1       5.025   4.819  16.950  0.00  0.00    +0.000 A 
ATOM     28  C   UNL     1       4.735   5.713  17.972  0.00  0.00    +0.000 A 
ATOM     29  C   UNL     1       3.664   5.501  18.853  0.00  0.00    +0.000 A 
ATOM     30  C   UNL     1       2.926   4.299  18.781  0.00  0.00    +0.000 A 
ATOM     31  N   UNL     1       1.930   4.045  19.665  0.00  0.00    +0.000 NA
ATOM     32  C   UNL     1       1.260   2.876  19.568  0.00  0.00    +0.000 A 
ATOM     33  C   UNL     1       1.515   1.917  18.604  0.00  0.00    +0.000 A 
ATOM     34  C   UNL     1       2.522   2.177  17.685  0.00  0.00    +0.000 A 
ATOM     35  C   UNL     1       3.249   3.374  17.760  0.00  0.00    +0.000 A 
ATOM     36  C   UNL     1       4.277   3.652  16.844  0.00  0.00    +0.000 A 
BRANCH  27  38
ATOM     37  C   UNL     1       6.021   4.051  14.939  0.00  0.00    +0.000 C 
ATOM     38  O   UNL     1       6.011   4.985  16.016  0.00  0.00    +0.000 OA
ENDBRANCH  27  38
ENDBRANCH  25  29
ENDBRANCH  23  25
ENDBRANCH  22  23
ENDBRANCH  21  22
ENDBRANCH   1  21
TORSDOF 8
ENDMDL
MODEL 6
REMARK VINA RESULT:      -8.0      2.334      4.030
REMARK  Name = 
REMARK  13 active torsions:
REMARK  status: ('A' for Active; 'I' for Inactive)
REMARK    1  A    between atoms: C_1  and  O_2
REMARK    2  A    between atoms: O_2  and  C_3
REMARK    3  A    between atoms: C_5  and  N_6
REMARK    4  A    between atoms: N_6  and  C_7
REMARK    5  A    between atoms: C_7  and  C_8
REMARK    6  A    between atoms: C_7  and  C_9
REMARK    7  A    between atoms: C_9  and  C_10
REMARK    8  A    between atoms: C_10  and  C_11
REMARK    9  A    between atoms: C_11  and  N_12
REMARK   10  A    between atoms: C_13  and  C_15
REMARK   11  A    between atoms: C_16  and  C_17
REMARK   12  A    between atoms: C_22  and  C_23
REMARK   13  A    between atoms: C_24  and  C_25
REMARK                            x       y       z     vdW  Elec       q    Type
REMARK                         _______ _______ _______ _____ _____    ______ ____
ROOT
ATOM      1  C   UNL     1       2.071   7.462  20.144  0.00  0.00    +0.000 C 
ENDROOT
BRANCH   1   2
ATOM      2  N   UNL     1       1.065   8.462  20.424  0.00  0.00    +0.000 N 
ATOM      3  C   UNL     1       0.956   9.590  19.654  0.00  0.00    +0.000 C 
ATOM      4  O   UNL     1       1.700   9.825  18.709  0.00  0.00    +0.000 OA
ATOM      5  H   UNL     1       0.716   8.552  21.386  0.00  0.00    +0.000 HD
BRANCH   3   6
ATOM      6  C   UNL     1      -0.143  10.525  19.979  0.00  0.00    +0.000 A 
ATOM      7  C   UNL     1      -1.201  10.736  19.076  0.00  0.00    +0.000 A 
ATOM      8  C   UNL     1      -1.397  10.001  17.783  0.00  0.00    +0.000 C 
ATOM      9  N   UNL     1      -2.171  11.683  19.370  0.00  0.00    +0.000 N 
ATOM     10  O   UNL     1      -3.125  11.899  18.551  0.00  0.00    +0.000 OA
ATOM     11  C   UNL     1      -2.111  12.413  20.579  0.00  0.00    +0.000 A 
ATOM     12  C   UNL     1      -3.081  13.386  20.890  0.00  0.00    +0.000 A 
ATOM     13  C   UNL     1      -3.050  14.125  22.083  0.00  0.00    +0.000 A 
ATOM     14  C   UNL     1      -4.127  15.147  22.329  0.00  0.00    +0.000 C 
ATOM     15  C   UNL     1      -2.020  13.885  23.002  0.00  0.00    +0.000 A 
ATOM     16  C   UNL     1      -1.886  14.631  24.301  0.00  0.00    +0.000 C 
ATOM     17  C   UNL     1      -1.053  12.907  22.703  0.00  0.00    +0.000 A 
ATOM     18  C   UNL     1      -1.073  12.161  21.497  0.00  0.00    +0.000 A 
ATOM     19  N   UNL     1      -0.089  11.193  21.202  0.00  0.00    +0.000 N 
ATOM     20  O   UNL     1       0.829  10.954  22.068  0.00  0.00    +0.000 OA
ENDBRANCH   3   6
ENDBRANCH   1   2
BRANCH   1  21
ATOM     21  C   UNL     1       1.617   6.123  20.689  0.00  0.00    +0.000 C 
BRANCH  21  22
ATOM     22  C   UNL     1       2.556   4.996  20.264  0.00  0.00    +0.000 C 
BRANCH  22  23
ATOM     23  C   UNL     1       3.015   5.101  18.802  0.00  0.00    +0.000 C 
ATOM     24  C   UNL     1       1.978   4.544  17.826  0.00  0.00    +0.000 C 
BRANCH  23  25
ATOM     25  N   UNL     1       4.313   4.432  18.669  0.00  0.00    +0.000 N 
ATOM     26  H   UNL     1       4.277   3.445  18.404  0.00  0.00    +0.000 HD
BRANCH  25  29
ATOM     27  C   UNL     1       7.351   6.500  18.063  0.00  0.00    +0.000 A 
ATOM     28  C   UNL     1       6.279   5.888  18.697  0.00  0.00    +0.000 A 
ATOM     29  C   UNL     1       5.401   5.040  18.005  0.00  0.00    +0.000 A 
ATOM     30  C   UNL     1       5.668   4.704  16.659  0.00  0.00    +0.000 A 
ATOM     31  N   UNL     1       4.869   3.835  15.992  0.00  0.00    +0.000 NA
ATOM     32  C   UNL     1       5.172   3.531  14.711  0.00  0.00    +0.000 A 
ATOM     33  C   UNL     1       6.244   4.069  14.021  0.00  0.00    +0.000 A 
ATOM     34  C   UNL     1       7.056   4.972  14.692  0.00  0.00    +0.000 A 
ATOM     35  C   UNL     1       6.784   5.303  16.027  0.00  0.00    +0.000 A 
ATOM     36  C   UNL     1       7.599   6.209  16.726  0.00  0.00    +0.000 A 
BRANCH  27  38
ATOM     37  C   UNL     1       8.252   8.694  18.092  0.00  0.00    +0.000 C 
ATOM     38  O   UNL     1       8.214   7.385  18.653  0.00  0.00    +0.000 OA
ENDBRANCH  27  38
ENDBRANCH  25  29
ENDBRANCH  23  25
ENDBRANCH  22  23
ENDBRANCH  21  22
ENDBRANCH   1  21
TORSDOF 8
ENDMDL
MODEL 7
REMARK VINA RESULT:      -8.0      2.181      3.942
REMARK  Name = 
REMARK  13 active torsions:
REMARK  status: ('A' for Active; 'I' for Inactive)
REMARK    1  A    between atoms: C_1  and  O_2
REMARK    2  A    between atoms: O_2  and  C_3
REMARK    3  A    between atoms: C_5  and  N_6
REMARK    4  A    between atoms: N_6  and  C_7
REMARK    5  A    between atoms: C_7  and  C_8
REMARK    6  A    between atoms: C_7  and  C_9
REMARK    7  A    between atoms: C_9  and  C_10
REMARK    8  A    between atoms: C_10  and  C_11
REMARK    9  A    between atoms: C_11  and  N_12
REMARK   10  A    between atoms: C_13  and  C_15
REMARK   11  A    between atoms: C_16  and  C_17
REMARK   12  A    between atoms: C_22  and  C_23
REMARK   13  A    between atoms: C_24  and  C_25
REMARK                            x       y       z     vdW  Elec       q    Type
REMARK                         _______ _______ _______ _____ _____    ______ ____
ROOT
ATOM      1  C   UNL     1       2.393   7.434  19.645  0.00  0.00    +0.000 C 
ENDROOT
BRANCH   1   2
ATOM      2  N   UNL     1       1.369   8.399  19.979  0.00  0.00    +0.000 N 
ATOM      3  C   UNL     1       1.120   9.474  19.167  0.00  0.00    +0.000 C 
ATOM      4  O   UNL     1       1.747   9.690  18.137  0.00  0.00    +0.000 OA
ATOM      5  H   UNL     1       1.119   8.527  20.967  0.00  0.00    +0.000 HD
BRANCH   3   6
ATOM      6  C   UNL     1       0.011  10.372  19.559  0.00  0.00    +0.000 A 
ATOM      7  C   UNL     1      -1.099  10.557  18.716  0.00  0.00    +0.000 A 
ATOM      8  C   UNL     1      -1.343   9.826  17.429  0.00  0.00    +0.000 C 
ATOM      9  N   UNL     1      -2.080  11.471  19.070  0.00  0.00    +0.000 N 
ATOM     10  O   UNL     1      -3.083  11.663  18.305  0.00  0.00    +0.000 OA
ATOM     11  C   UNL     1      -1.978  12.194  20.281  0.00  0.00    +0.000 A 
ATOM     12  C   UNL     1      -2.959  13.133  20.652  0.00  0.00    +0.000 A 
ATOM     13  C   UNL     1      -2.886  13.864  21.849  0.00  0.00    +0.000 A 
ATOM     14  C   UNL     1      -3.980  14.850  22.161  0.00  0.00    +0.000 C 
ATOM     15  C   UNL     1      -1.802  13.649  22.709  0.00  0.00    +0.000 A 
ATOM     16  C   UNL     1      -1.621  14.390  24.006  0.00  0.00    +0.000 C 
ATOM     17  C   UNL     1      -0.823  12.704  22.350  0.00  0.00    +0.000 A 
ATOM     18  C   UNL     1      -0.885  11.966  21.140  0.00  0.00    +0.000 A 
ATOM     19  N   UNL     1       0.111  11.033  20.783  0.00  0.00    +0.000 N 
ATOM     20  O   UNL     1       1.081  10.815  21.597  0.00  0.00    +0.000 OA
ENDBRANCH   3   6
ENDBRANCH   1   2
BRANCH   1  21
ATOM     21  C   UNL     1       1.743   6.139  19.203  0.00  0.00    +0.000 C 
BRANCH  21  22
ATOM     22  C   UNL     1       2.369   5.606  17.916  0.00  0.00    +0.000 C 
BRANCH  22  23
ATOM     23  C   UNL     1       2.003   4.145  17.618  0.00  0.00    +0.000 C 
ATOM     24  C   UNL     1       1.291   3.473  18.793  0.00  0.00    +0.000 C 
BRANCH  23  25
ATOM     25  N   UNL     1       3.220   3.428  17.226  0.00  0.00    +0.000 N 
ATOM     26  H   UNL     1       3.170   2.923  16.337  0.00  0.00    +0.000 HD
BRANCH  25  29
ATOM     27  C   UNL     1       6.303   4.866  18.741  0.00  0.00    +0.000 A 
ATOM     28  C   UNL     1       5.049   4.287  18.603  0.00  0.00    +0.000 A 
ATOM     29  C   UNL     1       4.500   4.012  17.342  0.00  0.00    +0.000 A 
ATOM     30  C   UNL     1       5.277   4.221  16.181  0.00  0.00    +0.000 A 
ATOM     31  N   UNL     1       4.789   3.900  14.957  0.00  0.00    +0.000 NA
ATOM     32  C   UNL     1       5.573   4.102  13.875  0.00  0.00    +0.000 A 
ATOM     33  C   UNL     1       6.847   4.638  13.933  0.00  0.00    +0.000 A 
ATOM     34  C   UNL     1       7.346   4.985  15.180  0.00  0.00    +0.000 A 
ATOM     35  C   UNL     1       6.569   4.778  16.329  0.00  0.00    +0.000 A 
ATOM     36  C   UNL     1       7.059   5.114  17.602  0.00  0.00    +0.000 A 
BRANCH  27  38
ATOM     37  C   UNL     1       8.206   5.740  19.857  0.00  0.00    +0.000 C 
ATOM     38  O   UNL     1       6.881   5.219  19.931  0.00  0.00    +0.000 OA
ENDBRANCH  27  38
ENDBRANCH  25  29
ENDBRANCH  23  25
ENDBRANCH  22  23
ENDBRANCH  21  22
ENDBRANCH   1  21
TORSDOF 8
ENDMDL
MODEL 8
REMARK VINA RESULT:      -8.0      3.105      5.856
REMARK  Name = 
REMARK  13 active torsions:
REMARK  status: ('A' for Active; 'I' for Inactive)
REMARK    1  A    between atoms: C_1  and  O_2
REMARK    2  A    between atoms: O_2  and  C_3
REMARK    3  A    between atoms: C_5  and  N_6
REMARK    4  A    between atoms: N_6  and  C_7
REMARK    5  A    between atoms: C_7  and  C_8
REMARK    6  A    between atoms: C_7  and  C_9
REMARK    7  A    between atoms: C_9  and  C_10
REMARK    8  A    between atoms: C_10  and  C_11
REMARK    9  A    between atoms: C_11  and  N_12
REMARK   10  A    between atoms: C_13  and  C_15
REMARK   11  A    between atoms: C_16  and  C_17
REMARK   12  A    between atoms: C_22  and  C_23
REMARK   13  A    between atoms: C_24  and  C_25
REMARK                            x       y       z     vdW  Elec       q    Type
REMARK                         _______ _______ _______ _____ _____    ______ ____
ROOT
ATOM      1  C   UNL     1       1.542  10.932  18.188  0.00  0.00    +0.000 C 
ENDROOT
BRANCH   1   2
ATOM      2  N   UNL     1       0.446  11.588  18.866  0.00  0.00    +0.000 N 
ATOM      3  C   UNL     1       0.676  12.511  19.851  0.00  0.00    +0.000 C 
ATOM      4  O   UNL     1       1.802  12.822  20.224  0.00  0.00    +0.000 OA
ATOM      5  H   UNL     1      -0.458  11.103  18.921  0.00  0.00    +0.000 HD
BRANCH   3   6
ATOM      6  C   UNL     1      -0.506  13.174  20.444  0.00  0.00    +0.000 A 
ATOM      7  C   UNL     1      -0.877  14.473  20.051  0.00  0.00    +0.000 A 
ATOM      8  C   UNL     1      -0.221  15.271  18.964  0.00  0.00    +0.000 C 
ATOM      9  N   UNL     1      -1.938  15.102  20.687  0.00  0.00    +0.000 N 
ATOM     10  O   UNL     1      -2.272  16.287  20.355  0.00  0.00    +0.000 OA
ATOM     11  C   UNL     1      -2.657  14.433  21.704  0.00  0.00    +0.000 A 
ATOM     12  C   UNL     1      -3.729  15.059  22.368  0.00  0.00    +0.000 A 
ATOM     13  C   UNL     1      -4.464  14.420  23.379  0.00  0.00    +0.000 A 
ATOM     14  C   UNL     1      -5.593  15.169  24.036  0.00  0.00    +0.000 C 
ATOM     15  C   UNL     1      -4.122  13.111  23.741  0.00  0.00    +0.000 A 
ATOM     16  C   UNL     1      -4.834  12.343  24.822  0.00  0.00    +0.000 C 
ATOM     17  C   UNL     1      -3.058  12.475  23.075  0.00  0.00    +0.000 A 
ATOM     18  C   UNL     1      -2.307  13.115  22.057  0.00  0.00    +0.000 A 
ATOM     19  N   UNL     1      -1.231  12.473  21.407  0.00  0.00    +0.000 N 
ATOM     20  O   UNL     1      -0.950  11.259  21.719  0.00  0.00    +0.000 OA
ENDBRANCH   3   6
ENDBRANCH   1   2
BRANCH   1  21
ATOM     21  C   UNL     1       1.205   9.470  17.980  0.00  0.00    +0.000 C 
BRANCH  21  22
ATOM     22  C   UNL     1       2.311   8.558  18.507  0.00  0.00    +0.000 C 
BRANCH  22  23
ATOM     23  C   UNL     1       1.853   7.636  19.646  0.00  0.00    +0.000 C 
ATOM     24  C   UNL     1       1.498   8.412  20.915  0.00  0.00    +0.000 C 
BRANCH  23  25
ATOM     25  N   UNL     1       2.896   6.633  19.886  0.00  0.00    +0.000 N 
ATOM     26  H   UNL     1       2.869   6.177  20.801  0.00  0.00    +0.000 HD
BRANCH  25  29
ATOM     27  C   UNL     1       4.704   4.952  17.098  0.00  0.00    +0.000 A 
ATOM     28  C   UNL     1       4.346   5.879  18.067  0.00  0.00    +0.000 A 
ATOM     29  C   UNL     1       3.245   5.673  18.911  0.00  0.00    +0.000 A 
ATOM     30  C   UNL     1       2.545   4.447  18.862  0.00  0.00    +0.000 A 
ATOM     31  N   UNL     1       1.520   4.202  19.715  0.00  0.00    +0.000 NA
ATOM     32  C   UNL     1       0.889   3.010  19.642  0.00  0.00    +0.000 A 
ATOM     33  C   UNL     1       1.211   2.019  18.732  0.00  0.00    +0.000 A 
ATOM     34  C   UNL     1       2.248   2.269  17.844  0.00  0.00    +0.000 A 
ATOM     35  C   UNL     1       2.937   3.489  17.897  0.00  0.00    +0.000 A 
ATOM     36  C   UNL     1       3.995   3.759  17.013  0.00  0.00    +0.000 A 
BRANCH  27  38
ATOM     37  C   UNL     1       6.246   3.910  15.627  0.00  0.00    +0.000 C 
ATOM     38  O   UNL     1       5.724   5.107  16.198  0.00  0.00    +0.000 OA
ENDBRANCH  27  38
ENDBRANCH  25  29
ENDBRANCH  23  25
ENDBRANCH  22  23
ENDBRANCH  21  22
ENDBRANCH   1  21
TORSDOF 8
ENDMDL
MODEL 9
REMARK VINA RESULT:      -7.9      2.236      8.887
REMARK  Name = 
REMARK  13 active torsions:
REMARK  status: ('A' for Active; 'I' for Inactive)
REMARK    1  A    between atoms: C_1  and  O_2
REMARK    2  A    between atoms: O_2  and  C_3
REMARK    3  A    between atoms: C_5  and  N_6
REMARK    4  A    between atoms: N_6  and  C_7
REMARK    5  A    between atoms: C_7  and  C_8
REMARK    6  A    between atoms: C_7  and  C_9
REMARK    7  A    between atoms: C_9  and  C_10
REMARK    8  A    between atoms: C_10  and  C_11
REMARK    9  A    between atoms: C_11  and  N_12
REMARK   10  A    between atoms: C_13  and  C_15
REMARK   11  A    between atoms: C_16  and  C_17
REMARK   12  A    between atoms: C_22  and  C_23
REMARK   13  A    between atoms: C_24  and  C_25
REMARK                            x       y       z     vdW  Elec       q    Type
REMARK                         _______ _______ _______ _____ _____    ______ ____
ROOT
ATOM      1  C   UNL     1       2.347   5.576  20.845  0.00  0.00    +0.000 C 
ENDROOT
BRANCH   1   2
ATOM      2  N   UNL     1       3.281   5.577  19.742  0.00  0.00    +0.000 N 
ATOM      3  C   UNL     1       3.961   4.441  19.389  0.00  0.00    +0.000 C 
ATOM      4  O   UNL     1       3.834   3.378  19.985  0.00  0.00    +0.000 OA
ATOM      5  H   UNL     1       3.743   6.460  19.490  0.00  0.00    +0.000 HD
BRANCH   3   6
ATOM      6  C   UNL     1       4.848   4.525  18.209  0.00  0.00    +0.000 A 
ATOM      7  C   UNL     1       6.134   5.084  18.311  0.00  0.00    +0.000 A 
ATOM      8  C   UNL     1       6.780   5.548  19.584  0.00  0.00    +0.000 C 
ATOM      9  N   UNL     1       6.910   5.229  17.170  0.00  0.00    +0.000 N 
ATOM     10  O   UNL     1       8.070   5.754  17.245  0.00  0.00    +0.000 OA
ATOM     11  C   UNL     1       6.421   4.793  15.917  0.00  0.00    +0.000 A 
ATOM     12  C   UNL     1       7.189   4.940  14.746  0.00  0.00    +0.000 A 
ATOM     13  C   UNL     1       6.733   4.515  13.488  0.00  0.00    +0.000 A 
ATOM     14  C   UNL     1       7.622   4.717  12.290  0.00  0.00    +0.000 C 
ATOM     15  C   UNL     1       5.469   3.919  13.393  0.00  0.00    +0.000 A 
ATOM     16  C   UNL     1       4.880   3.443  12.092  0.00  0.00    +0.000 C 
ATOM     17  C   UNL     1       4.700   3.758  14.560  0.00  0.00    +0.000 A 
ATOM     18  C   UNL     1       5.151   4.191  15.833  0.00  0.00    +0.000 A 
ATOM     19  N   UNL     1       4.363   4.039  16.995  0.00  0.00    +0.000 N 
ATOM     20  O   UNL     1       3.223   3.456  16.902  0.00  0.00    +0.000 OA
ENDBRANCH   3   6
ENDBRANCH   1   2
BRANCH   1  21
ATOM     21  C   UNL     1       1.254   6.591  20.583  0.00  0.00    +0.000 C 
BRANCH  21  22
ATOM     22  C   UNL     1       1.829   7.979  20.307  0.00  0.00    +0.000 C 
BRANCH  22  23
ATOM     23  C   UNL     1       1.519   8.500  18.896  0.00  0.00    +0.000 C 
ATOM     24  C   UNL     1       2.637   8.183  17.901  0.00  0.00    +0.000 C 
BRANCH  23  25
ATOM     25  N   UNL     1       1.243   9.938  18.978  0.00  0.00    +0.000 N 
ATOM     26  H   UNL     1       1.882  10.541  18.454  0.00  0.00    +0.000 HD
BRANCH  25  29
ATOM     27  C   UNL     1      -2.213  10.503  17.711  0.00  0.00    +0.000 A 
ATOM     28  C   UNL     1      -0.925  10.005  17.848  0.00  0.00    +0.000 A 
ATOM     29  C   UNL     1      -0.066  10.454  18.862  0.00  0.00    +0.000 A 
ATOM     30  C   UNL     1      -0.549  11.350  19.842  0.00  0.00    +0.000 A 
ATOM     31  N   UNL     1       0.245  11.745  20.868  0.00  0.00    +0.000 NA
ATOM     32  C   UNL     1      -0.263  12.591  21.791  0.00  0.00    +0.000 A 
ATOM     33  C   UNL     1      -1.549  13.100  21.747  0.00  0.00    +0.000 A 
ATOM     34  C   UNL     1      -2.361  12.714  20.691  0.00  0.00    +0.000 A 
ATOM     35  C   UNL     1      -1.875  11.826  19.720  0.00  0.00    +0.000 A 
ATOM     36  C   UNL     1      -2.684  11.417  18.647  0.00  0.00    +0.000 A 
BRANCH  27  38
ATOM     37  C   UNL     1      -2.747  10.597  15.402  0.00  0.00    +0.000 C 
ATOM     38  O   UNL     1      -3.088  10.161  16.715  0.00  0.00    +0.000 OA
ENDBRANCH  27  38
ENDBRANCH  25  29
ENDBRANCH  23  25
ENDBRANCH  22  23
ENDBRANCH  21  22
ENDBRANCH   1  21
TORSDOF 8
ENDMDL
