MODEL 1
REMARK VINA RESULT:      -7.2      0.000      0.000
REMARK  Name = 
REMARK  6 active torsions:
REMARK  status: ('A' for Active; 'I' for Inactive)
REMARK    1  A    between atoms: C_2  and  C_3
REMARK    2  A    between atoms: C_3  and  C_4
REMARK    3  A    between atoms: C_5  and  C_6
REMARK    4  A    between atoms: N_8  and  N_9
REMARK    5  A    between atoms: N_16  and  C_17
REMARK    6  A    between atoms: C_24  and  C_25
REMARK                            x       y       z     vdW  Elec       q    Type
REMARK                         _______ _______ _______ _____ _____    ______ ____
ROOT
ATOM      1  C   UNL     1      -0.066  10.278  20.310  0.00  0.00    +0.000 A 
ATOM      2  C   UNL     1       0.908  10.255  19.240  0.00  0.00    +0.000 A 
ATOM      3  N   UNL     1       1.048  11.488  18.736  0.00  0.00    +0.000 NA
ATOM      4  N   UNL     1       0.297  12.314  19.506  0.00  0.00    +0.000 N 
ATOM      5  C   UNL     1      -0.542  11.612  20.393  0.00  0.00    +0.000 A 
ENDROOT
BRANCH   4   6
ATOM      6  C   UNL     1       0.549  13.716  19.417  0.00  0.00    +0.000 A 
ATOM      7  C   UNL     1      -0.341  14.524  18.685  0.00  0.00    +0.000 A 
ATOM      8  C   UNL     1      -0.130  15.900  18.580  0.00  0.00    +0.000 A 
ATOM      9  C   UNL     1       0.946  16.492  19.232  0.00  0.00    +0.000 A 
ATOM     10  C   UNL     1       1.820  15.706  19.982  0.00  0.00    +0.000 A 
ATOM     11  C   UNL     1       1.635  14.320  20.076  0.00  0.00    +0.000 A 
ATOM     12 CL   UNL     1       2.885  13.451  20.902  0.00  0.00    +0.000 Cl
ENDBRANCH   4   6
BRANCH   5  13
ATOM     13  C   UNL     1      -1.644  12.226  21.241  0.00  0.00    +0.000 A 
ATOM     14  C   UNL     1      -1.445  12.552  22.590  0.00  0.00    +0.000 A 
ATOM     15  C   UNL     1      -2.509  12.997  23.408  0.00  0.00    +0.000 A 
ATOM     16  C   UNL     1      -3.791  13.154  22.891  0.00  0.00    +0.000 A 
ATOM     17 CL   UNL     1      -5.096  13.665  23.880  0.00  0.00    +0.000 Cl
ATOM     18  C   UNL     1      -4.009  12.918  21.557  0.00  0.00    +0.000 A 
ATOM     19  C   UNL     1      -2.941  12.496  20.767  0.00  0.00    +0.000 A 
ENDBRANCH   5  13
BRANCH   2  20
ATOM     20  C   UNL     1       1.720   9.124  18.664  0.00  0.00    +0.000 C 
ATOM     21  O   UNL     1       2.188   9.178  17.531  0.00  0.00    +0.000 OA
ATOM     22  N   UNL     1       1.878   8.038  19.545  0.00  0.00    +0.000 N 
ATOM     23  H   UNL     1       1.442   8.140  20.462  0.00  0.00    +0.000 HD
BRANCH  22  24
ATOM     24  N   UNL     1       2.615   6.825  19.291  0.00  0.00    +0.000 NA
ATOM     25  C   UNL     1       2.297   5.722  20.209  0.00  0.00    +0.000 C 
ATOM     26  C   UNL     1       3.216   4.507  19.996  0.00  0.00    +0.000 C 
ATOM     27  C   UNL     1       3.184   4.033  18.549  0.00  0.00    +0.000 C 
ATOM     28  C   UNL     1       3.510   5.196  17.619  0.00  0.00    +0.000 C 
ATOM     29  C   UNL     1       2.607   6.409  17.882  0.00  0.00    +0.000 C 
ENDBRANCH  22  24
ENDBRANCH   2  20
BRANCH   1  30
ATOM     30  C   UNL     1      -0.488   9.121  21.173  0.00  0.00    +0.000 C 
BRANCH  30  32
ATOM     31  N   UNL     1       0.482   9.617  23.732  0.00  0.00    +0.000 NA
ATOM     32  C   UNL     1       0.042   9.392  22.571  0.00  0.00    +0.000 C 
ENDBRANCH  30  32
ENDBRANCH   1  30
TORSDOF 6
ENDMDL
MODEL 2
REMARK VINA RESULT:      -7.1      1.258      1.836
REMARK  Name = 
REMARK  6 active torsions:
REMARK  status: ('A' for Active; 'I' for Inactive)
REMARK    1  A    between atoms: C_2  and  C_3
REMARK    2  A    between atoms: C_3  and  C_4
REMARK    3  A    between atoms: C_5  and  C_6
REMARK    4  A    between atoms: N_8  and  N_9
REMARK    5  A    between atoms: N_16  and  C_17
REMARK    6  A    between atoms: C_24  and  C_25
REMARK                            x       y       z     vdW  Elec       q    Type
REMARK                         _______ _______ _______ _____ _____    ______ ____
ROOT
ATOM      1  C   UNL     1       0.256  10.595  20.202  0.00  0.00    +0.000 A 
ATOM      2  C   UNL     1       1.214  10.453  19.127  0.00  0.00    +0.000 A 
ATOM      3  N   UNL     1       1.685  11.658  18.784  0.00  0.00    +0.000 NA
ATOM      4  N   UNL     1       1.159  12.549  19.662  0.00  0.00    +0.000 N 
ATOM      5  C   UNL     1       0.145  11.985  20.462  0.00  0.00    +0.000 A 
ENDROOT
BRANCH   4   6
ATOM      6  C   UNL     1       1.771  13.835  19.752  0.00  0.00    +0.000 A 
ATOM      7  C   UNL     1       3.042  13.946  20.346  0.00  0.00    +0.000 A 
ATOM      8  C   UNL     1       3.674  15.186  20.447  0.00  0.00    +0.000 A 
ATOM      9  C   UNL     1       3.067  16.322  19.923  0.00  0.00    +0.000 A 
ATOM     10  C   UNL     1       1.820  16.222  19.308  0.00  0.00    +0.000 A 
ATOM     11  C   UNL     1       1.162  14.987  19.222  0.00  0.00    +0.000 A 
ATOM     12 CL   UNL     1      -0.446  15.038  18.580  0.00  0.00    +0.000 Cl
ENDBRANCH   4   6
BRANCH   5  13
ATOM     13  C   UNL     1      -0.777  12.755  21.394  0.00  0.00    +0.000 A 
ATOM     14  C   UNL     1      -0.283  13.485  22.485  0.00  0.00    +0.000 A 
ATOM     15  C   UNL     1      -1.152  14.087  23.425  0.00  0.00    +0.000 A 
ATOM     16  C   UNL     1      -2.533  13.998  23.282  0.00  0.00    +0.000 A 
ATOM     17 CL   UNL     1      -3.595  14.699  24.430  0.00  0.00    +0.000 Cl
ATOM     18  C   UNL     1      -3.053  13.358  22.186  0.00  0.00    +0.000 A 
ATOM     19  C   UNL     1      -2.177  12.786  21.264  0.00  0.00    +0.000 A 
ENDBRANCH   5  13
BRANCH   2  20
ATOM     20  C   UNL     1       1.713   9.230  18.402  0.00  0.00    +0.000 C 
ATOM     21  O   UNL     1       1.891   9.229  17.187  0.00  0.00    +0.000 OA
ATOM     22  N   UNL     1       1.950   8.130  19.246  0.00  0.00    +0.000 N 
ATOM     23  H   UNL     1       1.769   8.283  20.239  0.00  0.00    +0.000 HD
BRANCH  22  24
ATOM     24  N   UNL     1       2.447   6.834  18.853  0.00  0.00    +0.000 NA
ATOM     25  C   UNL     1       3.702   6.875  18.090  0.00  0.00    +0.000 C 
ATOM     26  C   UNL     1       4.105   5.487  17.564  0.00  0.00    +0.000 C 
ATOM     27  C   UNL     1       4.192   4.469  18.693  0.00  0.00    +0.000 C 
ATOM     28  C   UNL     1       2.881   4.451  19.471  0.00  0.00    +0.000 C 
ATOM     29  C   UNL     1       2.480   5.855  19.948  0.00  0.00    +0.000 C 
ENDBRANCH  22  24
ENDBRANCH   2  20
BRANCH   1  30
ATOM     30  C   UNL     1      -0.474   9.490  20.915  0.00  0.00    +0.000 C 
BRANCH  30  32
ATOM     31  N   UNL     1       0.253   9.627  23.595  0.00  0.00    +0.000 NA
ATOM     32  C   UNL     1      -0.077   9.564  22.379  0.00  0.00    +0.000 C 
ENDBRANCH  30  32
ENDBRANCH   1  30
TORSDOF 6
ENDMDL
MODEL 3
REMARK VINA RESULT:      -7.1      2.624      4.441
REMARK  Name = 
REMARK  6 active torsions:
REMARK  status: ('A' for Active; 'I' for Inactive)
REMARK    1  A    between atoms: C_2  and  C_3
REMARK    2  A    between atoms: C_3  and  C_4
REMARK    3  A    between atoms: C_5  and  C_6
REMARK    4  A    between atoms: N_8  and  N_9
REMARK    5  A    between atoms: N_16  and  C_17
REMARK    6  A    between atoms: C_24  and  C_25
REMARK                            x       y       z     vdW  Elec       q    Type
REMARK                         _______ _______ _______ _____ _____    ______ ____
ROOT
ATOM      1  C   UNL     1       0.625  11.977  20.341  0.00  0.00    +0.000 A 
ATOM      2  C   UNL     1       0.321  10.563  20.367  0.00  0.00    +0.000 A 
ATOM      3  N   UNL     1      -0.902  10.358  19.861  0.00  0.00    +0.000 NA
ATOM      4  N   UNL     1      -1.346  11.559  19.411  0.00  0.00    +0.000 N 
ATOM      5  C   UNL     1      -0.523  12.627  19.820  0.00  0.00    +0.000 A 
ENDROOT
BRANCH   4   6
ATOM      6  C   UNL     1      -2.452  11.563  18.509  0.00  0.00    +0.000 A 
ATOM      7  C   UNL     1      -2.244  11.184  17.170  0.00  0.00    +0.000 A 
ATOM      8  C   UNL     1      -3.302  11.171  16.261  0.00  0.00    +0.000 A 
ATOM      9  C   UNL     1      -4.587  11.497  16.683  0.00  0.00    +0.000 A 
ATOM     10  C   UNL     1      -4.812  11.848  18.013  0.00  0.00    +0.000 A 
ATOM     11  C   UNL     1      -3.754  11.890  18.932  0.00  0.00    +0.000 A 
ATOM     12 CL   UNL     1      -4.150  12.499  20.504  0.00  0.00    +0.000 Cl
ENDBRANCH   4   6
BRANCH   5  13
ATOM     13  C   UNL     1      -0.845  14.103  19.657  0.00  0.00    +0.000 A 
ATOM     14  C   UNL     1      -0.309  14.867  18.610  0.00  0.00    +0.000 A 
ATOM     15  C   UNL     1      -0.504  16.266  18.541  0.00  0.00    +0.000 A 
ATOM     16  C   UNL     1      -1.261  16.931  19.500  0.00  0.00    +0.000 A 
ATOM     17 CL   UNL     1      -1.480  18.631  19.443  0.00  0.00    +0.000 Cl
ATOM     18  C   UNL     1      -1.866  16.207  20.496  0.00  0.00    +0.000 A 
ATOM     19  C   UNL     1      -1.673  14.827  20.535  0.00  0.00    +0.000 A 
ENDBRANCH   5  13
BRANCH   2  20
ATOM     20  C   UNL     1       1.129   9.384  20.846  0.00  0.00    +0.000 C 
ATOM     21  O   UNL     1       1.452   9.261  22.024  0.00  0.00    +0.000 OA
ATOM     22  N   UNL     1       1.456   8.472  19.826  0.00  0.00    +0.000 N 
ATOM     23  H   UNL     1       1.108   8.701  18.895  0.00  0.00    +0.000 HD
BRANCH  22  24
ATOM     24  N   UNL     1       2.199   7.245  19.975  0.00  0.00    +0.000 NA
ATOM     25  C   UNL     1       1.438   6.149  20.591  0.00  0.00    +0.000 C 
ATOM     26  C   UNL     1       2.317   4.918  20.868  0.00  0.00    +0.000 C 
ATOM     27  C   UNL     1       3.022   4.443  19.605  0.00  0.00    +0.000 C 
ATOM     28  C   UNL     1       3.798   5.599  18.983  0.00  0.00    +0.000 C 
ATOM     29  C   UNL     1       2.907   6.829  18.757  0.00  0.00    +0.000 C 
ENDBRANCH  22  24
ENDBRANCH   2  20
BRANCH   1  30
ATOM     30  C   UNL     1       1.908  12.633  20.771  0.00  0.00    +0.000 C 
BRANCH  30  32
ATOM     31  N   UNL     1       3.118  13.642  18.480  0.00  0.00    +0.000 NA
ATOM     32  C   UNL     1       2.569  13.184  19.519  0.00  0.00    +0.000 C 
ENDBRANCH  30  32
ENDBRANCH   1  30
TORSDOF 6
ENDMDL
MODEL 4
REMARK VINA RESULT:      -7.1      0.598      1.327
REMARK  Name = 
REMARK  6 active torsions:
REMARK  status: ('A' for Active; 'I' for Inactive)
REMARK    1  A    between atoms: C_2  and  C_3
REMARK    2  A    between atoms: C_3  and  C_4
REMARK    3  A    between atoms: C_5  and  C_6
REMARK    4  A    between atoms: N_8  and  N_9
REMARK    5  A    between atoms: N_16  and  C_17
REMARK    6  A    between atoms: C_24  and  C_25
REMARK                            x       y       z     vdW  Elec       q    Type
REMARK                         _______ _______ _______ _____ _____    ______ ____
ROOT
ATOM      1  C   UNL     1       0.014  10.363  20.257  0.00  0.00    +0.000 A 
ATOM      2  C   UNL     1       0.886  10.355  19.102  0.00  0.00    +0.000 A 
ATOM      3  N   UNL     1       1.032  11.605  18.642  0.00  0.00    +0.000 NA
ATOM      4  N   UNL     1       0.388  12.421  19.514  0.00  0.00    +0.000 N 
ATOM      5  C   UNL     1      -0.396  11.708  20.443  0.00  0.00    +0.000 A 
ENDROOT
BRANCH   4   6
ATOM      6  C   UNL     1       0.689  13.815  19.465  0.00  0.00    +0.000 A 
ATOM      7  C   UNL     1      -0.162  14.672  18.744  0.00  0.00    +0.000 A 
ATOM      8  C   UNL     1       0.097  16.042  18.676  0.00  0.00    +0.000 A 
ATOM      9  C   UNL     1       1.184  16.579  19.358  0.00  0.00    +0.000 A 
ATOM     10  C   UNL     1       2.021  15.745  20.098  0.00  0.00    +0.000 A 
ATOM     11  C   UNL     1       1.787  14.363  20.153  0.00  0.00    +0.000 A 
ATOM     12 CL   UNL     1       2.996  13.431  20.972  0.00  0.00    +0.000 Cl
ENDBRANCH   4   6
BRANCH   5  13
ATOM     13  C   UNL     1      -1.390  12.322  21.415  0.00  0.00    +0.000 A 
ATOM     14  C   UNL     1      -2.753  12.439  21.104  0.00  0.00    +0.000 A 
ATOM     15  C   UNL     1      -3.648  13.130  21.953  0.00  0.00    +0.000 A 
ATOM     16  C   UNL     1      -3.209  13.696  23.146  0.00  0.00    +0.000 A 
ATOM     17 CL   UNL     1      -4.279  14.562  24.169  0.00  0.00    +0.000 Cl
ATOM     18  C   UNL     1      -1.900  13.537  23.521  0.00  0.00    +0.000 A 
ATOM     19  C   UNL     1      -1.039  12.838  22.676  0.00  0.00    +0.000 A 
ENDBRANCH   5  13
BRANCH   2  20
ATOM     20  C   UNL     1       1.595   9.223  18.404  0.00  0.00    +0.000 C 
ATOM     21  O   UNL     1       1.907   9.291  17.219  0.00  0.00    +0.000 OA
ATOM     22  N   UNL     1       1.852   8.119  19.238  0.00  0.00    +0.000 N 
ATOM     23  H   UNL     1       1.545   8.211  20.206  0.00  0.00    +0.000 HD
BRANCH  22  24
ATOM     24  N   UNL     1       2.528   6.901  18.868  0.00  0.00    +0.000 NA
ATOM     25  C   UNL     1       3.822   7.106  18.201  0.00  0.00    +0.000 C 
ATOM     26  C   UNL     1       4.426   5.787  17.689  0.00  0.00    +0.000 C 
ATOM     27  C   UNL     1       4.552   4.763  18.810  0.00  0.00    +0.000 C 
ATOM     28  C   UNL     1       3.200   4.574  19.488  0.00  0.00    +0.000 C 
ATOM     29  C   UNL     1       2.600   5.910  19.950  0.00  0.00    +0.000 C 
ENDBRANCH  22  24
ENDBRANCH   2  20
BRANCH   1  30
ATOM     30  C   UNL     1      -0.375   9.183  21.103  0.00  0.00    +0.000 C 
BRANCH  30  32
ATOM     31  N   UNL     1       0.620   9.646  23.658  0.00  0.00    +0.000 NA
ATOM     32  C   UNL     1       0.169   9.436  22.499  0.00  0.00    +0.000 C 
ENDBRANCH  30  32
ENDBRANCH   1  30
TORSDOF 6
ENDMDL
MODEL 5
REMARK VINA RESULT:      -7.1      3.144      8.033
REMARK  Name = 
REMARK  6 active torsions:
REMARK  status: ('A' for Active; 'I' for Inactive)
REMARK    1  A    between atoms: C_2  and  C_3
REMARK    2  A    between atoms: C_3  and  C_4
REMARK    3  A    between atoms: C_5  and  C_6
REMARK    4  A    between atoms: N_8  and  N_9
REMARK    5  A    between atoms: N_16  and  C_17
REMARK    6  A    between atoms: C_24  and  C_25
REMARK                            x       y       z     vdW  Elec       q    Type
REMARK                         _______ _______ _______ _____ _____    ______ ____
ROOT
ATOM      1  C   UNL     1      -1.138  13.473  20.240  0.00  0.00    +0.000 A 
ATOM      2  C   UNL     1      -2.210  12.517  20.060  0.00  0.00    +0.000 A 
ATOM      3  N   UNL     1      -1.711  11.369  19.585  0.00  0.00    +0.000 NA
ATOM      4  N   UNL     1      -0.362  11.508  19.561  0.00  0.00    +0.000 N 
ATOM      5  C   UNL     1       0.049  12.835  19.799  0.00  0.00    +0.000 A 
ENDROOT
BRANCH   4   6
ATOM      6  C   UNL     1       0.426  10.324  19.444  0.00  0.00    +0.000 A 
ATOM      7  C   UNL     1       0.960   9.980  18.189  0.00  0.00    +0.000 A 
ATOM      8  C   UNL     1       1.739   8.831  18.037  0.00  0.00    +0.000 A 
ATOM      9  C   UNL     1       2.028   8.035  19.140  0.00  0.00    +0.000 A 
ATOM     10  C   UNL     1       1.527   8.379  20.395  0.00  0.00    +0.000 A 
ATOM     11  C   UNL     1       0.722   9.515  20.557  0.00  0.00    +0.000 A 
ATOM     12 CL   UNL     1       0.037   9.730  22.134  0.00  0.00    +0.000 Cl
ENDBRANCH   4   6
BRANCH   5  13
ATOM     13  C   UNL     1       1.465  13.363  19.641  0.00  0.00    +0.000 A 
ATOM     14  C   UNL     1       2.289  13.614  20.749  0.00  0.00    +0.000 A 
ATOM     15  C   UNL     1       3.554  14.231  20.604  0.00  0.00    +0.000 A 
ATOM     16  C   UNL     1       4.037  14.585  19.349  0.00  0.00    +0.000 A 
ATOM     17 CL   UNL     1       5.556  15.359  19.164  0.00  0.00    +0.000 Cl
ATOM     18  C   UNL     1       3.294  14.286  18.236  0.00  0.00    +0.000 A 
ATOM     19  C   UNL     1       2.058  13.664  18.401  0.00  0.00    +0.000 A 
ENDBRANCH   5  13
BRANCH   2  20
ATOM     20  C   UNL     1      -3.691  12.631  20.315  0.00  0.00    +0.000 C 
ATOM     21  O   UNL     1      -4.515  12.429  19.428  0.00  0.00    +0.000 OA
ATOM     22  N   UNL     1      -4.010  12.978  21.640  0.00  0.00    +0.000 N 
ATOM     23  H   UNL     1      -3.219  13.103  22.271  0.00  0.00    +0.000 HD
BRANCH  22  24
ATOM     24  N   UNL     1      -5.332  13.142  22.192  0.00  0.00    +0.000 NA
ATOM     25  C   UNL     1      -5.430  12.839  23.627  0.00  0.00    +0.000 C 
ATOM     26  C   UNL     1      -6.883  12.878  24.130  0.00  0.00    +0.000 C 
ATOM     27  C   UNL     1      -7.545  14.212  23.813  0.00  0.00    +0.000 C 
ATOM     28  C   UNL     1      -7.425  14.505  22.322  0.00  0.00    +0.000 C 
ATOM     29  C   UNL     1      -5.970  14.417  21.837  0.00  0.00    +0.000 C 
ENDBRANCH  22  24
ENDBRANCH   2  20
BRANCH   1  30
ATOM     30  C   UNL     1      -1.253  14.866  20.795  0.00  0.00    +0.000 C 
BRANCH  30  32
ATOM     31  N   UNL     1      -0.574  14.730  23.488  0.00  0.00    +0.000 NA
ATOM     32  C   UNL     1      -0.883  14.791  22.267  0.00  0.00    +0.000 C 
ENDBRANCH  30  32
ENDBRANCH   1  30
TORSDOF 6
ENDMDL
MODEL 6
REMARK VINA RESULT:      -7.0      4.666      8.746
REMARK  Name = 
REMARK  6 active torsions:
REMARK  status: ('A' for Active; 'I' for Inactive)
REMARK    1  A    between atoms: C_2  and  C_3
REMARK    2  A    between atoms: C_3  and  C_4
REMARK    3  A    between atoms: C_5  and  C_6
REMARK    4  A    between atoms: N_8  and  N_9
REMARK    5  A    between atoms: N_16  and  C_17
REMARK    6  A    between atoms: C_24  and  C_25
REMARK                            x       y       z     vdW  Elec       q    Type
REMARK                         _______ _______ _______ _____ _____    ______ ____
ROOT
ATOM      1  C   UNL     1      -4.354  12.444  19.716  0.00  0.00    +0.000 A 
ATOM      2  C   UNL     1      -3.805  12.873  20.984  0.00  0.00    +0.000 A 
ATOM      3  N   UNL     1      -2.482  12.666  20.992  0.00  0.00    +0.000 NA
ATOM      4  N   UNL     1      -2.145  12.234  19.751  0.00  0.00    +0.000 N 
ATOM      5  C   UNL     1      -3.271  11.921  18.964  0.00  0.00    +0.000 A 
ENDROOT
BRANCH   4   6
ATOM      6  C   UNL     1      -0.768  12.286  19.381  0.00  0.00    +0.000 A 
ATOM      7  C   UNL     1      -0.281  13.430  18.721  0.00  0.00    +0.000 A 
ATOM      8  C   UNL     1       1.061  13.519  18.347  0.00  0.00    +0.000 A 
ATOM      9  C   UNL     1       1.941  12.489  18.660  0.00  0.00    +0.000 A 
ATOM     10  C   UNL     1       1.477  11.361  19.337  0.00  0.00    +0.000 A 
ATOM     11  C   UNL     1       0.127  11.247  19.695  0.00  0.00    +0.000 A 
ATOM     12 CL   UNL     1      -0.340   9.727  20.383  0.00  0.00    +0.000 Cl
ENDBRANCH   4   6
BRANCH   5  13
ATOM     13  C   UNL     1      -3.239  11.226  17.613  0.00  0.00    +0.000 A 
ATOM     14  C   UNL     1      -2.327  10.198  17.331  0.00  0.00    +0.000 A 
ATOM     15  C   UNL     1      -2.211   9.648  16.033  0.00  0.00    +0.000 A 
ATOM     16  C   UNL     1      -3.022  10.092  14.993  0.00  0.00    +0.000 A 
ATOM     17 CL   UNL     1      -2.871   9.453  13.409  0.00  0.00    +0.000 Cl
ATOM     18  C   UNL     1      -3.978  11.041  15.248  0.00  0.00    +0.000 A 
ATOM     19  C   UNL     1      -4.085  11.557  16.539  0.00  0.00    +0.000 A 
ENDBRANCH   5  13
BRANCH   2  20
ATOM     20  C   UNL     1      -4.467  13.472  22.198  0.00  0.00    +0.000 C 
ATOM     21  O   UNL     1      -4.937  12.769  23.089  0.00  0.00    +0.000 OA
ATOM     22  N   UNL     1      -4.482  14.879  22.196  0.00  0.00    +0.000 N 
ATOM     23  H   UNL     1      -4.043  15.328  21.393  0.00  0.00    +0.000 HD
BRANCH  22  24
ATOM     24  N   UNL     1      -5.024  15.735  23.222  0.00  0.00    +0.000 NA
ATOM     25  C   UNL     1      -4.009  16.400  24.051  0.00  0.00    +0.000 C 
ATOM     26  C   UNL     1      -4.636  17.175  25.224  0.00  0.00    +0.000 C 
ATOM     27  C   UNL     1      -5.676  18.174  24.735  0.00  0.00    +0.000 C 
ATOM     28  C   UNL     1      -6.711  17.461  23.874  0.00  0.00    +0.000 C 
ATOM     29  C   UNL     1      -6.056  16.661  22.738  0.00  0.00    +0.000 C 
ENDBRANCH  22  24
ENDBRANCH   2  20
BRANCH   1  30
ATOM     30  C   UNL     1      -5.788  12.542  19.272  0.00  0.00    +0.000 C 
BRANCH  30  32
ATOM     31  N   UNL     1      -7.200  10.569  20.630  0.00  0.00    +0.000 NA
ATOM     32  C   UNL     1      -6.559  11.464  20.014  0.00  0.00    +0.000 C 
ENDBRANCH  30  32
ENDBRANCH   1  30
TORSDOF 6
ENDMDL
MODEL 7
REMARK VINA RESULT:      -7.0      1.163      1.522
REMARK  Name = 
REMARK  6 active torsions:
REMARK  status: ('A' for Active; 'I' for Inactive)
REMARK    1  A    between atoms: C_2  and  C_3
REMARK    2  A    between atoms: C_3  and  C_4
REMARK    3  A    between atoms: C_5  and  C_6
REMARK    4  A    between atoms: N_8  and  N_9
REMARK    5  A    between atoms: N_16  and  C_17
REMARK    6  A    between atoms: C_24  and  C_25
REMARK                            x       y       z     vdW  Elec       q    Type
REMARK                         _______ _______ _______ _____ _____    ______ ____
ROOT
ATOM      1  C   UNL     1       0.285  10.310  20.345  0.00  0.00    +0.000 A 
ATOM      2  C   UNL     1       1.275  10.121  19.307  0.00  0.00    +0.000 A 
ATOM      3  N   UNL     1       1.709  11.313  18.879  0.00  0.00    +0.000 NA
ATOM      4  N   UNL     1       1.129  12.249  19.671  0.00  0.00    +0.000 N 
ATOM      5  C   UNL     1       0.116  11.711  20.490  0.00  0.00    +0.000 A 
ENDROOT
BRANCH   4   6
ATOM      6  C   UNL     1       1.691  13.561  19.671  0.00  0.00    +0.000 A 
ATOM      7  C   UNL     1       2.955  13.762  20.254  0.00  0.00    +0.000 A 
ATOM      8  C   UNL     1       3.540  15.030  20.269  0.00  0.00    +0.000 A 
ATOM      9  C   UNL     1       2.890  16.103  19.668  0.00  0.00    +0.000 A 
ATOM     10  C   UNL     1       1.648  15.911  19.063  0.00  0.00    +0.000 A 
ATOM     11  C   UNL     1       1.038  14.649  19.064  0.00  0.00    +0.000 A 
ATOM     12 CL   UNL     1      -0.570  14.594  18.422  0.00  0.00    +0.000 Cl
ENDBRANCH   4   6
BRANCH   5  13
ATOM     13  C   UNL     1      -0.856  12.516  21.336  0.00  0.00    +0.000 A 
ATOM     14  C   UNL     1      -0.439  13.219  22.476  0.00  0.00    +0.000 A 
ATOM     15  C   UNL     1      -1.367  13.854  23.333  0.00  0.00    +0.000 A 
ATOM     16  C   UNL     1      -2.730  13.826  23.058  0.00  0.00    +0.000 A 
ATOM     17 CL   UNL     1      -3.867  14.568  24.106  0.00  0.00    +0.000 Cl
ATOM     18  C   UNL     1      -3.170  13.214  21.912  0.00  0.00    +0.000 A 
ATOM     19  C   UNL     1      -2.236  12.609  21.074  0.00  0.00    +0.000 A 
ENDBRANCH   5  13
BRANCH   2  20
ATOM     20  C   UNL     1       1.838   8.865  18.693  0.00  0.00    +0.000 C 
ATOM     21  O   UNL     1       2.094   8.792  17.495  0.00  0.00    +0.000 OA
ATOM     22  N   UNL     1       2.033   7.823  19.618  0.00  0.00    +0.000 N 
ATOM     23  H   UNL     1       1.785   8.033  20.585  0.00  0.00    +0.000 HD
BRANCH  22  24
ATOM     24  N   UNL     1       2.572   6.515  19.340  0.00  0.00    +0.000 NA
ATOM     25  C   UNL     1       2.234   5.496  20.345  0.00  0.00    +0.000 C 
ATOM     26  C   UNL     1       2.958   4.164  20.085  0.00  0.00    +0.000 C 
ATOM     27  C   UNL     1       2.684   3.648  18.678  0.00  0.00    +0.000 C 
ATOM     28  C   UNL     1       3.035   4.724  17.657  0.00  0.00    +0.000 C 
ATOM     29  C   UNL     1       2.334   6.055  17.965  0.00  0.00    +0.000 C 
ENDBRANCH  22  24
ENDBRANCH   2  20
BRANCH   1  30
ATOM     30  C   UNL     1      -0.421   9.237  21.127  0.00  0.00    +0.000 C 
BRANCH  30  32
ATOM     31  N   UNL     1       0.279   9.577  23.796  0.00  0.00    +0.000 NA
ATOM     32  C   UNL     1      -0.039   9.423  22.585  0.00  0.00    +0.000 C 
ENDBRANCH  30  32
ENDBRANCH   1  30
TORSDOF 6
ENDMDL
MODEL 8
REMARK VINA RESULT:      -6.9      2.719      4.415
REMARK  Name = 
REMARK  6 active torsions:
REMARK  status: ('A' for Active; 'I' for Inactive)
REMARK    1  A    between atoms: C_2  and  C_3
REMARK    2  A    between atoms: C_3  and  C_4
REMARK    3  A    between atoms: C_5  and  C_6
REMARK    4  A    between atoms: N_8  and  N_9
REMARK    5  A    between atoms: N_16  and  C_17
REMARK    6  A    between atoms: C_24  and  C_25
REMARK                            x       y       z     vdW  Elec       q    Type
REMARK                         _______ _______ _______ _____ _____    ______ ____
ROOT
ATOM      1  C   UNL     1       0.639  12.143  20.481  0.00  0.00    +0.000 A 
ATOM      2  C   UNL     1       0.291  10.747  20.635  0.00  0.00    +0.000 A 
ATOM      3  N   UNL     1      -1.004  10.572  20.345  0.00  0.00    +0.000 NA
ATOM      4  N   UNL     1      -1.471  11.768  19.905  0.00  0.00    +0.000 N 
ATOM      5  C   UNL     1      -0.555  12.817  20.115  0.00  0.00    +0.000 A 
ENDROOT
BRANCH   4   6
ATOM      6  C   UNL     1      -2.710  11.776  19.195  0.00  0.00    +0.000 A 
ATOM      7  C   UNL     1      -3.828  12.399  19.779  0.00  0.00    +0.000 A 
ATOM      8  C   UNL     1      -5.054  12.432  19.113  0.00  0.00    +0.000 A 
ATOM      9  C   UNL     1      -5.171  11.878  17.842  0.00  0.00    +0.000 A 
ATOM     10  C   UNL     1      -4.064  11.281  17.241  0.00  0.00    +0.000 A 
ATOM     11  C   UNL     1      -2.833  11.218  17.909  0.00  0.00    +0.000 A 
ATOM     12 CL   UNL     1      -1.593  10.307  17.113  0.00  0.00    +0.000 Cl
ENDBRANCH   4   6
BRANCH   5  13
ATOM     13  C   UNL     1      -0.846  14.296  19.924  0.00  0.00    +0.000 A 
ATOM     14  C   UNL     1      -1.724  14.993  20.767  0.00  0.00    +0.000 A 
ATOM     15  C   UNL     1      -2.094  16.332  20.505  0.00  0.00    +0.000 A 
ATOM     16  C   UNL     1      -1.575  17.016  19.410  0.00  0.00    +0.000 A 
ATOM     17 CL   UNL     1      -2.039  18.631  19.066  0.00  0.00    +0.000 Cl
ATOM     18  C   UNL     1      -0.654  16.394  18.607  0.00  0.00    +0.000 A 
ATOM     19  C   UNL     1      -0.292  15.079  18.894  0.00  0.00    +0.000 A 
ENDBRANCH   5  13
BRANCH   2  20
ATOM     20  C   UNL     1       1.124   9.559  21.044  0.00  0.00    +0.000 C 
ATOM     21  O   UNL     1       1.535   9.425  22.193  0.00  0.00    +0.000 OA
ATOM     22  N   UNL     1       1.364   8.651  19.996  0.00  0.00    +0.000 N 
ATOM     23  H   UNL     1       0.947   8.889  19.096  0.00  0.00    +0.000 HD
BRANCH  22  24
ATOM     24  N   UNL     1       2.105   7.417  20.080  0.00  0.00    +0.000 NA
ATOM     25  C   UNL     1       1.363   6.307  20.693  0.00  0.00    +0.000 C 
ATOM     26  C   UNL     1       2.246   5.064  20.900  0.00  0.00    +0.000 C 
ATOM     27  C   UNL     1       2.899   4.623  19.597  0.00  0.00    +0.000 C 
ATOM     28  C   UNL     1       3.656   5.793  18.979  0.00  0.00    +0.000 C 
ATOM     29  C   UNL     1       2.764   7.034  18.824  0.00  0.00    +0.000 C 
ENDBRANCH  22  24
ENDBRANCH   2  20
BRANCH   1  30
ATOM     30  C   UNL     1       1.997  12.762  20.661  0.00  0.00    +0.000 C 
BRANCH  30  32
ATOM     31  N   UNL     1       2.968  13.352  18.123  0.00  0.00    +0.000 NA
ATOM     32  C   UNL     1       2.528  13.084  19.274  0.00  0.00    +0.000 C 
ENDBRANCH  30  32
ENDBRANCH   1  30
TORSDOF 6
ENDMDL
MODEL 9
REMARK VINA RESULT:      -6.9      3.090      8.087
REMARK  Name = 
REMARK  6 active torsions:
REMARK  status: ('A' for Active; 'I' for Inactive)
REMARK    1  A    between atoms: C_2  and  C_3
REMARK    2  A    between atoms: C_3  and  C_4
REMARK    3  A    between atoms: C_5  and  C_6
REMARK    4  A    between atoms: N_8  and  N_9
REMARK    5  A    between atoms: N_16  and  C_17
REMARK    6  A    between atoms: C_24  and  C_25
REMARK                            x       y       z     vdW  Elec       q    Type
REMARK                         _______ _______ _______ _____ _____    ______ ____
ROOT
ATOM      1  C   UNL     1      -1.158  13.376  20.179  0.00  0.00    +0.000 A 
ATOM      2  C   UNL     1      -2.215  12.408  19.978  0.00  0.00    +0.000 A 
ATOM      3  N   UNL     1      -1.696  11.274  19.491  0.00  0.00    +0.000 NA
ATOM      4  N   UNL     1      -0.349  11.433  19.478  0.00  0.00    +0.000 N 
ATOM      5  C   UNL     1       0.042  12.762  19.738  0.00  0.00    +0.000 A 
ENDROOT
BRANCH   4   6
ATOM      6  C   UNL     1       0.457  10.262  19.351  0.00  0.00    +0.000 A 
ATOM      7  C   UNL     1       0.986   9.931  18.090  0.00  0.00    +0.000 A 
ATOM      8  C   UNL     1       1.782   8.795  17.927  0.00  0.00    +0.000 A 
ATOM      9  C   UNL     1       2.092   7.999  19.025  0.00  0.00    +0.000 A 
ATOM     10  C   UNL     1       1.596   8.331  20.285  0.00  0.00    +0.000 A 
ATOM     11  C   UNL     1       0.774   9.453  20.458  0.00  0.00    +0.000 A 
ATOM     12 CL   UNL     1       0.099   9.651  22.041  0.00  0.00    +0.000 Cl
ENDBRANCH   4   6
BRANCH   5  13
ATOM     13  C   UNL     1       1.451  13.312  19.597  0.00  0.00    +0.000 A 
ATOM     14  C   UNL     1       2.260  13.567  20.715  0.00  0.00    +0.000 A 
ATOM     15  C   UNL     1       3.517  14.203  20.587  0.00  0.00    +0.000 A 
ATOM     16  C   UNL     1       4.007  14.575  19.339  0.00  0.00    +0.000 A 
ATOM     17 CL   UNL     1       5.516  15.373  19.175  0.00  0.00    +0.000 Cl
ATOM     18  C   UNL     1       3.279  14.273  18.217  0.00  0.00    +0.000 A 
ATOM     19  C   UNL     1       2.051  13.631  18.365  0.00  0.00    +0.000 A 
ENDBRANCH   5  13
BRANCH   2  20
ATOM     20  C   UNL     1      -3.699  12.497  20.224  0.00  0.00    +0.000 C 
ATOM     21  O   UNL     1      -4.509  12.429  19.305  0.00  0.00    +0.000 OA
ATOM     22  N   UNL     1      -4.037  12.657  21.581  0.00  0.00    +0.000 N 
ATOM     23  H   UNL     1      -3.255  12.684  22.235  0.00  0.00    +0.000 HD
BRANCH  22  24
ATOM     24  N   UNL     1      -5.367  12.751  22.130  0.00  0.00    +0.000 NA
ATOM     25  C   UNL     1      -5.411  12.815  23.597  0.00  0.00    +0.000 C 
ATOM     26  C   UNL     1      -6.851  12.758  24.137  0.00  0.00    +0.000 C 
ATOM     27  C   UNL     1      -7.717  13.849  23.522  0.00  0.00    +0.000 C 
ATOM     28  C   UNL     1      -7.649  13.766  22.002  0.00  0.00    +0.000 C 
ATOM     29  C   UNL     1      -6.200  13.781  21.493  0.00  0.00    +0.000 C 
ENDBRANCH  22  24
ENDBRANCH   2  20
BRANCH   1  30
ATOM     30  C   UNL     1      -1.297  14.760  20.753  0.00  0.00    +0.000 C 
BRANCH  30  32
ATOM     31  N   UNL     1      -0.618  16.552  18.739  0.00  0.00    +0.000 NA
ATOM     32  C   UNL     1      -0.926  15.739  19.653  0.00  0.00    +0.000 C 
ENDBRANCH  30  32
ENDBRANCH   1  30
TORSDOF 6
ENDMDL
