MODEL 1
REMARK VINA RESULT:      -8.3      0.000      0.000
REMARK  Name = 
REMARK  8 active torsions:
REMARK  status: ('A' for Active; 'I' for Inactive)
REMARK    1  A    between atoms: C_1  and  C_2
REMARK    2  A    between atoms: C_8  and  C_9
REMARK    3  A    between atoms: C_9  and  C_22
REMARK    4  A    between atoms: C_10  and  C_11
REMARK    5  A    between atoms: C_11  and  C_12
REMARK    6  A    between atoms: C_12  and  N_13
REMARK    7  A    between atoms: C_17  and  C_18
REMARK    8  A    between atoms: C_18  and  O_20
REMARK                            x       y       z     vdW  Elec       q    Type
REMARK                         _______ _______ _______ _____ _____    ______ ____
ROOT
ATOM      1  C   UNL     1       3.560   6.211  17.748  0.00  0.00    +0.000 C 
ATOM      2  C   UNL     1       3.199   7.524  17.691  0.00  0.00    +0.000 C 
ENDROOT
BRANCH   1  10
ATOM      3  C   UNL     1       6.180   5.339  19.175  0.00  0.00    +0.000 C 
ATOM      4  C   UNL     1       5.985   5.321  17.683  0.00  0.00    +0.000 A 
ATOM      5  C   UNL     1       7.100   4.910  16.923  0.00  0.00    +0.000 A 
ATOM      6  C   UNL     1       7.055   4.901  15.534  0.00  0.00    +0.000 A 
ATOM      7  F   UNL     1       8.133   4.505  14.842  0.00  0.00    +0.000 F 
ATOM      8  C   UNL     1       5.918   5.318  14.876  0.00  0.00    +0.000 A 
ATOM      9  C   UNL     1       4.796   5.739  15.614  0.00  0.00    +0.000 A 
ATOM     10  C   UNL     1       4.798   5.742  17.030  0.00  0.00    +0.000 A 
ENDBRANCH   1  10
BRANCH   1  11
ATOM     11  C   UNL     1       2.716   5.321  18.593  0.00  0.00    +0.000 A 
ATOM     12  C   UNL     1       1.858   4.387  17.992  0.00  0.00    +0.000 A 
ATOM     13  C   UNL     1       1.013   3.585  18.766  0.00  0.00    +0.000 A 
ATOM     14  C   UNL     1       1.025   3.694  20.154  0.00  0.00    +0.000 A 
ATOM     15  C   UNL     1       1.848   4.636  20.768  0.00  0.00    +0.000 A 
ATOM     16  C   UNL     1       2.671   5.462  19.992  0.00  0.00    +0.000 A 
ENDBRANCH   1  11
BRANCH   2  17
ATOM     17  C   UNL     1       2.029   8.108  18.467  0.00  0.00    +0.000 C 
BRANCH  17  18
ATOM     18  C   UNL     1       1.364   9.370  17.883  0.00  0.00    +0.000 C 
BRANCH  18  19
ATOM     19  N   UNL     1       0.803  10.260  18.935  0.00  0.00    +0.000 NA
ATOM     20  C   UNL     1      -0.636  10.511  18.738  0.00  0.00    +0.000 C 
ATOM     21  C   UNL     1      -1.195  11.446  19.808  0.00  0.00    +0.000 C 
ATOM     22  C   UNL     1      -0.955  10.897  21.205  0.00  0.00    +0.000 C 
ATOM     23  C   UNL     1       0.526  10.567  21.402  0.00  0.00    +0.000 C 
ATOM     24  C   UNL     1       1.052   9.674  20.267  0.00  0.00    +0.000 C 
BRANCH  23  25
ATOM     25  C   UNL     1       0.735   9.861  22.731  0.00  0.00    +0.000 C 
ATOM     26  O   UNL     1      -0.018   9.925  23.683  0.00  0.00    +0.000 OA
BRANCH  25  27
ATOM     27  O   UNL     1       1.885   9.147  22.782  0.00  0.00    +0.000 OA
ATOM     28  H   UNL     1       2.582   9.467  22.175  0.00  0.00    +0.000 HD
ENDBRANCH  25  27
ENDBRANCH  23  25
ENDBRANCH  18  19
ENDBRANCH  17  18
ENDBRANCH   2  17
TORSDOF 7
ENDMDL
MODEL 2
REMARK VINA RESULT:      -8.3      0.279      1.139
REMARK  Name = 
REMARK  8 active torsions:
REMARK  status: ('A' for Active; 'I' for Inactive)
REMARK    1  A    between atoms: C_1  and  C_2
REMARK    2  A    between atoms: C_8  and  C_9
REMARK    3  A    between atoms: C_9  and  C_22
REMARK    4  A    between atoms: C_10  and  C_11
REMARK    5  A    between atoms: C_11  and  C_12
REMARK    6  A    between atoms: C_12  and  N_13
REMARK    7  A    between atoms: C_17  and  C_18
REMARK    8  A    between atoms: C_18  and  O_20
REMARK                            x       y       z     vdW  Elec       q    Type
REMARK                         _______ _______ _______ _____ _____    ______ ____
ROOT
ATOM      1  C   UNL     1       3.518   6.277  17.834  0.00  0.00    +0.000 C 
ATOM      2  C   UNL     1       3.223   7.608  17.851  0.00  0.00    +0.000 C 
ENDROOT
BRANCH   1  10
ATOM      3  C   UNL     1       6.138   5.370  19.238  0.00  0.00    +0.000 C 
ATOM      4  C   UNL     1       5.929   5.353  17.747  0.00  0.00    +0.000 A 
ATOM      5  C   UNL     1       7.031   4.925  16.978  0.00  0.00    +0.000 A 
ATOM      6  C   UNL     1       6.973   4.916  15.589  0.00  0.00    +0.000 A 
ATOM      7  F   UNL     1       8.039   4.504  14.887  0.00  0.00    +0.000 F 
ATOM      8  C   UNL     1       5.836   5.349  14.941  0.00  0.00    +0.000 A 
ATOM      9  C   UNL     1       4.727   5.787  15.690  0.00  0.00    +0.000 A 
ATOM     10  C   UNL     1       4.743   5.790  17.105  0.00  0.00    +0.000 A 
ENDBRANCH   1  10
BRANCH   1  11
ATOM     11  C   UNL     1       2.618   5.382  18.615  0.00  0.00    +0.000 A 
ATOM     12  C   UNL     1       2.646   5.408  20.017  0.00  0.00    +0.000 A 
ATOM     13  C   UNL     1       1.853   4.534  20.768  0.00  0.00    +0.000 A 
ATOM     14  C   UNL     1       1.009   3.632  20.126  0.00  0.00    +0.000 A 
ATOM     15  C   UNL     1       0.990   3.570  18.735  0.00  0.00    +0.000 A 
ATOM     16  C   UNL     1       1.807   4.423  17.982  0.00  0.00    +0.000 A 
ENDBRANCH   1  11
BRANCH   2  17
ATOM     17  C   UNL     1       2.071   8.203  18.645  0.00  0.00    +0.000 C 
BRANCH  17  18
ATOM     18  C   UNL     1       1.285   9.351  17.983  0.00  0.00    +0.000 C 
BRANCH  18  19
ATOM     19  N   UNL     1       0.715  10.302  18.975  0.00  0.00    +0.000 NA
ATOM     20  C   UNL     1      -0.679  10.661  18.659  0.00  0.00    +0.000 C 
ATOM     21  C   UNL     1      -1.246  11.658  19.669  0.00  0.00    +0.000 C 
ATOM     22  C   UNL     1      -1.163  11.117  21.088  0.00  0.00    +0.000 C 
ATOM     23  C   UNL     1       0.266  10.675  21.408  0.00  0.00    +0.000 C 
ATOM     24  C   UNL     1       0.808   9.723  20.330  0.00  0.00    +0.000 C 
BRANCH  23  25
ATOM     25  C   UNL     1       0.311   9.980  22.758  0.00  0.00    +0.000 C 
ATOM     26  O   UNL     1       1.237   9.307  23.168  0.00  0.00    +0.000 OA
BRANCH  25  27
ATOM     27  O   UNL     1      -0.817  10.155  23.487  0.00  0.00    +0.000 OA
ATOM     28  H   UNL     1      -1.557   9.570  23.228  0.00  0.00    +0.000 HD
ENDBRANCH  25  27
ENDBRANCH  23  25
ENDBRANCH  18  19
ENDBRANCH  17  18
ENDBRANCH   2  17
TORSDOF 7
ENDMDL
MODEL 3
REMARK VINA RESULT:      -8.3      1.000      1.976
REMARK  Name = 
REMARK  8 active torsions:
REMARK  status: ('A' for Active; 'I' for Inactive)
REMARK    1  A    between atoms: C_1  and  C_2
REMARK    2  A    between atoms: C_8  and  C_9
REMARK    3  A    between atoms: C_9  and  C_22
REMARK    4  A    between atoms: C_10  and  C_11
REMARK    5  A    between atoms: C_11  and  C_12
REMARK    6  A    between atoms: C_12  and  N_13
REMARK    7  A    between atoms: C_17  and  C_18
REMARK    8  A    between atoms: C_18  and  O_20
REMARK                            x       y       z     vdW  Elec       q    Type
REMARK                         _______ _______ _______ _____ _____    ______ ____
ROOT
ATOM      1  C   UNL     1       3.636   5.903  18.340  0.00  0.00    +0.000 C 
ATOM      2  C   UNL     1       3.319   7.198  18.056  0.00  0.00    +0.000 C 
ENDROOT
BRANCH   1  10
ATOM      3  C   UNL     1       4.723   4.500  15.789  0.00  0.00    +0.000 C 
ATOM      4  C   UNL     1       5.557   4.808  17.004  0.00  0.00    +0.000 A 
ATOM      5  C   UNL     1       6.901   4.383  16.949  0.00  0.00    +0.000 A 
ATOM      6  C   UNL     1       7.753   4.567  18.032  0.00  0.00    +0.000 A 
ATOM      7  F   UNL     1       9.025   4.151  17.948  0.00  0.00    +0.000 F 
ATOM      8  C   UNL     1       7.286   5.153  19.189  0.00  0.00    +0.000 A 
ATOM      9  C   UNL     1       5.947   5.579  19.266  0.00  0.00    +0.000 A 
ATOM     10  C   UNL     1       5.056   5.426  18.178  0.00  0.00    +0.000 A 
ENDBRANCH   1  10
BRANCH   1  11
ATOM     11  C   UNL     1       2.538   5.047  18.869  0.00  0.00    +0.000 A 
ATOM     12  C   UNL     1       2.266   5.024  20.246  0.00  0.00    +0.000 A 
ATOM     13  C   UNL     1       1.280   4.181  20.769  0.00  0.00    +0.000 A 
ATOM     14  C   UNL     1       0.541   3.360  19.921  0.00  0.00    +0.000 A 
ATOM     15  C   UNL     1       0.817   3.346  18.556  0.00  0.00    +0.000 A 
ATOM     16  C   UNL     1       1.826   4.166  18.035  0.00  0.00    +0.000 A 
ENDBRANCH   1  11
BRANCH   2  17
ATOM     17  C   UNL     1       1.941   7.796  18.288  0.00  0.00    +0.000 C 
BRANCH  17  18
ATOM     18  C   UNL     1       1.709   9.235  17.787  0.00  0.00    +0.000 C 
BRANCH  18  19
ATOM     19  N   UNL     1       1.018  10.088  18.791  0.00  0.00    +0.000 NA
ATOM     20  C   UNL     1      -0.351  10.436  18.372  0.00  0.00    +0.000 C 
ATOM     21  C   UNL     1      -1.042  11.333  19.399  0.00  0.00    +0.000 C 
ATOM     22  C   UNL     1      -1.075  10.681  20.772  0.00  0.00    +0.000 C 
ATOM     23  C   UNL     1       0.332  10.250  21.191  0.00  0.00    +0.000 C 
ATOM     24  C   UNL     1       1.004   9.403  20.099  0.00  0.00    +0.000 C 
BRANCH  23  25
ATOM     25  C   UNL     1       0.274   9.448  22.481  0.00  0.00    +0.000 C 
ATOM     26  O   UNL     1       1.065   9.541  23.399  0.00  0.00    +0.000 OA
BRANCH  25  27
ATOM     27  O   UNL     1      -0.756   8.569  22.516  0.00  0.00    +0.000 OA
ATOM     28  H   UNL     1      -0.798   8.032  23.333  0.00  0.00    +0.000 HD
ENDBRANCH  25  27
ENDBRANCH  23  25
ENDBRANCH  18  19
ENDBRANCH  17  18
ENDBRANCH   2  17
TORSDOF 7
ENDMDL
MODEL 4
REMARK VINA RESULT:      -8.2      2.161      2.730
REMARK  Name = 
REMARK  8 active torsions:
REMARK  status: ('A' for Active; 'I' for Inactive)
REMARK    1  A    between atoms: C_1  and  C_2
REMARK    2  A    between atoms: C_8  and  C_9
REMARK    3  A    between atoms: C_9  and  C_22
REMARK    4  A    between atoms: C_10  and  C_11
REMARK    5  A    between atoms: C_11  and  C_12
REMARK    6  A    between atoms: C_12  and  N_13
REMARK    7  A    between atoms: C_17  and  C_18
REMARK    8  A    between atoms: C_18  and  O_20
REMARK                            x       y       z     vdW  Elec       q    Type
REMARK                         _______ _______ _______ _____ _____    ______ ____
ROOT
ATOM      1  C   UNL     1       3.484   6.281  17.842  0.00  0.00    +0.000 C 
ATOM      2  C   UNL     1       3.182   7.610  17.840  0.00  0.00    +0.000 C 
ENDROOT
BRANCH   1  10
ATOM      3  C   UNL     1       6.066   5.308  19.274  0.00  0.00    +0.000 C 
ATOM      4  C   UNL     1       5.884   5.324  17.780  0.00  0.00    +0.000 A 
ATOM      5  C   UNL     1       6.994   4.896  17.022  0.00  0.00    +0.000 A 
ATOM      6  C   UNL     1       6.961   4.915  15.633  0.00  0.00    +0.000 A 
ATOM      7  F   UNL     1       8.034   4.501  14.942  0.00  0.00    +0.000 F 
ATOM      8  C   UNL     1       5.842   5.376  14.973  0.00  0.00    +0.000 A 
ATOM      9  C   UNL     1       4.726   5.815  15.710  0.00  0.00    +0.000 A 
ATOM     10  C   UNL     1       4.716   5.791  17.125  0.00  0.00    +0.000 A 
ENDBRANCH   1  10
BRANCH   1  11
ATOM     11  C   UNL     1       2.585   5.391  18.630  0.00  0.00    +0.000 A 
ATOM     12  C   UNL     1       2.549   5.490  20.029  0.00  0.00    +0.000 A 
ATOM     13  C   UNL     1       1.758   4.625  20.791  0.00  0.00    +0.000 A 
ATOM     14  C   UNL     1       0.978   3.657  20.162  0.00  0.00    +0.000 A 
ATOM     15  C   UNL     1       1.024   3.523  18.777  0.00  0.00    +0.000 A 
ATOM     16  C   UNL     1       1.841   4.368  18.015  0.00  0.00    +0.000 A 
ENDBRANCH   1  11
BRANCH   2  17
ATOM     17  C   UNL     1       2.023   8.209  18.620  0.00  0.00    +0.000 C 
BRANCH  17  18
ATOM     18  C   UNL     1       1.505   9.585  18.157  0.00  0.00    +0.000 C 
BRANCH  18  19
ATOM     19  N   UNL     1       0.421  10.112  19.027  0.00  0.00    +0.000 NA
ATOM     20  C   UNL     1       0.885  11.221  19.879  0.00  0.00    +0.000 C 
ATOM     21  C   UNL     1      -0.230  11.738  20.787  0.00  0.00    +0.000 C 
ATOM     22  C   UNL     1      -1.441  12.181  19.981  0.00  0.00    +0.000 C 
ATOM     23  C   UNL     1      -1.893  11.063  19.039  0.00  0.00    +0.000 C 
ATOM     24  C   UNL     1      -0.722  10.539  18.195  0.00  0.00    +0.000 C 
BRANCH  23  25
ATOM     25  C   UNL     1      -2.991  11.565  18.116  0.00  0.00    +0.000 C 
ATOM     26  O   UNL     1      -4.169  11.638  18.405  0.00  0.00    +0.000 OA
BRANCH  25  27
ATOM     27  O   UNL     1      -2.537  11.914  16.888  0.00  0.00    +0.000 OA
ATOM     28  H   UNL     1      -2.840  11.328  16.167  0.00  0.00    +0.000 HD
ENDBRANCH  25  27
ENDBRANCH  23  25
ENDBRANCH  18  19
ENDBRANCH  17  18
ENDBRANCH   2  17
TORSDOF 7
ENDMDL
MODEL 5
REMARK VINA RESULT:      -8.1      2.350      3.301
REMARK  Name = 
REMARK  8 active torsions:
REMARK  status: ('A' for Active; 'I' for Inactive)
REMARK    1  A    between atoms: C_1  and  C_2
REMARK    2  A    between atoms: C_8  and  C_9
REMARK    3  A    between atoms: C_9  and  C_22
REMARK    4  A    between atoms: C_10  and  C_11
REMARK    5  A    between atoms: C_11  and  C_12
REMARK    6  A    between atoms: C_12  and  N_13
REMARK    7  A    between atoms: C_17  and  C_18
REMARK    8  A    between atoms: C_18  and  O_20
REMARK                            x       y       z     vdW  Elec       q    Type
REMARK                         _______ _______ _______ _____ _____    ______ ____
ROOT
ATOM      1  C   UNL     1       3.613   5.838  18.252  0.00  0.00    +0.000 C 
ATOM      2  C   UNL     1       3.269   7.109  17.900  0.00  0.00    +0.000 C 
ENDROOT
BRANCH   1  10
ATOM      3  C   UNL     1       4.830   4.498  15.725  0.00  0.00    +0.000 C 
ATOM      4  C   UNL     1       5.608   4.803  16.977  0.00  0.00    +0.000 A 
ATOM      5  C   UNL     1       6.962   4.406  16.971  0.00  0.00    +0.000 A 
ATOM      6  C   UNL     1       7.766   4.589  18.089  0.00  0.00    +0.000 A 
ATOM      7  F   UNL     1       9.049   4.200  18.050  0.00  0.00    +0.000 F 
ATOM      8  C   UNL     1       7.241   5.147  19.235  0.00  0.00    +0.000 A 
ATOM      9  C   UNL     1       5.891   5.544  19.266  0.00  0.00    +0.000 A 
ATOM     10  C   UNL     1       5.048   5.392  18.140  0.00  0.00    +0.000 A 
ENDBRANCH   1  10
BRANCH   1  11
ATOM     11  C   UNL     1       2.527   4.978  18.801  0.00  0.00    +0.000 A 
ATOM     12  C   UNL     1       2.217   5.025  20.168  0.00  0.00    +0.000 A 
ATOM     13  C   UNL     1       1.243   4.182  20.713  0.00  0.00    +0.000 A 
ATOM     14  C   UNL     1       0.553   3.291  19.895  0.00  0.00    +0.000 A 
ATOM     15  C   UNL     1       0.868   3.209  18.541  0.00  0.00    +0.000 A 
ATOM     16  C   UNL     1       1.866   4.029  18.000  0.00  0.00    +0.000 A 
ENDBRANCH   1  11
BRANCH   2  17
ATOM     17  C   UNL     1       1.871   7.680  18.077  0.00  0.00    +0.000 C 
BRANCH  17  18
ATOM     18  C   UNL     1       1.740   9.216  18.098  0.00  0.00    +0.000 C 
BRANCH  18  19
ATOM     19  N   UNL     1       0.518   9.678  18.807  0.00  0.00    +0.000 NA
ATOM     20  C   UNL     1       0.824  10.688  19.836  0.00  0.00    +0.000 C 
ATOM     21  C   UNL     1      -0.436  11.137  20.576  0.00  0.00    +0.000 C 
ATOM     22  C   UNL     1      -1.479  11.683  19.614  0.00  0.00    +0.000 C 
ATOM     23  C   UNL     1      -1.757  10.673  18.498  0.00  0.00    +0.000 C 
ATOM     24  C   UNL     1      -0.454  10.210  17.830  0.00  0.00    +0.000 C 
BRANCH  23  25
ATOM     25  C   UNL     1      -2.667  11.288  17.448  0.00  0.00    +0.000 C 
ATOM     26  O   UNL     1      -2.553  11.135  16.248  0.00  0.00    +0.000 OA
BRANCH  25  27
ATOM     27  O   UNL     1      -3.638  12.071  17.976  0.00  0.00    +0.000 OA
ATOM     28  H   UNL     1      -4.538  11.865  17.655  0.00  0.00    +0.000 HD
ENDBRANCH  25  27
ENDBRANCH  23  25
ENDBRANCH  18  19
ENDBRANCH  17  18
ENDBRANCH   2  17
TORSDOF 7
ENDMDL
MODEL 6
REMARK VINA RESULT:      -8.0      4.971      8.356
REMARK  Name = 
REMARK  8 active torsions:
REMARK  status: ('A' for Active; 'I' for Inactive)
REMARK    1  A    between atoms: C_1  and  C_2
REMARK    2  A    between atoms: C_8  and  C_9
REMARK    3  A    between atoms: C_9  and  C_22
REMARK    4  A    between atoms: C_10  and  C_11
REMARK    5  A    between atoms: C_11  and  C_12
REMARK    6  A    between atoms: C_12  and  N_13
REMARK    7  A    between atoms: C_17  and  C_18
REMARK    8  A    between atoms: C_18  and  O_20
REMARK                            x       y       z     vdW  Elec       q    Type
REMARK                         _______ _______ _______ _____ _____    ______ ____
ROOT
ATOM      1  C   UNL     1       3.223   5.789  18.011  0.00  0.00    +0.000 C 
ATOM      2  C   UNL     1       4.256   5.819  17.122  0.00  0.00    +0.000 C 
ENDROOT
BRANCH   1  10
ATOM      3  C   UNL     1       1.924   6.218  20.802  0.00  0.00    +0.000 C 
ATOM      4  C   UNL     1       2.008   7.279  19.738  0.00  0.00    +0.000 A 
ATOM      5  C   UNL     1       1.416   8.518  20.058  0.00  0.00    +0.000 A 
ATOM      6  C   UNL     1       1.388   9.557  19.135  0.00  0.00    +0.000 A 
ATOM      7  F   UNL     1       0.816  10.723  19.472  0.00  0.00    +0.000 F 
ATOM      8  C   UNL     1       1.924   9.381  17.878  0.00  0.00    +0.000 A 
ATOM      9  C   UNL     1       2.514   8.150  17.535  0.00  0.00    +0.000 A 
ATOM     10  C   UNL     1       2.579   7.076  18.455  0.00  0.00    +0.000 A 
ENDBRANCH   1  10
BRANCH   1  11
ATOM     11  C   UNL     1       2.749   4.444  18.442  0.00  0.00    +0.000 A 
ATOM     12  C   UNL     1       1.479   3.989  18.055  0.00  0.00    +0.000 A 
ATOM     13  C   UNL     1       0.992   2.755  18.499  0.00  0.00    +0.000 A 
ATOM     14  C   UNL     1       1.775   1.951  19.322  0.00  0.00    +0.000 A 
ATOM     15  C   UNL     1       3.025   2.398  19.742  0.00  0.00    +0.000 A 
ATOM     16  C   UNL     1       3.501   3.648  19.325  0.00  0.00    +0.000 A 
ENDBRANCH   1  11
BRANCH   2  17
ATOM     17  C   UNL     1       4.898   4.570  16.538  0.00  0.00    +0.000 C 
BRANCH  17  18
ATOM     18  C   UNL     1       6.338   4.708  16.007  0.00  0.00    +0.000 C 
BRANCH  18  19
ATOM     19  N   UNL     1       6.388   4.917  14.535  0.00  0.00    +0.000 NA
ATOM     20  C   UNL     1       7.766   5.118  14.052  0.00  0.00    +0.000 C 
ATOM     21  C   UNL     1       7.804   5.357  12.543  0.00  0.00    +0.000 C 
ATOM     22  C   UNL     1       7.155   4.211  11.784  0.00  0.00    +0.000 C 
ATOM     23  C   UNL     1       5.748   3.944  12.321  0.00  0.00    +0.000 C 
ATOM     24  C   UNL     1       5.759   3.771  13.848  0.00  0.00    +0.000 C 
BRANCH  23  25
ATOM     25  C   UNL     1       5.170   2.693  11.681  0.00  0.00    +0.000 C 
ATOM     26  O   UNL     1       5.747   1.628  11.579  0.00  0.00    +0.000 OA
BRANCH  25  27
ATOM     27  O   UNL     1       3.920   2.874  11.189  0.00  0.00    +0.000 OA
ATOM     28  H   UNL     1       3.710   2.320  10.411  0.00  0.00    +0.000 HD
ENDBRANCH  25  27
ENDBRANCH  23  25
ENDBRANCH  18  19
ENDBRANCH  17  18
ENDBRANCH   2  17
TORSDOF 7
ENDMDL
MODEL 7
REMARK VINA RESULT:      -8.0      2.372      2.804
REMARK  Name = 
REMARK  8 active torsions:
REMARK  status: ('A' for Active; 'I' for Inactive)
REMARK    1  A    between atoms: C_1  and  C_2
REMARK    2  A    between atoms: C_8  and  C_9
REMARK    3  A    between atoms: C_9  and  C_22
REMARK    4  A    between atoms: C_10  and  C_11
REMARK    5  A    between atoms: C_11  and  C_12
REMARK    6  A    between atoms: C_12  and  N_13
REMARK    7  A    between atoms: C_17  and  C_18
REMARK    8  A    between atoms: C_18  and  O_20
REMARK                            x       y       z     vdW  Elec       q    Type
REMARK                         _______ _______ _______ _____ _____    ______ ____
ROOT
ATOM      1  C   UNL     1       3.549   6.309  17.825  0.00  0.00    +0.000 C 
ATOM      2  C   UNL     1       3.205   7.626  17.772  0.00  0.00    +0.000 C 
ENDROOT
BRANCH   1  10
ATOM      3  C   UNL     1       6.144   5.364  19.251  0.00  0.00    +0.000 C 
ATOM      4  C   UNL     1       5.957   5.373  17.758  0.00  0.00    +0.000 A 
ATOM      5  C   UNL     1       7.068   4.951  16.998  0.00  0.00    +0.000 A 
ATOM      6  C   UNL     1       7.029   4.965  15.608  0.00  0.00    +0.000 A 
ATOM      7  F   UNL     1       8.103   4.558  14.915  0.00  0.00    +0.000 F 
ATOM      8  C   UNL     1       5.904   5.414  14.951  0.00  0.00    +0.000 A 
ATOM      9  C   UNL     1       4.787   5.846  15.690  0.00  0.00    +0.000 A 
ATOM     10  C   UNL     1       4.782   5.827  17.106  0.00  0.00    +0.000 A 
ENDBRANCH   1  10
BRANCH   1  11
ATOM     11  C   UNL     1       2.694   5.427  18.668  0.00  0.00    +0.000 A 
ATOM     12  C   UNL     1       1.877   4.457  18.066  0.00  0.00    +0.000 A 
ATOM     13  C   UNL     1       1.022   3.660  18.835  0.00  0.00    +0.000 A 
ATOM     14  C   UNL     1       0.983   3.812  20.218  0.00  0.00    +0.000 A 
ATOM     15  C   UNL     1       1.763   4.790  20.830  0.00  0.00    +0.000 A 
ATOM     16  C   UNL     1       2.596   5.610  20.059  0.00  0.00    +0.000 A 
ENDBRANCH   1  11
BRANCH   2  17
ATOM     17  C   UNL     1       2.041   8.222  18.549  0.00  0.00    +0.000 C 
BRANCH  17  18
ATOM     18  C   UNL     1       1.770   9.727  18.357  0.00  0.00    +0.000 C 
BRANCH  18  19
ATOM     19  N   UNL     1       0.440  10.141  18.877  0.00  0.00    +0.000 NA
ATOM     20  C   UNL     1       0.431  11.548  19.317  0.00  0.00    +0.000 C 
ATOM     21  C   UNL     1      -0.933  11.955  19.872  0.00  0.00    +0.000 C 
ATOM     22  C   UNL     1      -2.038  11.728  18.852  0.00  0.00    +0.000 C 
ATOM     23  C   UNL     1      -1.998  10.289  18.334  0.00  0.00    +0.000 C 
ATOM     24  C   UNL     1      -0.591   9.913  17.844  0.00  0.00    +0.000 C 
BRANCH  23  25
ATOM     25  C   UNL     1      -2.988  10.114  17.194  0.00  0.00    +0.000 C 
ATOM     26  O   UNL     1      -2.699   9.779  16.062  0.00  0.00    +0.000 OA
BRANCH  25  27
ATOM     27  O   UNL     1      -4.264  10.397  17.548  0.00  0.00    +0.000 OA
ATOM     28  H   UNL     1      -4.846  10.633  16.798  0.00  0.00    +0.000 HD
ENDBRANCH  25  27
ENDBRANCH  23  25
ENDBRANCH  18  19
ENDBRANCH  17  18
ENDBRANCH   2  17
TORSDOF 7
ENDMDL
MODEL 8
REMARK VINA RESULT:      -8.0      1.590      2.584
REMARK  Name = 
REMARK  8 active torsions:
REMARK  status: ('A' for Active; 'I' for Inactive)
REMARK    1  A    between atoms: C_1  and  C_2
REMARK    2  A    between atoms: C_8  and  C_9
REMARK    3  A    between atoms: C_9  and  C_22
REMARK    4  A    between atoms: C_10  and  C_11
REMARK    5  A    between atoms: C_11  and  C_12
REMARK    6  A    between atoms: C_12  and  N_13
REMARK    7  A    between atoms: C_17  and  C_18
REMARK    8  A    between atoms: C_18  and  O_20
REMARK                            x       y       z     vdW  Elec       q    Type
REMARK                         _______ _______ _______ _____ _____    ______ ____
ROOT
ATOM      1  C   UNL     1       3.695   5.921  18.162  0.00  0.00    +0.000 C 
ATOM      2  C   UNL     1       3.375   7.183  17.758  0.00  0.00    +0.000 C 
ENDROOT
BRANCH   1  10
ATOM      3  C   UNL     1       4.970   4.583  15.663  0.00  0.00    +0.000 C 
ATOM      4  C   UNL     1       5.712   4.863  16.942  0.00  0.00    +0.000 A 
ATOM      5  C   UNL     1       7.058   4.442  16.976  0.00  0.00    +0.000 A 
ATOM      6  C   UNL     1       7.829   4.602  18.121  0.00  0.00    +0.000 A 
ATOM      7  F   UNL     1       9.105   4.191  18.120  0.00  0.00    +0.000 F 
ATOM      8  C   UNL     1       7.277   5.159  19.255  0.00  0.00    +0.000 A 
ATOM      9  C   UNL     1       5.933   5.579  19.245  0.00  0.00    +0.000 A 
ATOM     10  C   UNL     1       5.124   5.451  18.091  0.00  0.00    +0.000 A 
ENDBRANCH   1  10
BRANCH   1  11
ATOM     11  C   UNL     1       2.587   5.096  18.721  0.00  0.00    +0.000 A 
ATOM     12  C   UNL     1       2.260   5.188  20.082  0.00  0.00    +0.000 A 
ATOM     13  C   UNL     1       1.265   4.378  20.639  0.00  0.00    +0.000 A 
ATOM     14  C   UNL     1       0.569   3.477  19.837  0.00  0.00    +0.000 A 
ATOM     15  C   UNL     1       0.900   3.349  18.491  0.00  0.00    +0.000 A 
ATOM     16  C   UNL     1       1.919   4.136  17.939  0.00  0.00    +0.000 A 
ENDBRANCH   1  11
BRANCH   2  17
ATOM     17  C   UNL     1       1.983   7.779  17.889  0.00  0.00    +0.000 C 
BRANCH  17  18
ATOM     18  C   UNL     1       1.890   9.236  18.383  0.00  0.00    +0.000 C 
BRANCH  18  19
ATOM     19  N   UNL     1       0.847   9.422  19.427  0.00  0.00    +0.000 NA
ATOM     20  C   UNL     1       1.170   8.694  20.667  0.00  0.00    +0.000 C 
ATOM     21  C   UNL     1       0.080   8.871  21.724  0.00  0.00    +0.000 C 
ATOM     22  C   UNL     1      -0.154  10.340  22.037  0.00  0.00    +0.000 C 
ATOM     23  C   UNL     1      -0.422  11.124  20.751  0.00  0.00    +0.000 C 
ATOM     24  C   UNL     1       0.670  10.863  19.702  0.00  0.00    +0.000 C 
BRANCH  23  25
ATOM     25  C   UNL     1      -0.485  12.613  21.046  0.00  0.00    +0.000 C 
ATOM     26  O   UNL     1      -0.886  13.463  20.275  0.00  0.00    +0.000 OA
BRANCH  25  27
ATOM     27  O   UNL     1      -0.017  12.934  22.277  0.00  0.00    +0.000 OA
ATOM     28  H   UNL     1       0.671  12.327  22.615  0.00  0.00    +0.000 HD
ENDBRANCH  25  27
ENDBRANCH  23  25
ENDBRANCH  18  19
ENDBRANCH  17  18
ENDBRANCH   2  17
TORSDOF 7
ENDMDL
MODEL 9
REMARK VINA RESULT:      -8.0      1.972      2.891
REMARK  Name = 
REMARK  8 active torsions:
REMARK  status: ('A' for Active; 'I' for Inactive)
REMARK    1  A    between atoms: C_1  and  C_2
REMARK    2  A    between atoms: C_8  and  C_9
REMARK    3  A    between atoms: C_9  and  C_22
REMARK    4  A    between atoms: C_10  and  C_11
REMARK    5  A    between atoms: C_11  and  C_12
REMARK    6  A    between atoms: C_12  and  N_13
REMARK    7  A    between atoms: C_17  and  C_18
REMARK    8  A    between atoms: C_18  and  O_20
REMARK                            x       y       z     vdW  Elec       q    Type
REMARK                         _______ _______ _______ _____ _____    ______ ____
ROOT
ATOM      1  C   UNL     1       3.655   5.863  18.197  0.00  0.00    +0.000 C 
ATOM      2  C   UNL     1       3.323   7.131  17.825  0.00  0.00    +0.000 C 
ENDROOT
BRANCH   1  10
ATOM      3  C   UNL     1       4.897   4.456  15.719  0.00  0.00    +0.000 C 
ATOM      4  C   UNL     1       5.662   4.790  16.972  0.00  0.00    +0.000 A 
ATOM      5  C   UNL     1       7.013   4.387  16.991  0.00  0.00    +0.000 A 
ATOM      6  C   UNL     1       7.805   4.596  18.114  0.00  0.00    +0.000 A 
ATOM      7  F   UNL     1       9.087   4.201  18.100  0.00  0.00    +0.000 F 
ATOM      8  C   UNL     1       7.269   5.184  19.240  0.00  0.00    +0.000 A 
ATOM      9  C   UNL     1       5.920   5.587  19.244  0.00  0.00    +0.000 A 
ATOM     10  C   UNL     1       5.089   5.409  18.113  0.00  0.00    +0.000 A 
ENDBRANCH   1  10
BRANCH   1  11
ATOM     11  C   UNL     1       2.557   5.014  18.738  0.00  0.00    +0.000 A 
ATOM     12  C   UNL     1       2.213   5.091  20.096  0.00  0.00    +0.000 A 
ATOM     13  C   UNL     1       1.226   4.260  20.636  0.00  0.00    +0.000 A 
ATOM     14  C   UNL     1       0.557   3.350  19.821  0.00  0.00    +0.000 A 
ATOM     15  C   UNL     1       0.906   3.238  18.477  0.00  0.00    +0.000 A 
ATOM     16  C   UNL     1       1.916   4.047  17.942  0.00  0.00    +0.000 A 
ENDBRANCH   1  11
BRANCH   2  17
ATOM     17  C   UNL     1       1.925   7.711  17.973  0.00  0.00    +0.000 C 
BRANCH  17  18
ATOM     18  C   UNL     1       1.808   9.246  18.046  0.00  0.00    +0.000 C 
BRANCH  18  19
ATOM     19  N   UNL     1       0.670   9.694  18.893  0.00  0.00    +0.000 NA
ATOM     20  C   UNL     1       0.905   9.426  20.323  0.00  0.00    +0.000 C 
ATOM     21  C   UNL     1      -0.280   9.868  21.180  0.00  0.00    +0.000 C 
ATOM     22  C   UNL     1      -0.591  11.342  20.978  0.00  0.00    +0.000 C 
ATOM     23  C   UNL     1      -0.769  11.651  19.491  0.00  0.00    +0.000 C 
ATOM     24  C   UNL     1       0.420  11.133  18.668  0.00  0.00    +0.000 C 
BRANCH  23  25
ATOM     25  C   UNL     1      -0.909  13.149  19.278  0.00  0.00    +0.000 C 
ATOM     26  O   UNL     1      -1.036  13.972  20.163  0.00  0.00    +0.000 OA
BRANCH  25  27
ATOM     27  O   UNL     1      -0.906  13.506  17.971  0.00  0.00    +0.000 OA
ATOM     28  H   UNL     1      -0.171  14.098  17.718  0.00  0.00    +0.000 HD
ENDBRANCH  25  27
ENDBRANCH  23  25
ENDBRANCH  18  19
ENDBRANCH  17  18
ENDBRANCH   2  17
TORSDOF 7
ENDMDL
