MODEL 1
REMARK VINA RESULT:      -9.7      0.000      0.000
REMARK  Name = 
REMARK  6 active torsions:
REMARK  status: ('A' for Active; 'I' for Inactive)
REMARK    1  A    between atoms: C_1  and  C_2
REMARK    2  A    between atoms: C_2  and  C_3
REMARK    3  A    between atoms: C_2  and  C_4
REMARK    4  A    between atoms: C_8  and  C_9
REMARK    5  A    between atoms: C_11  and  C_12
REMARK    6  A    between atoms: C_17  and  C_18
REMARK                            x       y       z     vdW  Elec       q    Type
REMARK                         _______ _______ _______ _____ _____    ______ ____
ROOT
ATOM      1  C   UNL     1       6.641   4.310  13.905  0.00  0.00    +0.000 A 
ATOM      2  C   UNL     1       5.502   3.788  14.570  0.00  0.00    +0.000 A 
ATOM      3  C   UNL     1       5.408   4.510  15.724  0.00  0.00    +0.000 A 
ATOM      4  N   UNL     1       4.522   4.531  16.748  0.00  0.00    +0.000 N 
ATOM      5  C   UNL     1       4.666   5.410  17.803  0.00  0.00    +0.000 A 
ATOM      6  C   UNL     1       5.700   6.273  17.881  0.00  0.00    +0.000 A 
ATOM      7  C   UNL     1       6.723   6.297  16.789  0.00  0.00    +0.000 A 
ATOM      8  O   UNL     1       7.689   7.055  16.793  0.00  0.00    +0.000 OA
ATOM      9  N   UNL     1       6.483   5.380  15.751  0.00  0.00    +0.000 N 
ATOM     10  N   UNL     1       7.249   5.267  14.625  0.00  0.00    +0.000 NA
ATOM     11  H   UNL     1       3.675   3.959  16.738  0.00  0.00    +0.000 HD
ENDROOT
BRANCH   5  12
ATOM     12  C   UNL     1       3.635   5.393  18.855  0.00  0.00    +0.000 A 
ATOM     13  C   UNL     1       3.275   4.184  19.468  0.00  0.00    +0.000 A 
ATOM     14  C   UNL     1       2.294   4.143  20.473  0.00  0.00    +0.000 A 
ATOM     15  C   UNL     1       1.677   5.338  20.869  0.00  0.00    +0.000 A 
ATOM     16  C   UNL     1       2.025   6.565  20.274  0.00  0.00    +0.000 A 
ATOM     17  C   UNL     1       3.006   6.579  19.265  0.00  0.00    +0.000 A 
BRANCH  14  18
ATOM     18  C   UNL     1       1.912   2.830  21.119  0.00  0.00    +0.000 C 
ATOM     19  F   UNL     1       0.790   2.923  21.886  0.00  0.00    +0.000 F 
ATOM     20  F   UNL     1       1.660   1.856  20.203  0.00  0.00    +0.000 F 
ATOM     21  F   UNL     1       2.885   2.341  21.935  0.00  0.00    +0.000 F 
ENDBRANCH  14  18
BRANCH  16  22
ATOM     22  C   UNL     1       1.348   7.839  20.726  0.00  0.00    +0.000 C 
ATOM     23  F   UNL     1       1.184   8.740  19.717  0.00  0.00    +0.000 F 
ATOM     24  F   UNL     1       0.103   7.615  21.229  0.00  0.00    +0.000 F 
ATOM     25  F   UNL     1       2.041   8.489  21.698  0.00  0.00    +0.000 F 
ENDBRANCH  16  22
ENDBRANCH   5  12
BRANCH   1  27
ATOM     26  C   UNL     1       6.036   3.042  11.840  0.00  0.00    +0.000 C 
ATOM     27  C   UNL     1       7.088   3.926  12.516  0.00  0.00    +0.000 C 
ATOM     28  C   UNL     1       7.441   5.103  11.609  0.00  0.00    +0.000 C 
ENDBRANCH   1  27
TORSDOF 4
ENDMDL
MODEL 2
REMARK VINA RESULT:      -9.7      0.146      3.365
REMARK  Name = 
REMARK  6 active torsions:
REMARK  status: ('A' for Active; 'I' for Inactive)
REMARK    1  A    between atoms: C_1  and  C_2
REMARK    2  A    between atoms: C_2  and  C_3
REMARK    3  A    between atoms: C_2  and  C_4
REMARK    4  A    between atoms: C_8  and  C_9
REMARK    5  A    between atoms: C_11  and  C_12
REMARK    6  A    between atoms: C_17  and  C_18
REMARK                            x       y       z     vdW  Elec       q    Type
REMARK                         _______ _______ _______ _____ _____    ______ ____
ROOT
ATOM      1  C   UNL     1       6.745   4.484  13.994  0.00  0.00    +0.000 A 
ATOM      2  C   UNL     1       5.597   3.941  14.627  0.00  0.00    +0.000 A 
ATOM      3  C   UNL     1       5.487   4.626  15.803  0.00  0.00    +0.000 A 
ATOM      4  N   UNL     1       4.588   4.614  16.815  0.00  0.00    +0.000 N 
ATOM      5  C   UNL     1       4.719   5.458  17.899  0.00  0.00    +0.000 A 
ATOM      6  C   UNL     1       5.751   6.318  18.018  0.00  0.00    +0.000 A 
ATOM      7  C   UNL     1       6.789   6.377  16.942  0.00  0.00    +0.000 A 
ATOM      8  O   UNL     1       7.755   7.134  16.983  0.00  0.00    +0.000 OA
ATOM      9  N   UNL     1       6.563   5.494  15.871  0.00  0.00    +0.000 N 
ATOM     10  N   UNL     1       7.343   5.417  14.753  0.00  0.00    +0.000 NA
ATOM     11  H   UNL     1       3.742   4.043  16.775  0.00  0.00    +0.000 HD
ENDROOT
BRANCH   5  12
ATOM     12  C   UNL     1       3.673   5.408  18.937  0.00  0.00    +0.000 A 
ATOM     13  C   UNL     1       3.022   6.583  19.338  0.00  0.00    +0.000 A 
ATOM     14  C   UNL     1       2.024   6.560  20.325  0.00  0.00    +0.000 A 
ATOM     15  C   UNL     1       1.671   5.333  20.905  0.00  0.00    +0.000 A 
ATOM     16  C   UNL     1       2.305   4.139  20.516  0.00  0.00    +0.000 A 
ATOM     17  C   UNL     1       3.307   4.189  19.530  0.00  0.00    +0.000 A 
BRANCH  14  18
ATOM     18  C   UNL     1       1.336   7.838  20.752  0.00  0.00    +0.000 C 
ATOM     19  F   UNL     1       1.205   8.735  19.736  0.00  0.00    +0.000 F 
ATOM     20  F   UNL     1       0.079   7.617  21.222  0.00  0.00    +0.000 F 
ATOM     21  F   UNL     1       2.003   8.488  21.744  0.00  0.00    +0.000 F 
ENDBRANCH  14  18
BRANCH  16  22
ATOM     22  C   UNL     1       1.900   2.830  21.155  0.00  0.00    +0.000 C 
ATOM     23  F   UNL     1       1.616   1.859  20.241  0.00  0.00    +0.000 F 
ATOM     24  F   UNL     1       2.876   2.317  21.952  0.00  0.00    +0.000 F 
ATOM     25  F   UNL     1       0.791   2.943  21.934  0.00  0.00    +0.000 F 
ENDBRANCH  16  22
ENDBRANCH   5  12
BRANCH   1  27
ATOM     26  C   UNL     1       6.201   3.224  11.907  0.00  0.00    +0.000 C 
ATOM     27  C   UNL     1       7.210   4.144  12.600  0.00  0.00    +0.000 C 
ATOM     28  C   UNL     1       7.509   5.351  11.713  0.00  0.00    +0.000 C 
ENDBRANCH   1  27
TORSDOF 4
ENDMDL
MODEL 3
REMARK VINA RESULT:      -9.7      0.097      1.008
REMARK  Name = 
REMARK  6 active torsions:
REMARK  status: ('A' for Active; 'I' for Inactive)
REMARK    1  A    between atoms: C_1  and  C_2
REMARK    2  A    between atoms: C_2  and  C_3
REMARK    3  A    between atoms: C_2  and  C_4
REMARK    4  A    between atoms: C_8  and  C_9
REMARK    5  A    between atoms: C_11  and  C_12
REMARK    6  A    between atoms: C_17  and  C_18
REMARK                            x       y       z     vdW  Elec       q    Type
REMARK                         _______ _______ _______ _____ _____    ______ ____
ROOT
ATOM      1  C   UNL     1       6.726   4.389  13.894  0.00  0.00    +0.000 A 
ATOM      2  C   UNL     1       5.569   3.870  14.530  0.00  0.00    +0.000 A 
ATOM      3  C   UNL     1       5.472   4.562  15.702  0.00  0.00    +0.000 A 
ATOM      4  N   UNL     1       4.573   4.570  16.715  0.00  0.00    +0.000 N 
ATOM      5  C   UNL     1       4.718   5.418  17.795  0.00  0.00    +0.000 A 
ATOM      6  C   UNL     1       5.766   6.260  17.909  0.00  0.00    +0.000 A 
ATOM      7  C   UNL     1       6.804   6.295  16.833  0.00  0.00    +0.000 A 
ATOM      8  O   UNL     1       7.783   7.035  16.870  0.00  0.00    +0.000 OA
ATOM      9  N   UNL     1       6.562   5.411  15.766  0.00  0.00    +0.000 N 
ATOM     10  N   UNL     1       7.341   5.315  14.648  0.00  0.00    +0.000 NA
ATOM     11  H   UNL     1       3.717   4.015  16.678  0.00  0.00    +0.000 HD
ENDROOT
BRANCH   5  12
ATOM     12  C   UNL     1       3.672   5.391  18.833  0.00  0.00    +0.000 A 
ATOM     13  C   UNL     1       3.302   4.176  19.427  0.00  0.00    +0.000 A 
ATOM     14  C   UNL     1       2.308   4.125  20.417  0.00  0.00    +0.000 A 
ATOM     15  C   UNL     1       1.688   5.317  20.819  0.00  0.00    +0.000 A 
ATOM     16  C   UNL     1       2.046   6.550  20.242  0.00  0.00    +0.000 A 
ATOM     17  C   UNL     1       3.040   6.574  19.247  0.00  0.00    +0.000 A 
BRANCH  14  18
ATOM     18  C   UNL     1       1.914   2.806  21.043  0.00  0.00    +0.000 C 
ATOM     19  F   UNL     1       2.816   2.364  21.962  0.00  0.00    +0.000 F 
ATOM     20  F   UNL     1       0.721   2.877  21.693  0.00  0.00    +0.000 F 
ATOM     21  F   UNL     1       1.788   1.806  20.129  0.00  0.00    +0.000 F 
ENDBRANCH  14  18
BRANCH  16  22
ATOM     22  C   UNL     1       1.365   7.820  20.700  0.00  0.00    +0.000 C 
ATOM     23  F   UNL     1       0.107   7.604  21.181  0.00  0.00    +0.000 F 
ATOM     24  F   UNL     1       2.044   8.441  21.702  0.00  0.00    +0.000 F 
ATOM     25  F   UNL     1       1.231   8.736  19.705  0.00  0.00    +0.000 F 
ENDBRANCH  16  22
ENDBRANCH   5  12
BRANCH   1  27
ATOM     26  C   UNL     1       6.187   3.085  11.834  0.00  0.00    +0.000 C 
ATOM     27  C   UNL     1       7.185   4.035  12.502  0.00  0.00    +0.000 C 
ATOM     28  C   UNL     1       7.454   5.232  11.592  0.00  0.00    +0.000 C 
ENDBRANCH   1  27
TORSDOF 4
ENDMDL
MODEL 4
REMARK VINA RESULT:      -9.4      0.489      3.381
REMARK  Name = 
REMARK  6 active torsions:
REMARK  status: ('A' for Active; 'I' for Inactive)
REMARK    1  A    between atoms: C_1  and  C_2
REMARK    2  A    between atoms: C_2  and  C_3
REMARK    3  A    between atoms: C_2  and  C_4
REMARK    4  A    between atoms: C_8  and  C_9
REMARK    5  A    between atoms: C_11  and  C_12
REMARK    6  A    between atoms: C_17  and  C_18
REMARK                            x       y       z     vdW  Elec       q    Type
REMARK                         _______ _______ _______ _____ _____    ______ ____
ROOT
ATOM      1  C   UNL     1       6.767   4.515  13.938  0.00  0.00    +0.000 A 
ATOM      2  C   UNL     1       5.567   4.010  14.502  0.00  0.00    +0.000 A 
ATOM      3  C   UNL     1       5.425   4.679  15.683  0.00  0.00    +0.000 A 
ATOM      4  N   UNL     1       4.475   4.687  16.648  0.00  0.00    +0.000 N 
ATOM      5  C   UNL     1       4.584   5.507  17.754  0.00  0.00    +0.000 A 
ATOM      6  C   UNL     1       5.643   6.320  17.941  0.00  0.00    +0.000 A 
ATOM      7  C   UNL     1       6.737   6.354  16.920  0.00  0.00    +0.000 A 
ATOM      8  O   UNL     1       7.729   7.070  17.025  0.00  0.00    +0.000 OA
ATOM      9  N   UNL     1       6.530   5.500  15.823  0.00  0.00    +0.000 N 
ATOM     10  N   UNL     1       7.363   5.410  14.744  0.00  0.00    +0.000 NA
ATOM     11  H   UNL     1       3.610   4.153  16.554  0.00  0.00    +0.000 HD
ENDROOT
BRANCH   5  12
ATOM     12  C   UNL     1       3.486   5.482  18.736  0.00  0.00    +0.000 A 
ATOM     13  C   UNL     1       2.985   6.681  19.262  0.00  0.00    +0.000 A 
ATOM     14  C   UNL     1       1.939   6.683  20.199  0.00  0.00    +0.000 A 
ATOM     15  C   UNL     1       1.386   5.459  20.601  0.00  0.00    +0.000 A 
ATOM     16  C   UNL     1       1.866   4.242  20.083  0.00  0.00    +0.000 A 
ATOM     17  C   UNL     1       2.920   4.266  19.150  0.00  0.00    +0.000 A 
BRANCH  14  18
ATOM     18  C   UNL     1       1.416   7.984  20.764  0.00  0.00    +0.000 C 
ATOM     19  F   UNL     1       2.146   8.437  21.820  0.00  0.00    +0.000 F 
ATOM     20  F   UNL     1       1.424   8.988  19.845  0.00  0.00    +0.000 F 
ATOM     21  F   UNL     1       0.133   7.888  21.208  0.00  0.00    +0.000 F 
ENDBRANCH  14  18
BRANCH  16  22
ATOM     22  C   UNL     1       1.246   2.937  20.530  0.00  0.00    +0.000 C 
ATOM     23  F   UNL     1       1.041   2.881  21.877  0.00  0.00    +0.000 F 
ATOM     24  F   UNL     1       0.029   2.719  19.960  0.00  0.00    +0.000 F 
ATOM     25  F   UNL     1       2.010   1.855  20.223  0.00  0.00    +0.000 F 
ENDBRANCH  16  22
ENDBRANCH   5  12
BRANCH   1  27
ATOM     26  C   UNL     1       6.363   3.180  11.867  0.00  0.00    +0.000 C 
ATOM     27  C   UNL     1       7.290   4.181  12.564  0.00  0.00    +0.000 C 
ATOM     28  C   UNL     1       7.527   5.388  11.657  0.00  0.00    +0.000 C 
ENDBRANCH   1  27
TORSDOF 4
ENDMDL
MODEL 5
REMARK VINA RESULT:      -9.2      4.119      7.606
REMARK  Name = 
REMARK  6 active torsions:
REMARK  status: ('A' for Active; 'I' for Inactive)
REMARK    1  A    between atoms: C_1  and  C_2
REMARK    2  A    between atoms: C_2  and  C_3
REMARK    3  A    between atoms: C_2  and  C_4
REMARK    4  A    between atoms: C_8  and  C_9
REMARK    5  A    between atoms: C_11  and  C_12
REMARK    6  A    between atoms: C_17  and  C_18
REMARK                            x       y       z     vdW  Elec       q    Type
REMARK                         _______ _______ _______ _____ _____    ______ ____
ROOT
ATOM      1  C   UNL     1       0.491   9.902  21.211  0.00  0.00    +0.000 A 
ATOM      2  C   UNL     1       0.966   8.586  21.445  0.00  0.00    +0.000 A 
ATOM      3  C   UNL     1       1.597   8.229  20.288  0.00  0.00    +0.000 A 
ATOM      4  N   UNL     1       2.290   7.133  19.897  0.00  0.00    +0.000 N 
ATOM      5  C   UNL     1       2.856   7.055  18.640  0.00  0.00    +0.000 A 
ATOM      6  C   UNL     1       2.732   8.047  17.735  0.00  0.00    +0.000 A 
ATOM      7  C   UNL     1       1.969   9.283  18.096  0.00  0.00    +0.000 A 
ATOM      8  O   UNL     1       1.815  10.225  17.323  0.00  0.00    +0.000 OA
ATOM      9  N   UNL     1       1.445   9.279  19.400  0.00  0.00    +0.000 N 
ATOM     10  N   UNL     1       0.767  10.322  19.965  0.00  0.00    +0.000 NA
ATOM     11  H   UNL     1       2.489   6.366  20.540  0.00  0.00    +0.000 HD
ENDROOT
BRANCH   5  12
ATOM     12  C   UNL     1       3.628   5.844  18.311  0.00  0.00    +0.000 A 
ATOM     13  C   UNL     1       3.032   4.579  18.419  0.00  0.00    +0.000 A 
ATOM     14  C   UNL     1       3.748   3.410  18.112  0.00  0.00    +0.000 A 
ATOM     15  C   UNL     1       5.078   3.522  17.680  0.00  0.00    +0.000 A 
ATOM     16  C   UNL     1       5.696   4.780  17.558  0.00  0.00    +0.000 A 
ATOM     17  C   UNL     1       4.960   5.936  17.878  0.00  0.00    +0.000 A 
BRANCH  14  18
ATOM     18  C   UNL     1       3.094   2.053  18.240  0.00  0.00    +0.000 C 
ATOM     19  F   UNL     1       2.447   1.886  19.427  0.00  0.00    +0.000 F 
ATOM     20  F   UNL     1       2.164   1.832  17.272  0.00  0.00    +0.000 F 
ATOM     21  F   UNL     1       3.985   1.028  18.151  0.00  0.00    +0.000 F 
ENDBRANCH  14  18
BRANCH  16  22
ATOM     22  C   UNL     1       7.129   4.870  17.084  0.00  0.00    +0.000 C 
ATOM     23  F   UNL     1       7.315   4.322  15.850  0.00  0.00    +0.000 F 
ATOM     24  F   UNL     1       7.565   6.156  16.989  0.00  0.00    +0.000 F 
ATOM     25  F   UNL     1       8.000   4.232  17.910  0.00  0.00    +0.000 F 
ENDBRANCH  16  22
ENDBRANCH   5  12
BRANCH   1  27
ATOM     26  C   UNL     1      -1.106  11.788  21.571  0.00  0.00    +0.000 C 
ATOM     27  C   UNL     1      -0.164  10.785  22.244  0.00  0.00    +0.000 C 
ATOM     28  C   UNL     1      -0.904  10.037  23.351  0.00  0.00    +0.000 C 
ENDBRANCH   1  27
TORSDOF 4
ENDMDL
MODEL 6
REMARK VINA RESULT:      -9.2      4.104      7.944
REMARK  Name = 
REMARK  6 active torsions:
REMARK  status: ('A' for Active; 'I' for Inactive)
REMARK    1  A    between atoms: C_1  and  C_2
REMARK    2  A    between atoms: C_2  and  C_3
REMARK    3  A    between atoms: C_2  and  C_4
REMARK    4  A    between atoms: C_8  and  C_9
REMARK    5  A    between atoms: C_11  and  C_12
REMARK    6  A    between atoms: C_17  and  C_18
REMARK                            x       y       z     vdW  Elec       q    Type
REMARK                         _______ _______ _______ _____ _____    ______ ____
ROOT
ATOM      1  C   UNL     1       0.497   9.919  21.183  0.00  0.00    +0.000 A 
ATOM      2  C   UNL     1       0.932   8.588  21.409  0.00  0.00    +0.000 A 
ATOM      3  C   UNL     1       1.576   8.230  20.260  0.00  0.00    +0.000 A 
ATOM      4  N   UNL     1       2.248   7.122  19.868  0.00  0.00    +0.000 N 
ATOM      5  C   UNL     1       2.837   7.044  18.621  0.00  0.00    +0.000 A 
ATOM      6  C   UNL     1       2.756   8.051  17.727  0.00  0.00    +0.000 A 
ATOM      7  C   UNL     1       2.018   9.301  18.089  0.00  0.00    +0.000 A 
ATOM      8  O   UNL     1       1.905  10.257  17.326  0.00  0.00    +0.000 OA
ATOM      9  N   UNL     1       1.469   9.295  19.383  0.00  0.00    +0.000 N 
ATOM     10  N   UNL     1       0.808  10.348  19.949  0.00  0.00    +0.000 NA
ATOM     11  H   UNL     1       2.414   6.341  20.505  0.00  0.00    +0.000 HD
ENDROOT
BRANCH   5  12
ATOM     12  C   UNL     1       3.583   5.817  18.291  0.00  0.00    +0.000 A 
ATOM     13  C   UNL     1       4.914   5.899  17.856  0.00  0.00    +0.000 A 
ATOM     14  C   UNL     1       5.645   4.743  17.535  0.00  0.00    +0.000 A 
ATOM     15  C   UNL     1       5.027   3.491  17.665  0.00  0.00    +0.000 A 
ATOM     16  C   UNL     1       3.695   3.383  18.105  0.00  0.00    +0.000 A 
ATOM     17  C   UNL     1       2.981   4.555  18.414  0.00  0.00    +0.000 A 
BRANCH  14  18
ATOM     18  C   UNL     1       7.077   4.848  17.061  0.00  0.00    +0.000 C 
ATOM     19  F   UNL     1       7.279   4.258  15.850  0.00  0.00    +0.000 F 
ATOM     20  F   UNL     1       7.483   6.139  16.922  0.00  0.00    +0.000 F 
ATOM     21  F   UNL     1       7.959   4.263  17.916  0.00  0.00    +0.000 F 
ENDBRANCH  14  18
BRANCH  16  22
ATOM     22  C   UNL     1       3.057   2.018  18.241  0.00  0.00    +0.000 C 
ATOM     23  F   UNL     1       2.244   1.705  17.193  0.00  0.00    +0.000 F 
ATOM     24  F   UNL     1       3.979   1.019  18.309  0.00  0.00    +0.000 F 
ATOM     25  F   UNL     1       2.288   1.903  19.357  0.00  0.00    +0.000 F 
ENDBRANCH  16  22
ENDBRANCH   5  12
BRANCH   1  27
ATOM     26  C   UNL     1      -1.100  11.807  21.540  0.00  0.00    +0.000 C 
ATOM     27  C   UNL     1      -0.155  10.806  22.214  0.00  0.00    +0.000 C 
ATOM     28  C   UNL     1      -0.893  10.062  23.326  0.00  0.00    +0.000 C 
ENDBRANCH   1  27
TORSDOF 4
ENDMDL
MODEL 7
REMARK VINA RESULT:      -9.1      3.983      7.611
REMARK  Name = 
REMARK  6 active torsions:
REMARK  status: ('A' for Active; 'I' for Inactive)
REMARK    1  A    between atoms: C_1  and  C_2
REMARK    2  A    between atoms: C_2  and  C_3
REMARK    3  A    between atoms: C_2  and  C_4
REMARK    4  A    between atoms: C_8  and  C_9
REMARK    5  A    between atoms: C_11  and  C_12
REMARK    6  A    between atoms: C_17  and  C_18
REMARK                            x       y       z     vdW  Elec       q    Type
REMARK                         _______ _______ _______ _____ _____    ______ ____
ROOT
ATOM      1  C   UNL     1       0.576  10.038  21.202  0.00  0.00    +0.000 A 
ATOM      2  C   UNL     1       0.868   8.658  21.352  0.00  0.00    +0.000 A 
ATOM      3  C   UNL     1       1.473   8.299  20.182  0.00  0.00    +0.000 A 
ATOM      4  N   UNL     1       2.026   7.149  19.727  0.00  0.00    +0.000 N 
ATOM      5  C   UNL     1       2.606   7.080  18.476  0.00  0.00    +0.000 A 
ATOM      6  C   UNL     1       2.634   8.137  17.640  0.00  0.00    +0.000 A 
ATOM      7  C   UNL     1       2.031   9.436  18.073  0.00  0.00    +0.000 A 
ATOM      8  O   UNL     1       2.020  10.439  17.365  0.00  0.00    +0.000 OA
ATOM      9  N   UNL     1       1.481   9.416  19.367  0.00  0.00    +0.000 N 
ATOM     10  N   UNL     1       0.933  10.499  19.992  0.00  0.00    +0.000 NA
ATOM     11  H   UNL     1       2.108   6.321  20.319  0.00  0.00    +0.000 HD
ENDROOT
BRANCH   5  12
ATOM     12  C   UNL     1       3.220   5.801  18.076  0.00  0.00    +0.000 A 
ATOM     13  C   UNL     1       2.714   4.592  18.572  0.00  0.00    +0.000 A 
ATOM     14  C   UNL     1       3.283   3.361  18.206  0.00  0.00    +0.000 A 
ATOM     15  C   UNL     1       4.369   3.353  17.319  0.00  0.00    +0.000 A 
ATOM     16  C   UNL     1       4.892   4.553  16.803  0.00  0.00    +0.000 A 
ATOM     17  C   UNL     1       4.309   5.773  17.190  0.00  0.00    +0.000 A 
BRANCH  14  18
ATOM     18  C   UNL     1       2.730   2.065  18.756  0.00  0.00    +0.000 C 
ATOM     19  F   UNL     1       1.474   1.791  18.306  0.00  0.00    +0.000 F 
ATOM     20  F   UNL     1       3.493   0.991  18.417  0.00  0.00    +0.000 F 
ATOM     21  F   UNL     1       2.651   2.060  20.114  0.00  0.00    +0.000 F 
ENDBRANCH  14  18
BRANCH  16  22
ATOM     22  C   UNL     1       6.060   4.512  15.844  0.00  0.00    +0.000 C 
ATOM     23  F   UNL     1       7.257   4.334  16.472  0.00  0.00    +0.000 F 
ATOM     24  F   UNL     1       5.959   3.496  14.944  0.00  0.00    +0.000 F 
ATOM     25  F   UNL     1       6.187   5.654  15.116  0.00  0.00    +0.000 F 
ENDBRANCH  16  22
ENDBRANCH   5  12
BRANCH   1  27
ATOM     26  C   UNL     1      -0.569  12.207  21.674  0.00  0.00    +0.000 C 
ATOM     27  C   UNL     1       0.018  10.930  22.283  0.00  0.00    +0.000 C 
ATOM     28  C   UNL     1      -1.013  10.266  23.194  0.00  0.00    +0.000 C 
ENDBRANCH   1  27
TORSDOF 4
ENDMDL
MODEL 8
REMARK VINA RESULT:      -9.0      3.994      7.946
REMARK  Name = 
REMARK  6 active torsions:
REMARK  status: ('A' for Active; 'I' for Inactive)
REMARK    1  A    between atoms: C_1  and  C_2
REMARK    2  A    between atoms: C_2  and  C_3
REMARK    3  A    between atoms: C_2  and  C_4
REMARK    4  A    between atoms: C_8  and  C_9
REMARK    5  A    between atoms: C_11  and  C_12
REMARK    6  A    between atoms: C_17  and  C_18
REMARK                            x       y       z     vdW  Elec       q    Type
REMARK                         _______ _______ _______ _____ _____    ______ ____
ROOT
ATOM      1  C   UNL     1       0.516   9.922  21.105  0.00  0.00    +0.000 A 
ATOM      2  C   UNL     1       0.807   8.539  21.229  0.00  0.00    +0.000 A 
ATOM      3  C   UNL     1       1.457   8.211  20.074  0.00  0.00    +0.000 A 
ATOM      4  N   UNL     1       2.029   7.075  19.610  0.00  0.00    +0.000 N 
ATOM      5  C   UNL     1       2.656   7.040  18.380  0.00  0.00    +0.000 A 
ATOM      6  C   UNL     1       2.713   8.119  17.573  0.00  0.00    +0.000 A 
ATOM      7  C   UNL     1       2.090   9.405  18.018  0.00  0.00    +0.000 A 
ATOM      8  O   UNL     1       2.103  10.427  17.336  0.00  0.00    +0.000 OA
ATOM      9  N   UNL     1       1.492   9.350  19.289  0.00  0.00    +0.000 N 
ATOM     10  N   UNL     1       0.918  10.415  19.921  0.00  0.00    +0.000 NA
ATOM     11  H   UNL     1       2.092   6.232  20.182  0.00  0.00    +0.000 HD
ENDROOT
BRANCH   5  12
ATOM     12  C   UNL     1       3.289   5.774  17.970  0.00  0.00    +0.000 A 
ATOM     13  C   UNL     1       4.363   5.783  17.068  0.00  0.00    +0.000 A 
ATOM     14  C   UNL     1       4.981   4.590  16.662  0.00  0.00    +0.000 A 
ATOM     15  C   UNL     1       4.515   3.373  17.181  0.00  0.00    +0.000 A 
ATOM     16  C   UNL     1       3.443   3.337  18.092  0.00  0.00    +0.000 A 
ATOM     17  C   UNL     1       2.836   4.547  18.478  0.00  0.00    +0.000 A 
BRANCH  14  18
ATOM     18  C   UNL     1       6.133   4.616  15.683  0.00  0.00    +0.000 C 
ATOM     19  F   UNL     1       6.064   5.658  14.809  0.00  0.00    +0.000 F 
ATOM     20  F   UNL     1       7.338   4.727  16.304  0.00  0.00    +0.000 F 
ATOM     21  F   UNL     1       6.202   3.491  14.920  0.00  0.00    +0.000 F 
ENDBRANCH  14  18
BRANCH  16  22
ATOM     22  C   UNL     1       2.966   2.011  18.639  0.00  0.00    +0.000 C 
ATOM     23  F   UNL     1       2.926   1.983  20.002  0.00  0.00    +0.000 F 
ATOM     24  F   UNL     1       1.708   1.700  18.224  0.00  0.00    +0.000 F 
ATOM     25  F   UNL     1       3.758   0.970  18.269  0.00  0.00    +0.000 F 
ENDBRANCH  16  22
ENDBRANCH   5  12
BRANCH   1  27
ATOM     26  C   UNL     1      -1.050  11.807  21.582  0.00  0.00    +0.000 C 
ATOM     27  C   UNL     1      -0.084  10.784  22.187  0.00  0.00    +0.000 C 
ATOM     28  C   UNL     1      -0.777  10.014  23.309  0.00  0.00    +0.000 C 
ENDBRANCH   1  27
TORSDOF 4
ENDMDL
MODEL 9
REMARK VINA RESULT:      -9.0      4.014      7.965
REMARK  Name = 
REMARK  6 active torsions:
REMARK  status: ('A' for Active; 'I' for Inactive)
REMARK    1  A    between atoms: C_1  and  C_2
REMARK    2  A    between atoms: C_2  and  C_3
REMARK    3  A    between atoms: C_2  and  C_4
REMARK    4  A    between atoms: C_8  and  C_9
REMARK    5  A    between atoms: C_11  and  C_12
REMARK    6  A    between atoms: C_17  and  C_18
REMARK                            x       y       z     vdW  Elec       q    Type
REMARK                         _______ _______ _______ _____ _____    ______ ____
ROOT
ATOM      1  C   UNL     1       0.563  10.063  21.275  0.00  0.00    +0.000 A 
ATOM      2  C   UNL     1       0.851   8.682  21.424  0.00  0.00    +0.000 A 
ATOM      3  C   UNL     1       1.441   8.318  20.248  0.00  0.00    +0.000 A 
ATOM      4  N   UNL     1       1.983   7.165  19.789  0.00  0.00    +0.000 N 
ATOM      5  C   UNL     1       2.548   7.091  18.531  0.00  0.00    +0.000 A 
ATOM      6  C   UNL     1       2.571   8.146  17.692  0.00  0.00    +0.000 A 
ATOM      7  C   UNL     1       1.979   9.449  18.130  0.00  0.00    +0.000 A 
ATOM      8  O   UNL     1       1.965  10.451  17.420  0.00  0.00    +0.000 OA
ATOM      9  N   UNL     1       1.444   9.433  19.430  0.00  0.00    +0.000 N 
ATOM     10  N   UNL     1       0.909  10.521  20.060  0.00  0.00    +0.000 NA
ATOM     11  H   UNL     1       2.068   6.338  20.381  0.00  0.00    +0.000 HD
ENDROOT
BRANCH   5  12
ATOM     12  C   UNL     1       3.151   5.809  18.126  0.00  0.00    +0.000 A 
ATOM     13  C   UNL     1       4.167   5.783  17.159  0.00  0.00    +0.000 A 
ATOM     14  C   UNL     1       4.756   4.574  16.757  0.00  0.00    +0.000 A 
ATOM     15  C   UNL     1       4.322   3.378  17.345  0.00  0.00    +0.000 A 
ATOM     16  C   UNL     1       3.309   3.377  18.322  0.00  0.00    +0.000 A 
ATOM     17  C   UNL     1       2.729   4.601  18.704  0.00  0.00    +0.000 A 
BRANCH  14  18
ATOM     18  C   UNL     1       5.845   4.562  15.707  0.00  0.00    +0.000 C 
ATOM     19  F   UNL     1       7.004   5.132  16.138  0.00  0.00    +0.000 F 
ATOM     20  F   UNL     1       6.172   3.301  15.314  0.00  0.00    +0.000 F 
ATOM     21  F   UNL     1       5.494   5.233  14.576  0.00  0.00    +0.000 F 
ENDBRANCH  14  18
BRANCH  16  22
ATOM     22  C   UNL     1       2.865   2.073  18.944  0.00  0.00    +0.000 C 
ATOM     23  F   UNL     1       3.520   0.991  18.434  0.00  0.00    +0.000 F 
ATOM     24  F   UNL     1       3.081   2.038  20.287  0.00  0.00    +0.000 F 
ATOM     25  F   UNL     1       1.540   1.824  18.765  0.00  0.00    +0.000 F 
ENDBRANCH  16  22
ENDBRANCH   5  12
BRANCH   1  27
ATOM     26  C   UNL     1      -0.430  12.300  21.773  0.00  0.00    +0.000 C 
ATOM     27  C   UNL     1       0.023  10.960  22.361  0.00  0.00    +0.000 C 
ATOM     28  C   UNL     1      -1.103  10.350  23.194  0.00  0.00    +0.000 C 
ENDBRANCH   1  27
TORSDOF 4
ENDMDL
