MODEL 1
REMARK VINA RESULT:      -6.6      0.000      0.000
REMARK  Name = 
REMARK  12 active torsions:
REMARK  status: ('A' for Active; 'I' for Inactive)
REMARK    1  A    between atoms: C_1  and  C_2
REMARK    2  A    between atoms: C_2  and  C_3
REMARK    3  A    between atoms: C_2  and  C_4
REMARK    4  A    between atoms: C_4  and  N_5
REMARK    5  A    between atoms: C_4  and  C_17
REMARK    6  A    between atoms: C_6  and  C_8
REMARK    7  A    between atoms: C_8  and  N_9
REMARK    8  A    between atoms: C_8  and  C_14
REMARK    9  A    between atoms: C_10  and  C_12
REMARK   10  A    between atoms: C_12  and  S_13
REMARK   11  A    between atoms: C_14  and  C_15
REMARK   12  A    between atoms: C_14  and  O_16
REMARK                            x       y       z     vdW  Elec       q    Type
REMARK                         _______ _______ _______ _____ _____    ______ ____
ROOT
ATOM      1  N   UNL     1       4.540   4.243  18.258  0.00  0.00    +0.000 N 
ATOM      2  C   UNL     1       5.801   4.739  18.521  0.00  0.00    +0.000 C 
ATOM      3  O   UNL     1       6.302   4.752  19.642  0.00  0.00    +0.000 OA
ATOM      4  H   UNL     1       4.078   4.602  17.425  0.00  0.00    +0.000 HD
ENDROOT
BRANCH   1   5
ATOM      5  C   UNL     1       3.726   3.629  19.312  0.00  0.00    +0.000 C 
BRANCH   5   6
ATOM      6  C   UNL     1       4.019   2.119  19.460  0.00  0.00    +0.000 C 
ATOM      7  N   UNL     1       5.066   1.766  20.265  0.00  0.00    +0.000 N 
ATOM      8  O   UNL     1       3.454   1.259  18.789  0.00  0.00    +0.000 OA
ATOM      9  H   UNL     1       5.493   2.407  20.917  0.00  0.00    +0.000 HD
ATOM     10  H   UNL     1       5.268   0.780  20.352  0.00  0.00    +0.000 HD
ENDBRANCH   5   6
BRANCH   5  12
ATOM     11  C   UNL     1       1.886   4.607  17.811  0.00  0.00    +0.000 C 
ATOM     12  C   UNL     1       2.210   3.872  19.113  0.00  0.00    +0.000 C 
ATOM     13  C   UNL     1       1.587   4.616  20.298  0.00  0.00    +0.000 C 
ENDBRANCH   5  12
ENDBRANCH   1   5
BRANCH   2  14
ATOM     14  C   UNL     1       6.493   5.347  17.292  0.00  0.00    +0.000 C 
BRANCH  14  15
ATOM     15  N   UNL     1       5.968   4.686  16.090  0.00  0.00    +0.000 N 
ATOM     16  C   UNL     1       6.675   4.664  14.912  0.00  0.00    +0.000 C 
ATOM     17  O   UNL     1       7.782   5.196  14.811  0.00  0.00    +0.000 OA
ATOM     18  H   UNL     1       5.176   4.063  16.216  0.00  0.00    +0.000 HD
BRANCH  16  19
ATOM     19  C   UNL     1       5.992   3.932  13.767  0.00  0.00    +0.000 C 
BRANCH  19  20
ATOM     20  S   UNL     1       7.019   4.018  12.276  0.00  0.00    +0.000 S 
ATOM     21  H   UNL     1       6.114   3.460  11.455  0.00  0.00    +0.000 HD
ENDBRANCH  19  20
ENDBRANCH  16  19
ENDBRANCH  14  15
BRANCH  14  22
ATOM     22  C   UNL     1       6.262   6.872  17.239  0.00  0.00    +0.000 C 
ATOM     23  C   UNL     1       7.552   7.666  17.443  0.00  0.00    +0.000 C 
BRANCH  22  24
ATOM     24  O   UNL     1       5.713   7.234  15.963  0.00  0.00    +0.000 OA
ATOM     25  H   UNL     1       4.874   7.702  16.115  0.00  0.00    +0.000 HD
ENDBRANCH  22  24
ENDBRANCH  14  22
ENDBRANCH   2  14
TORSDOF 9
ENDMDL
MODEL 2
REMARK VINA RESULT:      -6.3      2.827      5.505
REMARK  Name = 
REMARK  12 active torsions:
REMARK  status: ('A' for Active; 'I' for Inactive)
REMARK    1  A    between atoms: C_1  and  C_2
REMARK    2  A    between atoms: C_2  and  C_3
REMARK    3  A    between atoms: C_2  and  C_4
REMARK    4  A    between atoms: C_4  and  N_5
REMARK    5  A    between atoms: C_4  and  C_17
REMARK    6  A    between atoms: C_6  and  C_8
REMARK    7  A    between atoms: C_8  and  N_9
REMARK    8  A    between atoms: C_8  and  C_14
REMARK    9  A    between atoms: C_10  and  C_12
REMARK   10  A    between atoms: C_12  and  S_13
REMARK   11  A    between atoms: C_14  and  C_15
REMARK   12  A    between atoms: C_14  and  O_16
REMARK                            x       y       z     vdW  Elec       q    Type
REMARK                         _______ _______ _______ _____ _____    ______ ____
ROOT
ATOM      1  N   UNL     1       5.105   5.594  17.404  0.00  0.00    +0.000 N 
ATOM      2  C   UNL     1       4.039   6.454  17.576  0.00  0.00    +0.000 C 
ATOM      3  O   UNL     1       4.032   7.610  17.165  0.00  0.00    +0.000 OA
ATOM      4  H   UNL     1       5.179   4.827  18.070  0.00  0.00    +0.000 HD
ENDROOT
BRANCH   1   5
ATOM      5  C   UNL     1       6.297   5.995  16.650  0.00  0.00    +0.000 C 
BRANCH   5   6
ATOM      6  C   UNL     1       6.720   4.917  15.627  0.00  0.00    +0.000 C 
ATOM      7  N   UNL     1       7.558   5.311  14.622  0.00  0.00    +0.000 N 
ATOM      8  O   UNL     1       6.233   3.790  15.603  0.00  0.00    +0.000 OA
ATOM      9  H   UNL     1       8.071   6.179  14.648  0.00  0.00    +0.000 HD
ATOM     10  H   UNL     1       7.826   4.611  13.943  0.00  0.00    +0.000 HD
ENDBRANCH   5   6
BRANCH   5  12
ATOM     11  C   UNL     1       7.362   5.789  18.978  0.00  0.00    +0.000 C 
ATOM     12  C   UNL     1       7.485   6.370  17.568  0.00  0.00    +0.000 C 
ATOM     13  C   UNL     1       7.693   7.886  17.649  0.00  0.00    +0.000 C 
ENDBRANCH   5  12
ENDBRANCH   1   5
BRANCH   2  14
ATOM     14  C   UNL     1       2.889   5.854  18.398  0.00  0.00    +0.000 C 
BRANCH  14  15
ATOM     15  N   UNL     1       3.011   4.391  18.367  0.00  0.00    +0.000 N 
ATOM     16  C   UNL     1       2.056   3.599  17.775  0.00  0.00    +0.000 C 
ATOM     17  O   UNL     1       1.055   4.081  17.242  0.00  0.00    +0.000 OA
ATOM     18  H   UNL     1       3.918   3.999  18.600  0.00  0.00    +0.000 HD
BRANCH  16  19
ATOM     19  C   UNL     1       2.339   2.105  17.826  0.00  0.00    +0.000 C 
BRANCH  19  20
ATOM     20  S   UNL     1       3.721   1.775  18.951  0.00  0.00    +0.000 S 
ATOM     21  H   UNL     1       4.689   1.990  18.043  0.00  0.00    +0.000 HD
ENDBRANCH  19  20
ENDBRANCH  16  19
ENDBRANCH  14  15
BRANCH  14  22
ATOM     22  C   UNL     1       2.919   6.389  19.844  0.00  0.00    +0.000 C 
ATOM     23  C   UNL     1       1.929   7.532  20.067  0.00  0.00    +0.000 C 
BRANCH  22  24
ATOM     24  O   UNL     1       2.594   5.332  20.759  0.00  0.00    +0.000 OA
ATOM     25  H   UNL     1       1.642   5.146  20.683  0.00  0.00    +0.000 HD
ENDBRANCH  22  24
ENDBRANCH  14  22
ENDBRANCH   2  14
TORSDOF 9
ENDMDL
MODEL 3
REMARK VINA RESULT:      -6.3      1.379      1.640
REMARK  Name = 
REMARK  12 active torsions:
REMARK  status: ('A' for Active; 'I' for Inactive)
REMARK    1  A    between atoms: C_1  and  C_2
REMARK    2  A    between atoms: C_2  and  C_3
REMARK    3  A    between atoms: C_2  and  C_4
REMARK    4  A    between atoms: C_4  and  N_5
REMARK    5  A    between atoms: C_4  and  C_17
REMARK    6  A    between atoms: C_6  and  C_8
REMARK    7  A    between atoms: C_8  and  N_9
REMARK    8  A    between atoms: C_8  and  C_14
REMARK    9  A    between atoms: C_10  and  C_12
REMARK   10  A    between atoms: C_12  and  S_13
REMARK   11  A    between atoms: C_14  and  C_15
REMARK   12  A    between atoms: C_14  and  O_16
REMARK                            x       y       z     vdW  Elec       q    Type
REMARK                         _______ _______ _______ _____ _____    ______ ____
ROOT
ATOM      1  N   UNL     1       4.101   4.299  18.026  0.00  0.00    +0.000 N 
ATOM      2  C   UNL     1       5.446   4.385  18.320  0.00  0.00    +0.000 C 
ATOM      3  O   UNL     1       5.926   4.039  19.395  0.00  0.00    +0.000 OA
ATOM      4  H   UNL     1       3.755   4.927  17.303  0.00  0.00    +0.000 HD
ENDROOT
BRANCH   1   5
ATOM      5  C   UNL     1       3.146   3.719  18.976  0.00  0.00    +0.000 C 
BRANCH   5   6
ATOM      6  C   UNL     1       1.931   3.089  18.259  0.00  0.00    +0.000 C 
ATOM      7  N   UNL     1       1.729   1.750  18.441  0.00  0.00    +0.000 N 
ATOM      8  O   UNL     1       1.245   3.700  17.443  0.00  0.00    +0.000 OA
ATOM      9  H   UNL     1       2.184   1.224  19.172  0.00  0.00    +0.000 HD
ATOM     10  H   UNL     1       0.942   1.332  17.962  0.00  0.00    +0.000 HD
ENDBRANCH   5   6
BRANCH   5  12
ATOM     11  C   UNL     1       1.410   4.294  20.779  0.00  0.00    +0.000 C 
ATOM     12  C   UNL     1       2.679   4.734  20.048  0.00  0.00    +0.000 C 
ATOM     13  C   UNL     1       2.482   6.136  19.463  0.00  0.00    +0.000 C 
ENDBRANCH   5  12
ENDBRANCH   1   5
BRANCH   2  14
ATOM     14  C   UNL     1       6.282   5.027  17.202  0.00  0.00    +0.000 C 
BRANCH  14  15
ATOM     15  N   UNL     1       5.864   4.447  15.919  0.00  0.00    +0.000 N 
ATOM     16  C   UNL     1       6.644   4.549  14.792  0.00  0.00    +0.000 C 
ATOM     17  O   UNL     1       7.731   5.129  14.809  0.00  0.00    +0.000 OA
ATOM     18  H   UNL     1       5.093   3.786  15.942  0.00  0.00    +0.000 HD
BRANCH  16  19
ATOM     19  C   UNL     1       6.068   3.887  13.550  0.00  0.00    +0.000 C 
BRANCH  19  20
ATOM     20  S   UNL     1       7.175   4.151  12.139  0.00  0.00    +0.000 S 
ATOM     21  H   UNL     1       6.911   5.461  12.002  0.00  0.00    +0.000 HD
ENDBRANCH  19  20
ENDBRANCH  16  19
ENDBRANCH  14  15
BRANCH  14  22
ATOM     22  C   UNL     1       6.108   6.560  17.207  0.00  0.00    +0.000 C 
ATOM     23  C   UNL     1       7.421   7.297  17.468  0.00  0.00    +0.000 C 
BRANCH  22  24
ATOM     24  O   UNL     1       5.597   6.994  15.938  0.00  0.00    +0.000 OA
ATOM     25  H   UNL     1       6.001   6.446  15.243  0.00  0.00    +0.000 HD
ENDBRANCH  22  24
ENDBRANCH  14  22
ENDBRANCH   2  14
TORSDOF 9
ENDMDL
MODEL 4
REMARK VINA RESULT:      -6.2      2.622      5.527
REMARK  Name = 
REMARK  12 active torsions:
REMARK  status: ('A' for Active; 'I' for Inactive)
REMARK    1  A    between atoms: C_1  and  C_2
REMARK    2  A    between atoms: C_2  and  C_3
REMARK    3  A    between atoms: C_2  and  C_4
REMARK    4  A    between atoms: C_4  and  N_5
REMARK    5  A    between atoms: C_4  and  C_17
REMARK    6  A    between atoms: C_6  and  C_8
REMARK    7  A    between atoms: C_8  and  N_9
REMARK    8  A    between atoms: C_8  and  C_14
REMARK    9  A    between atoms: C_10  and  C_12
REMARK   10  A    between atoms: C_12  and  S_13
REMARK   11  A    between atoms: C_14  and  C_15
REMARK   12  A    between atoms: C_14  and  O_16
REMARK                            x       y       z     vdW  Elec       q    Type
REMARK                         _______ _______ _______ _____ _____    ______ ____
ROOT
ATOM      1  N   UNL     1       5.059   5.327  17.241  0.00  0.00    +0.000 N 
ATOM      2  C   UNL     1       3.921   6.061  17.504  0.00  0.00    +0.000 C 
ATOM      3  O   UNL     1       3.822   7.262  17.269  0.00  0.00    +0.000 OA
ATOM      4  H   UNL     1       5.185   4.477  17.788  0.00  0.00    +0.000 HD
ENDROOT
BRANCH   1   5
ATOM      5  C   UNL     1       6.227   5.933  16.594  0.00  0.00    +0.000 C 
BRANCH   5   6
ATOM      6  C   UNL     1       6.739   5.079  15.413  0.00  0.00    +0.000 C 
ATOM      7  N   UNL     1       6.172   3.846  15.248  0.00  0.00    +0.000 N 
ATOM      8  O   UNL     1       7.705   5.397  14.725  0.00  0.00    +0.000 OA
ATOM      9  H   UNL     1       5.314   3.574  15.704  0.00  0.00    +0.000 HD
ATOM     10  H   UNL     1       6.514   3.279  14.484  0.00  0.00    +0.000 HD
ENDBRANCH   5   6
BRANCH   5  12
ATOM     11  C   UNL     1       7.119   5.659  18.986  0.00  0.00    +0.000 C 
ATOM     12  C   UNL     1       7.375   6.228  17.589  0.00  0.00    +0.000 C 
ATOM     13  C   UNL     1       7.680   7.726  17.688  0.00  0.00    +0.000 C 
ENDBRANCH   5  12
ENDBRANCH   1   5
BRANCH   2  14
ATOM     14  C   UNL     1       2.810   5.252  18.190  0.00  0.00    +0.000 C 
BRANCH  14  15
ATOM     15  N   UNL     1       3.366   3.957  18.602  0.00  0.00    +0.000 N 
ATOM     16  C   UNL     1       2.942   2.777  18.038  0.00  0.00    +0.000 C 
ATOM     17  O   UNL     1       2.078   2.754  17.160  0.00  0.00    +0.000 OA
ATOM     18  H   UNL     1       4.220   3.976  19.152  0.00  0.00    +0.000 HD
BRANCH  16  19
ATOM     19  C   UNL     1       3.626   1.528  18.573  0.00  0.00    +0.000 C 
BRANCH  19  20
ATOM     20  S   UNL     1       4.458   1.900  20.138  0.00  0.00    +0.000 S 
ATOM     21  H   UNL     1       3.406   2.510  20.710  0.00  0.00    +0.000 HD
ENDBRANCH  19  20
ENDBRANCH  16  19
ENDBRANCH  14  15
BRANCH  14  22
ATOM     22  C   UNL     1       2.241   6.027  19.397  0.00  0.00    +0.000 C 
ATOM     23  C   UNL     1       1.610   5.105  20.440  0.00  0.00    +0.000 C 
BRANCH  22  24
ATOM     24  O   UNL     1       3.293   6.769  20.035  0.00  0.00    +0.000 OA
ATOM     25  H   UNL     1       3.260   6.583  20.990  0.00  0.00    +0.000 HD
ENDBRANCH  22  24
ENDBRANCH  14  22
ENDBRANCH   2  14
TORSDOF 9
ENDMDL
MODEL 5
REMARK VINA RESULT:      -6.2      3.011      5.881
REMARK  Name = 
REMARK  12 active torsions:
REMARK  status: ('A' for Active; 'I' for Inactive)
REMARK    1  A    between atoms: C_1  and  C_2
REMARK    2  A    between atoms: C_2  and  C_3
REMARK    3  A    between atoms: C_2  and  C_4
REMARK    4  A    between atoms: C_4  and  N_5
REMARK    5  A    between atoms: C_4  and  C_17
REMARK    6  A    between atoms: C_6  and  C_8
REMARK    7  A    between atoms: C_8  and  N_9
REMARK    8  A    between atoms: C_8  and  C_14
REMARK    9  A    between atoms: C_10  and  C_12
REMARK   10  A    between atoms: C_12  and  S_13
REMARK   11  A    between atoms: C_14  and  C_15
REMARK   12  A    between atoms: C_14  and  O_16
REMARK                            x       y       z     vdW  Elec       q    Type
REMARK                         _______ _______ _______ _____ _____    ______ ____
ROOT
ATOM      1  N   UNL     1       5.208   5.384  18.428  0.00  0.00    +0.000 N 
ATOM      2  C   UNL     1       4.640   4.402  19.214  0.00  0.00    +0.000 C 
ATOM      3  O   UNL     1       5.184   3.327  19.450  0.00  0.00    +0.000 OA
ATOM      4  H   UNL     1       4.565   6.044  17.995  0.00  0.00    +0.000 HD
ENDROOT
BRANCH   1   5
ATOM      5  C   UNL     1       6.552   5.229  17.862  0.00  0.00    +0.000 C 
BRANCH   5   6
ATOM      6  C   UNL     1       7.598   6.073  18.624  0.00  0.00    +0.000 C 
ATOM      7  N   UNL     1       8.030   5.588  19.826  0.00  0.00    +0.000 N 
ATOM      8  O   UNL     1       7.937   7.199  18.267  0.00  0.00    +0.000 OA
ATOM      9  H   UNL     1       7.875   4.635  20.118  0.00  0.00    +0.000 HD
ATOM     10  H   UNL     1       8.705   6.146  20.333  0.00  0.00    +0.000 HD
ENDBRANCH   5   6
BRANCH   5  12
ATOM     11  C   UNL     1       5.383   6.323  15.855  0.00  0.00    +0.000 C 
ATOM     12  C   UNL     1       6.601   5.539  16.347  0.00  0.00    +0.000 C 
ATOM     13  C   UNL     1       6.776   4.270  15.506  0.00  0.00    +0.000 C 
ENDBRANCH   5  12
ENDBRANCH   1   5
BRANCH   2  14
ATOM     14  C   UNL     1       3.227   4.747  19.708  0.00  0.00    +0.000 C 
BRANCH  14  15
ATOM     15  N   UNL     1       2.925   6.130  19.318  0.00  0.00    +0.000 N 
ATOM     16  C   UNL     1       2.058   6.912  20.043  0.00  0.00    +0.000 C 
ATOM     17  O   UNL     1       1.497   6.488  21.055  0.00  0.00    +0.000 OA
ATOM     18  H   UNL     1       3.536   6.559  18.630  0.00  0.00    +0.000 HD
BRANCH  16  19
ATOM     19  C   UNL     1       1.861   8.321  19.506  0.00  0.00    +0.000 C 
BRANCH  19  20
ATOM     20  S   UNL     1       2.406   8.407  17.780  0.00  0.00    +0.000 S 
ATOM     21  H   UNL     1       3.154   9.514  17.928  0.00  0.00    +0.000 HD
ENDBRANCH  19  20
ENDBRANCH  16  19
ENDBRANCH  14  15
BRANCH  14  22
ATOM     22  C   UNL     1       2.194   3.761  19.125  0.00  0.00    +0.000 C 
ATOM     23  C   UNL     1       1.981   3.956  17.624  0.00  0.00    +0.000 C 
BRANCH  22  24
ATOM     24  O   UNL     1       2.635   2.412  19.341  0.00  0.00    +0.000 OA
ATOM     25  H   UNL     1       1.850   1.849  19.452  0.00  0.00    +0.000 HD
ENDBRANCH  22  24
ENDBRANCH  14  22
ENDBRANCH   2  14
TORSDOF 9
ENDMDL
MODEL 6
REMARK VINA RESULT:      -6.2      1.134      1.237
REMARK  Name = 
REMARK  12 active torsions:
REMARK  status: ('A' for Active; 'I' for Inactive)
REMARK    1  A    between atoms: C_1  and  C_2
REMARK    2  A    between atoms: C_2  and  C_3
REMARK    3  A    between atoms: C_2  and  C_4
REMARK    4  A    between atoms: C_4  and  N_5
REMARK    5  A    between atoms: C_4  and  C_17
REMARK    6  A    between atoms: C_6  and  C_8
REMARK    7  A    between atoms: C_8  and  N_9
REMARK    8  A    between atoms: C_8  and  C_14
REMARK    9  A    between atoms: C_10  and  C_12
REMARK   10  A    between atoms: C_12  and  S_13
REMARK   11  A    between atoms: C_14  and  C_15
REMARK   12  A    between atoms: C_14  and  O_16
REMARK                            x       y       z     vdW  Elec       q    Type
REMARK                         _______ _______ _______ _____ _____    ______ ____
ROOT
ATOM      1  N   UNL     1       4.696   4.083  18.176  0.00  0.00    +0.000 N 
ATOM      2  C   UNL     1       5.930   4.588  18.529  0.00  0.00    +0.000 C 
ATOM      3  O   UNL     1       6.249   4.844  19.687  0.00  0.00    +0.000 OA
ATOM      4  H   UNL     1       4.395   4.253  17.218  0.00  0.00    +0.000 HD
ENDROOT
BRANCH   1   5
ATOM      5  C   UNL     1       3.687   3.753  19.188  0.00  0.00    +0.000 C 
BRANCH   5   6
ATOM      6  C   UNL     1       3.245   2.274  19.100  0.00  0.00    +0.000 C 
ATOM      7  N   UNL     1       3.975   1.457  18.282  0.00  0.00    +0.000 N 
ATOM      8  O   UNL     1       2.211   1.854  19.610  0.00  0.00    +0.000 OA
ATOM      9  H   UNL     1       4.884   1.711  17.927  0.00  0.00    +0.000 HD
ATOM     10  H   UNL     1       3.680   0.492  18.212  0.00  0.00    +0.000 HD
ENDBRANCH   5   6
BRANCH   5  12
ATOM     11  C   UNL     1       1.754   4.681  17.773  0.00  0.00    +0.000 C 
ATOM     12  C   UNL     1       2.457   4.691  19.132  0.00  0.00    +0.000 C 
ATOM     13  C   UNL     1       2.815   6.130  19.519  0.00  0.00    +0.000 C 
ENDBRANCH   5  12
ENDBRANCH   1   5
BRANCH   2  14
ATOM     14  C   UNL     1       6.846   4.875  17.330  0.00  0.00    +0.000 C 
BRANCH  14  15
ATOM     15  N   UNL     1       6.212   4.330  16.122  0.00  0.00    +0.000 N 
ATOM     16  C   UNL     1       6.745   4.534  14.872  0.00  0.00    +0.000 C 
ATOM     17  O   UNL     1       7.782   5.181  14.709  0.00  0.00    +0.000 OA
ATOM     18  H   UNL     1       5.496   3.622  16.257  0.00  0.00    +0.000 HD
BRANCH  16  19
ATOM     19  C   UNL     1       5.968   3.897  13.730  0.00  0.00    +0.000 C 
BRANCH  19  20
ATOM     20  S   UNL     1       6.980   3.881  12.227  0.00  0.00    +0.000 S 
ATOM     21  H   UNL     1       8.157   4.046  12.853  0.00  0.00    +0.000 HD
ENDBRANCH  19  20
ENDBRANCH  16  19
ENDBRANCH  14  15
BRANCH  14  22
ATOM     22  C   UNL     1       7.102   6.391  17.194  0.00  0.00    +0.000 C 
ATOM     23  C   UNL     1       5.807   7.201  17.141  0.00  0.00    +0.000 C 
BRANCH  22  24
ATOM     24  O   UNL     1       7.873   6.854  18.313  0.00  0.00    +0.000 OA
ATOM     25  H   UNL     1       7.433   7.640  18.681  0.00  0.00    +0.000 HD
ENDBRANCH  22  24
ENDBRANCH  14  22
ENDBRANCH   2  14
TORSDOF 9
ENDMDL
MODEL 7
REMARK VINA RESULT:      -6.2      1.750      2.369
REMARK  Name = 
REMARK  12 active torsions:
REMARK  status: ('A' for Active; 'I' for Inactive)
REMARK    1  A    between atoms: C_1  and  C_2
REMARK    2  A    between atoms: C_2  and  C_3
REMARK    3  A    between atoms: C_2  and  C_4
REMARK    4  A    between atoms: C_4  and  N_5
REMARK    5  A    between atoms: C_4  and  C_17
REMARK    6  A    between atoms: C_6  and  C_8
REMARK    7  A    between atoms: C_8  and  N_9
REMARK    8  A    between atoms: C_8  and  C_14
REMARK    9  A    between atoms: C_10  and  C_12
REMARK   10  A    between atoms: C_12  and  S_13
REMARK   11  A    between atoms: C_14  and  C_15
REMARK   12  A    between atoms: C_14  and  O_16
REMARK                            x       y       z     vdW  Elec       q    Type
REMARK                         _______ _______ _______ _____ _____    ______ ____
ROOT
ATOM      1  N   UNL     1       4.389   4.083  18.551  0.00  0.00    +0.000 N 
ATOM      2  C   UNL     1       5.149   5.135  18.083  0.00  0.00    +0.000 C 
ATOM      3  O   UNL     1       4.699   6.263  17.897  0.00  0.00    +0.000 OA
ATOM      4  H   UNL     1       4.723   3.148  18.323  0.00  0.00    +0.000 HD
ENDROOT
BRANCH   1   5
ATOM      5  C   UNL     1       2.982   4.262  18.923  0.00  0.00    +0.000 C 
BRANCH   5   6
ATOM      6  C   UNL     1       2.761   4.080  20.442  0.00  0.00    +0.000 C 
ATOM      7  N   UNL     1       2.391   5.188  21.152  0.00  0.00    +0.000 N 
ATOM      8  O   UNL     1       3.035   3.042  21.038  0.00  0.00    +0.000 OA
ATOM      9  H   UNL     1       2.050   6.029  20.712  0.00  0.00    +0.000 HD
ATOM     10  H   UNL     1       2.259   5.074  22.148  0.00  0.00    +0.000 HD
ENDBRANCH   5   6
BRANCH   5  12
ATOM     11  C   UNL     1       0.786   2.930  18.909  0.00  0.00    +0.000 C 
ATOM     12  C   UNL     1       2.031   3.341  18.121  0.00  0.00    +0.000 C 
ATOM     13  C   UNL     1       2.748   2.093  17.596  0.00  0.00    +0.000 C 
ENDBRANCH   5  12
ENDBRANCH   1   5
BRANCH   2  14
ATOM     14  C   UNL     1       6.596   4.749  17.742  0.00  0.00    +0.000 C 
BRANCH  14  15
ATOM     15  N   UNL     1       6.854   5.112  16.343  0.00  0.00    +0.000 N 
ATOM     16  C   UNL     1       6.498   4.285  15.304  0.00  0.00    +0.000 C 
ATOM     17  O   UNL     1       5.943   3.202  15.501  0.00  0.00    +0.000 OA
ATOM     18  H   UNL     1       7.102   6.079  16.156  0.00  0.00    +0.000 HD
BRANCH  16  19
ATOM     19  C   UNL     1       6.832   4.814  13.918  0.00  0.00    +0.000 C 
BRANCH  19  20
ATOM     20  S   UNL     1       6.267   3.642  12.656  0.00  0.00    +0.000 S 
ATOM     21  H   UNL     1       5.577   4.542  11.934  0.00  0.00    +0.000 HD
ENDBRANCH  19  20
ENDBRANCH  16  19
ENDBRANCH  14  15
BRANCH  14  22
ATOM     22  C   UNL     1       7.584   5.451  18.696  0.00  0.00    +0.000 C 
ATOM     23  C   UNL     1       7.883   6.889  18.274  0.00  0.00    +0.000 C 
BRANCH  22  24
ATOM     24  O   UNL     1       7.039   5.480  20.024  0.00  0.00    +0.000 OA
ATOM     25  H   UNL     1       6.080   5.627  19.956  0.00  0.00    +0.000 HD
ENDBRANCH  22  24
ENDBRANCH  14  22
ENDBRANCH   2  14
TORSDOF 9
ENDMDL
MODEL 8
REMARK VINA RESULT:      -6.2      1.820      2.568
REMARK  Name = 
REMARK  12 active torsions:
REMARK  status: ('A' for Active; 'I' for Inactive)
REMARK    1  A    between atoms: C_1  and  C_2
REMARK    2  A    between atoms: C_2  and  C_3
REMARK    3  A    between atoms: C_2  and  C_4
REMARK    4  A    between atoms: C_4  and  N_5
REMARK    5  A    between atoms: C_4  and  C_17
REMARK    6  A    between atoms: C_6  and  C_8
REMARK    7  A    between atoms: C_8  and  N_9
REMARK    8  A    between atoms: C_8  and  C_14
REMARK    9  A    between atoms: C_10  and  C_12
REMARK   10  A    between atoms: C_12  and  S_13
REMARK   11  A    between atoms: C_14  and  C_15
REMARK   12  A    between atoms: C_14  and  O_16
REMARK                            x       y       z     vdW  Elec       q    Type
REMARK                         _______ _______ _______ _____ _____    ______ ____
ROOT
ATOM      1  N   UNL     1       4.584   4.155  18.515  0.00  0.00    +0.000 N 
ATOM      2  C   UNL     1       5.254   5.047  17.704  0.00  0.00    +0.000 C 
ATOM      3  O   UNL     1       4.702   5.978  17.123  0.00  0.00    +0.000 OA
ATOM      4  H   UNL     1       5.019   3.243  18.640  0.00  0.00    +0.000 HD
ENDROOT
BRANCH   1   5
ATOM      5  C   UNL     1       3.151   4.300  18.792  0.00  0.00    +0.000 C 
BRANCH   5   6
ATOM      6  C   UNL     1       2.882   5.332  19.910  0.00  0.00    +0.000 C 
ATOM      7  N   UNL     1       2.639   4.839  21.162  0.00  0.00    +0.000 N 
ATOM      8  O   UNL     1       2.742   6.532  19.694  0.00  0.00    +0.000 OA
ATOM      9  H   UNL     1       2.843   3.887  21.423  0.00  0.00    +0.000 HD
ATOM     10  H   UNL     1       2.450   5.511  21.894  0.00  0.00    +0.000 HD
ENDBRANCH   5   6
BRANCH   5  12
ATOM     11  C   UNL     1       3.243   1.741  18.597  0.00  0.00    +0.000 C 
ATOM     12  C   UNL     1       2.467   2.951  19.120  0.00  0.00    +0.000 C 
ATOM     13  C   UNL     1       1.023   2.900  18.610  0.00  0.00    +0.000 C 
ENDBRANCH   5  12
ENDBRANCH   1   5
BRANCH   2  14
ATOM     14  C   UNL     1       6.746   4.724  17.531  0.00  0.00    +0.000 C 
BRANCH  14  15
ATOM     15  N   UNL     1       7.139   5.071  16.159  0.00  0.00    +0.000 N 
ATOM     16  C   UNL     1       6.738   4.318  15.081  0.00  0.00    +0.000 C 
ATOM     17  O   UNL     1       6.028   3.320  15.218  0.00  0.00    +0.000 OA
ATOM     18  H   UNL     1       7.528   5.997  16.011  0.00  0.00    +0.000 HD
BRANCH  16  19
ATOM     19  C   UNL     1       7.227   4.818  13.730  0.00  0.00    +0.000 C 
BRANCH  19  20
ATOM     20  S   UNL     1       6.592   3.752  12.409  0.00  0.00    +0.000 S 
ATOM     21  H   UNL     1       7.063   4.498  11.395  0.00  0.00    +0.000 HD
ENDBRANCH  19  20
ENDBRANCH  16  19
ENDBRANCH  14  15
BRANCH  14  22
ATOM     22  C   UNL     1       7.591   5.493  18.568  0.00  0.00    +0.000 C 
ATOM     23  C   UNL     1       7.784   6.962  18.191  0.00  0.00    +0.000 C 
BRANCH  22  24
ATOM     24  O   UNL     1       6.948   5.443  19.851  0.00  0.00    +0.000 OA
ATOM     25  H   UNL     1       5.993   5.571  19.718  0.00  0.00    +0.000 HD
ENDBRANCH  22  24
ENDBRANCH  14  22
ENDBRANCH   2  14
TORSDOF 9
ENDMDL
MODEL 9
REMARK VINA RESULT:      -6.1      0.895      1.252
REMARK  Name = 
REMARK  12 active torsions:
REMARK  status: ('A' for Active; 'I' for Inactive)
REMARK    1  A    between atoms: C_1  and  C_2
REMARK    2  A    between atoms: C_2  and  C_3
REMARK    3  A    between atoms: C_2  and  C_4
REMARK    4  A    between atoms: C_4  and  N_5
REMARK    5  A    between atoms: C_4  and  C_17
REMARK    6  A    between atoms: C_6  and  C_8
REMARK    7  A    between atoms: C_8  and  N_9
REMARK    8  A    between atoms: C_8  and  C_14
REMARK    9  A    between atoms: C_10  and  C_12
REMARK   10  A    between atoms: C_12  and  S_13
REMARK   11  A    between atoms: C_14  and  C_15
REMARK   12  A    between atoms: C_14  and  O_16
REMARK                            x       y       z     vdW  Elec       q    Type
REMARK                         _______ _______ _______ _____ _____    ______ ____
ROOT
ATOM      1  N   UNL     1       5.002   4.135  18.221  0.00  0.00    +0.000 N 
ATOM      2  C   UNL     1       6.266   4.648  18.421  0.00  0.00    +0.000 C 
ATOM      3  O   UNL     1       6.763   4.807  19.533  0.00  0.00    +0.000 OA
ATOM      4  H   UNL     1       4.547   4.382  17.344  0.00  0.00    +0.000 HD
ENDROOT
BRANCH   1   5
ATOM      5  C   UNL     1       4.176   3.677  19.343  0.00  0.00    +0.000 C 
BRANCH   5   6
ATOM      6  C   UNL     1       4.237   2.143  19.515  0.00  0.00    +0.000 C 
ATOM      7  N   UNL     1       5.055   1.661  20.498  0.00  0.00    +0.000 N 
ATOM      8  O   UNL     1       3.705   1.360  18.732  0.00  0.00    +0.000 OA
ATOM      9  H   UNL     1       5.428   2.244  21.233  0.00  0.00    +0.000 HD
ATOM     10  H   UNL     1       5.107   0.657  20.604  0.00  0.00    +0.000 HD
ENDBRANCH   5   6
BRANCH   5  12
ATOM     11  C   UNL     1       1.759   3.394  20.166  0.00  0.00    +0.000 C 
ATOM     12  C   UNL     1       2.707   4.154  19.236  0.00  0.00    +0.000 C 
ATOM     13  C   UNL     1       2.185   4.088  17.797  0.00  0.00    +0.000 C 
ENDBRANCH   5  12
ENDBRANCH   1   5
BRANCH   2  14
ATOM     14  C   UNL     1       6.971   5.077  17.125  0.00  0.00    +0.000 C 
BRANCH  14  15
ATOM     15  N   UNL     1       6.255   4.481  15.990  0.00  0.00    +0.000 N 
ATOM     16  C   UNL     1       6.722   4.593  14.702  0.00  0.00    +0.000 C 
ATOM     17  O   UNL     1       7.765   5.197  14.443  0.00  0.00    +0.000 OA
ATOM     18  H   UNL     1       5.529   3.805  16.206  0.00  0.00    +0.000 HD
BRANCH  16  19
ATOM     19  C   UNL     1       5.865   3.913  13.646  0.00  0.00    +0.000 C 
BRANCH  19  20
ATOM     20  S   UNL     1       6.825   3.680  12.126  0.00  0.00    +0.000 S 
ATOM     21  H   UNL     1       6.718   2.340  12.102  0.00  0.00    +0.000 HD
ENDBRANCH  19  20
ENDBRANCH  16  19
ENDBRANCH  14  15
BRANCH  14  22
ATOM     22  C   UNL     1       7.015   6.616  17.015  0.00  0.00    +0.000 C 
ATOM     23  C   UNL     1       5.624   7.247  17.082  0.00  0.00    +0.000 C 
BRANCH  22  24
ATOM     24  O   UNL     1       7.802   7.156  18.088  0.00  0.00    +0.000 OA
ATOM     25  H   UNL     1       7.778   6.527  18.830  0.00  0.00    +0.000 HD
ENDBRANCH  22  24
ENDBRANCH  14  22
ENDBRANCH   2  14
TORSDOF 9
ENDMDL
