MODEL 1
REMARK VINA RESULT:      -8.4      0.000      0.000
REMARK  Name = 
REMARK  8 active torsions:
REMARK  status: ('A' for Active; 'I' for Inactive)
REMARK    1  A    between atoms: C_1  and  C_2
REMARK    2  A    between atoms: C_2  and  C_3
REMARK    3  A    between atoms: C_3  and  O_4
REMARK    4  A    between atoms: O_4  and  C_5
REMARK    5  A    between atoms: C_8  and  C_9
REMARK    6  A    between atoms: C_10  and  C_11
REMARK    7  A    between atoms: N_13  and  C_14
REMARK    8  A    between atoms: C_21  and  C_22
REMARK                            x       y       z     vdW  Elec       q    Type
REMARK                         _______ _______ _______ _____ _____    ______ ____
ROOT
ATOM      1  C   UNL     1       1.706   7.747  20.213  0.00  0.00    +0.000 C 
ATOM      2  O   UNL     1       1.855   7.955  19.012  0.00  0.00    +0.000 OA
ATOM      3  N   UNL     1       1.935   6.544  20.861  0.00  0.00    +0.000 N 
ATOM      4  H   UNL     1       1.849   6.506  21.869  0.00  0.00    +0.000 HD
ENDROOT
BRANCH   3   5
ATOM      5  C   UNL     1       1.997   5.272  20.211  0.00  0.00    +0.000 A 
ATOM      6  C   UNL     1       0.978   4.311  20.359  0.00  0.00    +0.000 A 
ATOM      7  C   UNL     1       1.153   2.978  19.971  0.00  0.00    +0.000 A 
ATOM      8  C   UNL     1       2.384   2.561  19.502  0.00  0.00    +0.000 A 
ATOM      9  C   UNL     1       3.393   3.500  19.337  0.00  0.00    +0.000 A 
ATOM     10  C   UNL     1       3.172   4.883  19.548  0.00  0.00    +0.000 A 
ATOM     11  O   UNL     1       4.112   5.832  19.131  0.00  0.00    +0.000 OA
ATOM     12  C   UNL     1       5.118   5.164  18.311  0.00  0.00    +0.000 C 
ATOM     13  C   UNL     1       5.625   3.994  19.139  0.00  0.00    +0.000 C 
ATOM     14  O   UNL     1       4.627   2.974  19.025  0.00  0.00    +0.000 OA
BRANCH  12  15
ATOM     15  C   UNL     1       6.217   6.069  17.902  0.00  0.00    +0.000 A 
ATOM     16  N   UNL     1       6.185   6.967  16.933  0.00  0.00    +0.000 NA
ATOM     17  N   UNL     1       7.313   7.732  17.075  0.00  0.00    +0.000 NA
ATOM     18  N   UNL     1       8.029   7.325  18.111  0.00  0.00    +0.000 NA
ATOM     19  N   UNL     1       7.348   6.293  18.628  0.00  0.00    +0.000 N 
ATOM     20  H   UNL     1       7.686   5.849  19.474  0.00  0.00    +0.000 HD
ENDBRANCH  12  15
ENDBRANCH   3   5
BRANCH   1  22
ATOM     21  C   UNL     1       0.064   9.428  20.774  0.00  0.00    +0.000 C 
ATOM     22  C   UNL     1       1.243   8.871  21.094  0.00  0.00    +0.000 C 
BRANCH  21  26
ATOM     23  C   UNL     1      -1.814  13.067  22.073  0.00  0.00    +0.000 A 
ATOM     24  C   UNL     1      -1.750  12.692  20.734  0.00  0.00    +0.000 A 
ATOM     25  C   UNL     1      -1.139  11.497  20.358  0.00  0.00    +0.000 A 
ATOM     26  C   UNL     1      -0.564  10.640  21.312  0.00  0.00    +0.000 A 
ATOM     27  C   UNL     1      -0.650  10.989  22.660  0.00  0.00    +0.000 A 
ATOM     28  C   UNL     1      -1.275  12.203  23.037  0.00  0.00    +0.000 A 
BRANCH  23  29
ATOM     29  O   UNL     1      -2.375  14.237  22.532  0.00  0.00    +0.000 OA
BRANCH  29  30
ATOM     30  C   UNL     1      -3.783  14.171  22.780  0.00  0.00    +0.000 C 
BRANCH  30  32
ATOM     31  C   UNL     1      -4.555  12.575  24.543  0.00  0.00    +0.000 C 
ATOM     32  C   UNL     1      -4.076  13.995  24.265  0.00  0.00    +0.000 C 
ENDBRANCH  30  32
ENDBRANCH  29  30
ENDBRANCH  23  29
ENDBRANCH  21  26
ENDBRANCH   1  22
TORSDOF 7
ENDMDL
MODEL 2
REMARK VINA RESULT:      -8.3      1.048      1.439
REMARK  Name = 
REMARK  8 active torsions:
REMARK  status: ('A' for Active; 'I' for Inactive)
REMARK    1  A    between atoms: C_1  and  C_2
REMARK    2  A    between atoms: C_2  and  C_3
REMARK    3  A    between atoms: C_3  and  O_4
REMARK    4  A    between atoms: O_4  and  C_5
REMARK    5  A    between atoms: C_8  and  C_9
REMARK    6  A    between atoms: C_10  and  C_11
REMARK    7  A    between atoms: N_13  and  C_14
REMARK    8  A    between atoms: C_21  and  C_22
REMARK                            x       y       z     vdW  Elec       q    Type
REMARK                         _______ _______ _______ _____ _____    ______ ____
ROOT
ATOM      1  C   UNL     1       1.883   7.787  19.181  0.00  0.00    +0.000 C 
ATOM      2  O   UNL     1       1.951   7.552  17.978  0.00  0.00    +0.000 OA
ATOM      3  N   UNL     1       2.172   6.892  20.198  0.00  0.00    +0.000 N 
ATOM      4  H   UNL     1       2.151   7.215  21.157  0.00  0.00    +0.000 HD
ENDROOT
BRANCH   3   5
ATOM      5  C   UNL     1       2.213   5.471  20.040  0.00  0.00    +0.000 A 
ATOM      6  C   UNL     1       1.206   4.635  20.562  0.00  0.00    +0.000 A 
ATOM      7  C   UNL     1       1.371   3.250  20.666  0.00  0.00    +0.000 A 
ATOM      8  C   UNL     1       2.583   2.680  20.325  0.00  0.00    +0.000 A 
ATOM      9  C   UNL     1       3.579   3.489  19.796  0.00  0.00    +0.000 A 
ATOM     10  C   UNL     1       3.361   4.859  19.511  0.00  0.00    +0.000 A 
ATOM     11  O   UNL     1       4.278   5.589  18.746  0.00  0.00    +0.000 OA
ATOM     12  C   UNL     1       5.252   4.662  18.177  0.00  0.00    +0.000 C 
ATOM     13  C   UNL     1       5.799   3.858  19.344  0.00  0.00    +0.000 C 
ATOM     14  O   UNL     1       4.802   2.874  19.641  0.00  0.00    +0.000 OA
BRANCH  12  15
ATOM     15  C   UNL     1       6.328   5.352  17.428  0.00  0.00    +0.000 A 
ATOM     16  N   UNL     1       6.807   5.021  16.242  0.00  0.00    +0.000 NA
ATOM     17  N   UNL     1       7.597   6.064  15.836  0.00  0.00    +0.000 NA
ATOM     18  N   UNL     1       7.607   7.027  16.745  0.00  0.00    +0.000 NA
ATOM     19  N   UNL     1       6.817   6.587  17.734  0.00  0.00    +0.000 N 
ATOM     20  H   UNL     1       6.630   7.191  18.526  0.00  0.00    +0.000 HD
ENDBRANCH  12  15
ENDBRANCH   3   5
BRANCH   1  22
ATOM     21  C   UNL     1       0.652   9.199  20.706  0.00  0.00    +0.000 C 
ATOM     22  C   UNL     1       1.459   9.154  19.634  0.00  0.00    +0.000 C 
BRANCH  21  26
ATOM     23  C   UNL     1      -1.542  12.378  22.588  0.00  0.00    +0.000 A 
ATOM     24  C   UNL     1      -1.317  11.152  23.208  0.00  0.00    +0.000 A 
ATOM     25  C   UNL     1      -0.591  10.152  22.564  0.00  0.00    +0.000 A 
ATOM     26  C   UNL     1      -0.072  10.343  21.271  0.00  0.00    +0.000 A 
ATOM     27  C   UNL     1      -0.264  11.580  20.653  0.00  0.00    +0.000 A 
ATOM     28  C   UNL     1      -0.999  12.594  21.314  0.00  0.00    +0.000 A 
BRANCH  23  29
ATOM     29  O   UNL     1      -2.266  13.412  23.138  0.00  0.00    +0.000 OA
BRANCH  29  30
ATOM     30  C   UNL     1      -3.609  13.077  23.503  0.00  0.00    +0.000 C 
BRANCH  30  32
ATOM     31  C   UNL     1      -4.999  12.647  21.470  0.00  0.00    +0.000 C 
ATOM     32  C   UNL     1      -4.613  13.676  22.526  0.00  0.00    +0.000 C 
ENDBRANCH  30  32
ENDBRANCH  29  30
ENDBRANCH  23  29
ENDBRANCH  21  26
ENDBRANCH   1  22
TORSDOF 7
ENDMDL
MODEL 3
REMARK VINA RESULT:      -8.3      1.035      1.256
REMARK  Name = 
REMARK  8 active torsions:
REMARK  status: ('A' for Active; 'I' for Inactive)
REMARK    1  A    between atoms: C_1  and  C_2
REMARK    2  A    between atoms: C_2  and  C_3
REMARK    3  A    between atoms: C_3  and  O_4
REMARK    4  A    between atoms: O_4  and  C_5
REMARK    5  A    between atoms: C_8  and  C_9
REMARK    6  A    between atoms: C_10  and  C_11
REMARK    7  A    between atoms: N_13  and  C_14
REMARK    8  A    between atoms: C_21  and  C_22
REMARK                            x       y       z     vdW  Elec       q    Type
REMARK                         _______ _______ _______ _____ _____    ______ ____
ROOT
ATOM      1  C   UNL     1       1.724   7.858  19.273  0.00  0.00    +0.000 C 
ATOM      2  O   UNL     1       1.788   7.623  18.069  0.00  0.00    +0.000 OA
ATOM      3  N   UNL     1       2.058   6.977  20.288  0.00  0.00    +0.000 N 
ATOM      4  H   UNL     1       2.036   7.301  21.246  0.00  0.00    +0.000 HD
ENDROOT
BRANCH   3   5
ATOM      5  C   UNL     1       2.150   5.558  20.132  0.00  0.00    +0.000 A 
ATOM      6  C   UNL     1       1.227   4.683  20.737  0.00  0.00    +0.000 A 
ATOM      7  C   UNL     1       1.463   3.307  20.832  0.00  0.00    +0.000 A 
ATOM      8  C   UNL     1       2.667   2.789  20.396  0.00  0.00    +0.000 A 
ATOM      9  C   UNL     1       3.580   3.638  19.784  0.00  0.00    +0.000 A 
ATOM     10  C   UNL     1       3.277   4.994  19.514  0.00  0.00    +0.000 A 
ATOM     11  O   UNL     1       4.095   5.759  18.674  0.00  0.00    +0.000 OA
ATOM     12  C   UNL     1       5.061   4.873  18.029  0.00  0.00    +0.000 C 
ATOM     13  C   UNL     1       5.736   4.102  19.151  0.00  0.00    +0.000 C 
ATOM     14  O   UNL     1       4.812   3.077  19.532  0.00  0.00    +0.000 OA
BRANCH  12  15
ATOM     15  C   UNL     1       6.039   5.604  17.193  0.00  0.00    +0.000 A 
ATOM     16  N   UNL     1       6.755   6.658  17.547  0.00  0.00    +0.000 NA
ATOM     17  N   UNL     1       7.690   6.841  16.562  0.00  0.00    +0.000 NA
ATOM     18  N   UNL     1       7.565   5.922  15.618  0.00  0.00    +0.000 NA
ATOM     19  N   UNL     1       6.541   5.150  16.010  0.00  0.00    +0.000 N 
ATOM     20  H   UNL     1       6.293   4.337  15.459  0.00  0.00    +0.000 HD
ENDBRANCH  12  15
ENDBRANCH   3   5
BRANCH   1  22
ATOM     21  C   UNL     1       0.466   9.229  20.813  0.00  0.00    +0.000 C 
ATOM     22  C   UNL     1       1.255   9.210  19.727  0.00  0.00    +0.000 C 
BRANCH  21  26
ATOM     23  C   UNL     1      -1.713  12.645  22.242  0.00  0.00    +0.000 A 
ATOM     24  C   UNL     1      -1.256  12.540  20.930  0.00  0.00    +0.000 A 
ATOM     25  C   UNL     1      -0.561  11.409  20.507  0.00  0.00    +0.000 A 
ATOM     26  C   UNL     1      -0.293  10.346  21.387  0.00  0.00    +0.000 A 
ATOM     27  C   UNL     1      -0.774  10.425  22.695  0.00  0.00    +0.000 A 
ATOM     28  C   UNL     1      -1.483  11.576  23.118  0.00  0.00    +0.000 A 
BRANCH  23  29
ATOM     29  O   UNL     1      -2.385  13.733  22.751  0.00  0.00    +0.000 OA
BRANCH  29  30
ATOM     30  C   UNL     1      -3.568  14.099  22.033  0.00  0.00    +0.000 C 
BRANCH  30  32
ATOM     31  C   UNL     1      -5.259  12.490  21.138  0.00  0.00    +0.000 C 
ATOM     32  C   UNL     1      -4.735  13.184  22.388  0.00  0.00    +0.000 C 
ENDBRANCH  30  32
ENDBRANCH  29  30
ENDBRANCH  23  29
ENDBRANCH  21  26
ENDBRANCH   1  22
TORSDOF 7
ENDMDL
MODEL 4
REMARK VINA RESULT:      -8.3      1.028      1.437
REMARK  Name = 
REMARK  8 active torsions:
REMARK  status: ('A' for Active; 'I' for Inactive)
REMARK    1  A    between atoms: C_1  and  C_2
REMARK    2  A    between atoms: C_2  and  C_3
REMARK    3  A    between atoms: C_3  and  O_4
REMARK    4  A    between atoms: O_4  and  C_5
REMARK    5  A    between atoms: C_8  and  C_9
REMARK    6  A    between atoms: C_10  and  C_11
REMARK    7  A    between atoms: N_13  and  C_14
REMARK    8  A    between atoms: C_21  and  C_22
REMARK                            x       y       z     vdW  Elec       q    Type
REMARK                         _______ _______ _______ _____ _____    ______ ____
ROOT
ATOM      1  C   UNL     1       1.860   7.957  19.089  0.00  0.00    +0.000 C 
ATOM      2  O   UNL     1       1.803   7.643  17.903  0.00  0.00    +0.000 OA
ATOM      3  N   UNL     1       2.258   7.129  20.126  0.00  0.00    +0.000 N 
ATOM      4  H   UNL     1       2.336   7.514  21.059  0.00  0.00    +0.000 HD
ENDROOT
BRANCH   3   5
ATOM      5  C   UNL     1       2.288   5.700  20.058  0.00  0.00    +0.000 A 
ATOM      6  C   UNL     1       1.348   4.903  20.739  0.00  0.00    +0.000 A 
ATOM      7  C   UNL     1       1.529   3.528  20.915  0.00  0.00    +0.000 A 
ATOM      8  C   UNL     1       2.699   2.933  20.482  0.00  0.00    +0.000 A 
ATOM      9  C   UNL     1       3.629   3.704  19.796  0.00  0.00    +0.000 A 
ATOM     10  C   UNL     1       3.374   5.053  19.448  0.00  0.00    +0.000 A 
ATOM     11  O   UNL     1       4.199   5.729  18.542  0.00  0.00    +0.000 OA
ATOM     12  C   UNL     1       5.109   4.765  17.930  0.00  0.00    +0.000 C 
ATOM     13  C   UNL     1       5.784   4.037  19.081  0.00  0.00    +0.000 C 
ATOM     14  O   UNL     1       4.830   3.077  19.548  0.00  0.00    +0.000 OA
BRANCH  12  15
ATOM     15  C   UNL     1       6.094   5.401  17.025  0.00  0.00    +0.000 A 
ATOM     16  N   UNL     1       6.893   6.415  17.309  0.00  0.00    +0.000 NA
ATOM     17  N   UNL     1       7.790   6.504  16.278  0.00  0.00    +0.000 NA
ATOM     18  N   UNL     1       7.561   5.565  15.374  0.00  0.00    +0.000 NA
ATOM     19  N   UNL     1       6.509   4.877  15.838  0.00  0.00    +0.000 N 
ATOM     20  H   UNL     1       6.183   4.064  15.328  0.00  0.00    +0.000 HD
ENDBRANCH  12  15
ENDBRANCH   3   5
BRANCH   1  22
ATOM     21  C   UNL     1       0.623   9.458  20.522  0.00  0.00    +0.000 C 
ATOM     22  C   UNL     1       1.480   9.351  19.493  0.00  0.00    +0.000 C 
BRANCH  21  26
ATOM     23  C   UNL     1      -1.475  12.786  22.247  0.00  0.00    +0.000 A 
ATOM     24  C   UNL     1      -1.215  11.614  22.954  0.00  0.00    +0.000 A 
ATOM     25  C   UNL     1      -0.523  10.563  22.357  0.00  0.00    +0.000 A 
ATOM     26  C   UNL     1      -0.072  10.646  21.028  0.00  0.00    +0.000 A 
ATOM     27  C   UNL     1      -0.298  11.827  20.320  0.00  0.00    +0.000 A 
ATOM     28  C   UNL     1      -1.000  12.894  20.933  0.00  0.00    +0.000 A 
BRANCH  23  29
ATOM     29  O   UNL     1      -2.171  13.863  22.747  0.00  0.00    +0.000 OA
BRANCH  29  30
ATOM     30  C   UNL     1      -3.568  13.631  22.957  0.00  0.00    +0.000 C 
BRANCH  30  32
ATOM     31  C   UNL     1      -4.576  12.323  24.834  0.00  0.00    +0.000 C 
ATOM     32  C   UNL     1      -3.913  13.637  24.442  0.00  0.00    +0.000 C 
ENDBRANCH  30  32
ENDBRANCH  29  30
ENDBRANCH  23  29
ENDBRANCH  21  26
ENDBRANCH   1  22
TORSDOF 7
ENDMDL
MODEL 5
REMARK VINA RESULT:      -8.3      6.864      9.121
REMARK  Name = 
REMARK  8 active torsions:
REMARK  status: ('A' for Active; 'I' for Inactive)
REMARK    1  A    between atoms: C_1  and  C_2
REMARK    2  A    between atoms: C_2  and  C_3
REMARK    3  A    between atoms: C_3  and  O_4
REMARK    4  A    between atoms: O_4  and  C_5
REMARK    5  A    between atoms: C_8  and  C_9
REMARK    6  A    between atoms: C_10  and  C_11
REMARK    7  A    between atoms: N_13  and  C_14
REMARK    8  A    between atoms: C_21  and  C_22
REMARK                            x       y       z     vdW  Elec       q    Type
REMARK                         _______ _______ _______ _____ _____    ______ ____
ROOT
ATOM      1  C   UNL     1       7.909   6.447  18.666  0.00  0.00    +0.000 C 
ATOM      2  O   UNL     1       8.211   5.394  19.222  0.00  0.00    +0.000 OA
ATOM      3  N   UNL     1       6.998   6.584  17.632  0.00  0.00    +0.000 N 
ATOM      4  H   UNL     1       6.772   7.512  17.296  0.00  0.00    +0.000 HD
ENDROOT
BRANCH   3   5
ATOM      5  C   UNL     1       6.561   5.514  16.790  0.00  0.00    +0.000 A 
ATOM      6  C   UNL     1       7.089   5.320  15.498  0.00  0.00    +0.000 A 
ATOM      7  C   UNL     1       6.482   4.471  14.568  0.00  0.00    +0.000 A 
ATOM      8  C   UNL     1       5.284   3.859  14.883  0.00  0.00    +0.000 A 
ATOM      9  C   UNL     1       4.759   4.029  16.157  0.00  0.00    +0.000 A 
ATOM     10  C   UNL     1       5.457   4.733  17.168  0.00  0.00    +0.000 A 
ATOM     11  O   UNL     1       5.041   4.673  18.503  0.00  0.00    +0.000 OA
ATOM     12  C   UNL     1       4.009   3.648  18.625  0.00  0.00    +0.000 C 
ATOM     13  C   UNL     1       2.958   3.983  17.579  0.00  0.00    +0.000 C 
ATOM     14  O   UNL     1       3.489   3.524  16.332  0.00  0.00    +0.000 OA
BRANCH  12  15
ATOM     15  C   UNL     1       3.431   3.576  19.987  0.00  0.00    +0.000 A 
ATOM     16  N   UNL     1       2.591   4.435  20.538  0.00  0.00    +0.000 NA
ATOM     17  N   UNL     1       2.136   3.849  21.690  0.00  0.00    +0.000 NA
ATOM     18  N   UNL     1       2.675   2.651  21.852  0.00  0.00    +0.000 NA
ATOM     19  N   UNL     1       3.478   2.479  20.793  0.00  0.00    +0.000 N 
ATOM     20  H   UNL     1       3.964   1.597  20.675  0.00  0.00    +0.000 HD
ENDBRANCH  12  15
ENDBRANCH   3   5
BRANCH   1  22
ATOM     21  C   UNL     1       8.259   8.824  18.413  0.00  0.00    +0.000 C 
ATOM     22  C   UNL     1       8.557   7.722  19.121  0.00  0.00    +0.000 C 
BRANCH  21  26
ATOM     23  C   UNL     1      10.116  12.669  18.891  0.00  0.00    +0.000 A 
ATOM     24  C   UNL     1      10.286  11.633  19.807  0.00  0.00    +0.000 A 
ATOM     25  C   UNL     1       9.672  10.398  19.607  0.00  0.00    +0.000 A 
ATOM     26  C   UNL     1       8.859  10.161  18.486  0.00  0.00    +0.000 A 
ATOM     27  C   UNL     1       8.706  11.180  17.544  0.00  0.00    +0.000 A 
ATOM     28  C   UNL     1       9.336  12.432  17.751  0.00  0.00    +0.000 A 
BRANCH  23  29
ATOM     29  O   UNL     1      10.663  13.925  19.020  0.00  0.00    +0.000 OA
BRANCH  29  30
ATOM     30  C   UNL     1      11.400  14.378  17.880  0.00  0.00    +0.000 C 
BRANCH  30  32
ATOM     31  C   UNL     1      10.453  16.520  17.003  0.00  0.00    +0.000 C 
ATOM     32  C   UNL     1      11.535  15.897  17.877  0.00  0.00    +0.000 C 
ENDBRANCH  30  32
ENDBRANCH  29  30
ENDBRANCH  23  29
ENDBRANCH  21  26
ENDBRANCH   1  22
TORSDOF 7
ENDMDL
MODEL 6
REMARK VINA RESULT:      -8.2      6.399      8.809
REMARK  Name = 
REMARK  8 active torsions:
REMARK  status: ('A' for Active; 'I' for Inactive)
REMARK    1  A    between atoms: C_1  and  C_2
REMARK    2  A    between atoms: C_2  and  C_3
REMARK    3  A    between atoms: C_3  and  O_4
REMARK    4  A    between atoms: O_4  and  C_5
REMARK    5  A    between atoms: C_8  and  C_9
REMARK    6  A    between atoms: C_10  and  C_11
REMARK    7  A    between atoms: N_13  and  C_14
REMARK    8  A    between atoms: C_21  and  C_22
REMARK                            x       y       z     vdW  Elec       q    Type
REMARK                         _______ _______ _______ _____ _____    ______ ____
ROOT
ATOM      1  C   UNL     1       7.623   7.590  17.831  0.00  0.00    +0.000 C 
ATOM      2  O   UNL     1       8.162   6.823  18.625  0.00  0.00    +0.000 OA
ATOM      3  N   UNL     1       6.699   7.234  16.862  0.00  0.00    +0.000 N 
ATOM      4  H   UNL     1       6.264   7.961  16.309  0.00  0.00    +0.000 HD
ENDROOT
BRANCH   3   5
ATOM      5  C   UNL     1       6.514   5.906  16.367  0.00  0.00    +0.000 A 
ATOM      6  C   UNL     1       7.226   5.423  15.252  0.00  0.00    +0.000 A 
ATOM      7  C   UNL     1       6.858   4.247  14.589  0.00  0.00    +0.000 A 
ATOM      8  C   UNL     1       5.717   3.572  14.979  0.00  0.00    +0.000 A 
ATOM      9  C   UNL     1       5.013   4.029  16.086  0.00  0.00    +0.000 A 
ATOM     10  C   UNL     1       5.479   5.107  16.878  0.00  0.00    +0.000 A 
ATOM     11  O   UNL     1       4.904   5.383  18.124  0.00  0.00    +0.000 OA
ATOM     12  C   UNL     1       4.004   4.288  18.475  0.00  0.00    +0.000 C 
ATOM     13  C   UNL     1       3.064   4.121  17.293  0.00  0.00    +0.000 C 
ATOM     14  O   UNL     1       3.807   3.402  16.303  0.00  0.00    +0.000 OA
BRANCH  12  15
ATOM     15  C   UNL     1       3.268   4.535  19.737  0.00  0.00    +0.000 A 
ATOM     16  N   UNL     1       2.613   5.634  20.071  0.00  0.00    +0.000 NA
ATOM     17  N   UNL     1       1.890   5.329  21.194  0.00  0.00    +0.000 NA
ATOM     18  N   UNL     1       2.085   4.069  21.550  0.00  0.00    +0.000 NA
ATOM     19  N   UNL     1       2.939   3.573  20.644  0.00  0.00    +0.000 N 
ATOM     20  H   UNL     1       3.195   2.594  20.686  0.00  0.00    +0.000 HD
ENDBRANCH  12  15
ENDBRANCH   3   5
BRANCH   1  22
ATOM     21  C   UNL     1       8.945   9.400  18.732  0.00  0.00    +0.000 C 
ATOM     22  C   UNL     1       7.963   9.051  17.886  0.00  0.00    +0.000 C 
BRANCH  21  26
ATOM     23  C   UNL     1      10.181  13.236  20.222  0.00  0.00    +0.000 A 
ATOM     24  C   UNL     1       9.957  12.143  21.056  0.00  0.00    +0.000 A 
ATOM     25  C   UNL     1       9.566  10.914  20.528  0.00  0.00    +0.000 A 
ATOM     26  C   UNL     1       9.378  10.739  19.146  0.00  0.00    +0.000 A 
ATOM     27  C   UNL     1       9.630  11.818  18.297  0.00  0.00    +0.000 A 
ATOM     28  C   UNL     1      10.031  13.064  18.839  0.00  0.00    +0.000 A 
BRANCH  23  29
ATOM     29  O   UNL     1      10.545  14.490  20.657  0.00  0.00    +0.000 OA
BRANCH  29  30
ATOM     30  C   UNL     1       9.621  15.532  20.328  0.00  0.00    +0.000 C 
BRANCH  30  32
ATOM     31  C   UNL     1      10.173  16.731  18.205  0.00  0.00    +0.000 C 
ATOM     32  C   UNL     1      10.336  16.733  19.720  0.00  0.00    +0.000 C 
ENDBRANCH  30  32
ENDBRANCH  29  30
ENDBRANCH  23  29
ENDBRANCH  21  26
ENDBRANCH   1  22
TORSDOF 7
ENDMDL
MODEL 7
REMARK VINA RESULT:      -8.2      0.889      1.103
REMARK  Name = 
REMARK  8 active torsions:
REMARK  status: ('A' for Active; 'I' for Inactive)
REMARK    1  A    between atoms: C_1  and  C_2
REMARK    2  A    between atoms: C_2  and  C_3
REMARK    3  A    between atoms: C_3  and  O_4
REMARK    4  A    between atoms: O_4  and  C_5
REMARK    5  A    between atoms: C_8  and  C_9
REMARK    6  A    between atoms: C_10  and  C_11
REMARK    7  A    between atoms: N_13  and  C_14
REMARK    8  A    between atoms: C_21  and  C_22
REMARK                            x       y       z     vdW  Elec       q    Type
REMARK                         _______ _______ _______ _____ _____    ______ ____
ROOT
ATOM      1  C   UNL     1       1.834   7.776  19.455  0.00  0.00    +0.000 C 
ATOM      2  O   UNL     1       1.851   7.579  18.243  0.00  0.00    +0.000 OA
ATOM      3  N   UNL     1       2.192   6.857  20.429  0.00  0.00    +0.000 N 
ATOM      4  H   UNL     1       2.209   7.151  21.397  0.00  0.00    +0.000 HD
ENDROOT
BRANCH   3   5
ATOM      5  C   UNL     1       2.260   5.443  20.224  0.00  0.00    +0.000 A 
ATOM      6  C   UNL     1       1.346   4.560  20.832  0.00  0.00    +0.000 A 
ATOM      7  C   UNL     1       1.566   3.179  20.874  0.00  0.00    +0.000 A 
ATOM      8  C   UNL     1       2.748   2.661  20.381  0.00  0.00    +0.000 A 
ATOM      9  C   UNL     1       3.652   3.518  19.767  0.00  0.00    +0.000 A 
ATOM     10  C   UNL     1       3.358   4.886  19.550  0.00  0.00    +0.000 A 
ATOM     11  O   UNL     1       4.158   5.668  18.708  0.00  0.00    +0.000 OA
ATOM     12  C   UNL     1       5.089   4.791  18.003  0.00  0.00    +0.000 C 
ATOM     13  C   UNL     1       5.792   3.976  19.076  0.00  0.00    +0.000 C 
ATOM     14  O   UNL     1       4.867   2.951  19.455  0.00  0.00    +0.000 OA
BRANCH  12  15
ATOM     15  C   UNL     1       6.049   5.538  17.158  0.00  0.00    +0.000 A 
ATOM     16  N   UNL     1       6.702   6.640  17.483  0.00  0.00    +0.000 NA
ATOM     17  N   UNL     1       7.649   6.831  16.512  0.00  0.00    +0.000 NA
ATOM     18  N   UNL     1       7.594   5.869  15.605  0.00  0.00    +0.000 NA
ATOM     19  N   UNL     1       6.602   5.062  16.006  0.00  0.00    +0.000 N 
ATOM     20  H   UNL     1       6.409   4.215  15.485  0.00  0.00    +0.000 HD
ENDBRANCH  12  15
ENDBRANCH   3   5
BRANCH   1  22
ATOM     21  C   UNL     1       0.380   9.114  20.843  0.00  0.00    +0.000 C 
ATOM     22  C   UNL     1       1.399   9.117  19.969  0.00  0.00    +0.000 C 
BRANCH  21  26
ATOM     23  C   UNL     1      -1.857  12.548  22.135  0.00  0.00    +0.000 A 
ATOM     24  C   UNL     1      -1.550  12.311  20.797  0.00  0.00    +0.000 A 
ATOM     25  C   UNL     1      -0.830  11.179  20.422  0.00  0.00    +0.000 A 
ATOM     26  C   UNL     1      -0.385  10.247  21.376  0.00  0.00    +0.000 A 
ATOM     27  C   UNL     1      -0.714  10.457  22.716  0.00  0.00    +0.000 A 
ATOM     28  C   UNL     1      -1.450  11.608  23.091  0.00  0.00    +0.000 A 
BRANCH  23  29
ATOM     29  O   UNL     1      -2.541  13.649  22.597  0.00  0.00    +0.000 OA
BRANCH  29  30
ATOM     30  C   UNL     1      -3.903  13.401  22.960  0.00  0.00    +0.000 C 
BRANCH  30  32
ATOM     31  C   UNL     1      -3.086  14.696  24.936  0.00  0.00    +0.000 C 
ATOM     32  C   UNL     1      -4.317  14.241  24.163  0.00  0.00    +0.000 C 
ENDBRANCH  30  32
ENDBRANCH  29  30
ENDBRANCH  23  29
ENDBRANCH  21  26
ENDBRANCH   1  22
TORSDOF 7
ENDMDL
MODEL 8
REMARK VINA RESULT:      -8.1      1.178      1.582
REMARK  Name = 
REMARK  8 active torsions:
REMARK  status: ('A' for Active; 'I' for Inactive)
REMARK    1  A    between atoms: C_1  and  C_2
REMARK    2  A    between atoms: C_2  and  C_3
REMARK    3  A    between atoms: C_3  and  O_4
REMARK    4  A    between atoms: O_4  and  C_5
REMARK    5  A    between atoms: C_8  and  C_9
REMARK    6  A    between atoms: C_10  and  C_11
REMARK    7  A    between atoms: N_13  and  C_14
REMARK    8  A    between atoms: C_21  and  C_22
REMARK                            x       y       z     vdW  Elec       q    Type
REMARK                         _______ _______ _______ _____ _____    ______ ____
ROOT
ATOM      1  C   UNL     1       1.883   7.757  19.237  0.00  0.00    +0.000 C 
ATOM      2  O   UNL     1       1.928   7.533  18.030  0.00  0.00    +0.000 OA
ATOM      3  N   UNL     1       2.182   6.850  20.240  0.00  0.00    +0.000 N 
ATOM      4  H   UNL     1       2.180   7.164  21.202  0.00  0.00    +0.000 HD
ENDROOT
BRANCH   3   5
ATOM      5  C   UNL     1       2.207   5.430  20.068  0.00  0.00    +0.000 A 
ATOM      6  C   UNL     1       1.197   4.599  20.591  0.00  0.00    +0.000 A 
ATOM      7  C   UNL     1       1.350   3.212  20.680  0.00  0.00    +0.000 A 
ATOM      8  C   UNL     1       2.552   2.633  20.323  0.00  0.00    +0.000 A 
ATOM      9  C   UNL     1       3.552   3.438  19.792  0.00  0.00    +0.000 A 
ATOM     10  C   UNL     1       3.344   4.813  19.523  0.00  0.00    +0.000 A 
ATOM     11  O   UNL     1       4.261   5.541  18.756  0.00  0.00    +0.000 OA
ATOM     12  C   UNL     1       5.220   4.610  18.168  0.00  0.00    +0.000 C 
ATOM     13  C   UNL     1       5.771   3.790  19.322  0.00  0.00    +0.000 C 
ATOM     14  O   UNL     1       4.767   2.813  19.619  0.00  0.00    +0.000 OA
BRANCH  12  15
ATOM     15  C   UNL     1       6.296   5.297  17.415  0.00  0.00    +0.000 A 
ATOM     16  N   UNL     1       6.725   5.005  16.200  0.00  0.00    +0.000 NA
ATOM     17  N   UNL     1       7.538   6.038  15.816  0.00  0.00    +0.000 NA
ATOM     18  N   UNL     1       7.612   6.957  16.766  0.00  0.00    +0.000 NA
ATOM     19  N   UNL     1       6.838   6.499  17.761  0.00  0.00    +0.000 N 
ATOM     20  H   UNL     1       6.699   7.071  18.586  0.00  0.00    +0.000 HD
ENDBRANCH  12  15
ENDBRANCH   3   5
BRANCH   1  22
ATOM     21  C   UNL     1       0.513   9.167  20.642  0.00  0.00    +0.000 C 
ATOM     22  C   UNL     1       1.479   9.123  19.709  0.00  0.00    +0.000 C 
BRANCH  21  26
ATOM     23  C   UNL     1      -1.646  12.424  22.425  0.00  0.00    +0.000 A 
ATOM     24  C   UNL     1      -1.193  11.332  23.160  0.00  0.00    +0.000 A 
ATOM     25  C   UNL     1      -0.488  10.301  22.542  0.00  0.00    +0.000 A 
ATOM     26  C   UNL     1      -0.219  10.326  21.163  0.00  0.00    +0.000 A 
ATOM     27  C   UNL     1      -0.639  11.431  20.421  0.00  0.00    +0.000 A 
ATOM     28  C   UNL     1      -1.352  12.478  21.056  0.00  0.00    +0.000 A 
BRANCH  23  29
ATOM     29  O   UNL     1      -2.369  13.473  22.947  0.00  0.00    +0.000 OA
BRANCH  29  30
ATOM     30  C   UNL     1      -1.648  14.300  23.866  0.00  0.00    +0.000 C 
BRANCH  30  32
ATOM     31  C   UNL     1      -1.865  15.725  25.909  0.00  0.00    +0.000 C 
ATOM     32  C   UNL     1      -2.596  15.156  24.699  0.00  0.00    +0.000 C 
ENDBRANCH  30  32
ENDBRANCH  29  30
ENDBRANCH  23  29
ENDBRANCH  21  26
ENDBRANCH   1  22
TORSDOF 7
ENDMDL
MODEL 9
REMARK VINA RESULT:      -8.1      6.409      9.006
REMARK  Name = 
REMARK  8 active torsions:
REMARK  status: ('A' for Active; 'I' for Inactive)
REMARK    1  A    between atoms: C_1  and  C_2
REMARK    2  A    between atoms: C_2  and  C_3
REMARK    3  A    between atoms: C_3  and  O_4
REMARK    4  A    between atoms: O_4  and  C_5
REMARK    5  A    between atoms: C_8  and  C_9
REMARK    6  A    between atoms: C_10  and  C_11
REMARK    7  A    between atoms: N_13  and  C_14
REMARK    8  A    between atoms: C_21  and  C_22
REMARK                            x       y       z     vdW  Elec       q    Type
REMARK                         _______ _______ _______ _____ _____    ______ ____
ROOT
ATOM      1  C   UNL     1       7.625   7.639  17.928  0.00  0.00    +0.000 C 
ATOM      2  O   UNL     1       8.193   6.875  18.704  0.00  0.00    +0.000 OA
ATOM      3  N   UNL     1       6.699   7.273  16.964  0.00  0.00    +0.000 N 
ATOM      4  H   UNL     1       6.238   7.996  16.426  0.00  0.00    +0.000 HD
ENDROOT
BRANCH   3   5
ATOM      5  C   UNL     1       6.543   5.947  16.451  0.00  0.00    +0.000 A 
ATOM      6  C   UNL     1       7.282   5.487  15.344  0.00  0.00    +0.000 A 
ATOM      7  C   UNL     1       6.944   4.313  14.662  0.00  0.00    +0.000 A 
ATOM      8  C   UNL     1       5.806   3.617  15.025  0.00  0.00    +0.000 A 
ATOM      9  C   UNL     1       5.076   4.051  16.124  0.00  0.00    +0.000 A 
ATOM     10  C   UNL     1       5.511   5.127  16.935  0.00  0.00    +0.000 A 
ATOM     11  O   UNL     1       4.910   5.381  18.174  0.00  0.00    +0.000 OA
ATOM     12  C   UNL     1       4.021   4.269  18.498  0.00  0.00    +0.000 C 
ATOM     13  C   UNL     1       3.105   4.101  17.297  0.00  0.00    +0.000 C 
ATOM     14  O   UNL     1       3.876   3.404  16.313  0.00  0.00    +0.000 OA
BRANCH  12  15
ATOM     15  C   UNL     1       3.259   4.492  19.748  0.00  0.00    +0.000 A 
ATOM     16  N   UNL     1       2.586   5.579  20.085  0.00  0.00    +0.000 NA
ATOM     17  N   UNL     1       1.846   5.251  21.190  0.00  0.00    +0.000 NA
ATOM     18  N   UNL     1       2.048   3.988  21.533  0.00  0.00    +0.000 NA
ATOM     19  N   UNL     1       2.924   3.514  20.637  0.00  0.00    +0.000 N 
ATOM     20  H   UNL     1       3.189   2.537  20.671  0.00  0.00    +0.000 HD
ENDBRANCH  12  15
ENDBRANCH   3   5
BRANCH   1  22
ATOM     21  C   UNL     1       8.972   9.461  18.766  0.00  0.00    +0.000 C 
ATOM     22  C   UNL     1       7.927   9.107  17.999  0.00  0.00    +0.000 C 
BRANCH  21  26
ATOM     23  C   UNL     1      10.216  13.464  19.707  0.00  0.00    +0.000 A 
ATOM     24  C   UNL     1       9.790  13.089  18.435  0.00  0.00    +0.000 A 
ATOM     25  C   UNL     1       9.386  11.781  18.177  0.00  0.00    +0.000 A 
ATOM     26  C   UNL     1       9.402  10.800  19.183  0.00  0.00    +0.000 A 
ATOM     27  C   UNL     1       9.796  11.171  20.470  0.00  0.00    +0.000 A 
ATOM     28  C   UNL     1      10.202  12.503  20.727  0.00  0.00    +0.000 A 
BRANCH  23  29
ATOM     29  O   UNL     1      10.653  14.724  20.046  0.00  0.00    +0.000 OA
BRANCH  29  30
ATOM     30  C   UNL     1      10.956  15.574  18.934  0.00  0.00    +0.000 C 
BRANCH  30  32
ATOM     31  C   UNL     1      12.075  17.562  19.955  0.00  0.00    +0.000 C 
ATOM     32  C   UNL     1      10.799  17.044  19.304  0.00  0.00    +0.000 C 
ENDBRANCH  30  32
ENDBRANCH  29  30
ENDBRANCH  23  29
ENDBRANCH  21  26
ENDBRANCH   1  22
TORSDOF 7
ENDMDL
