MODEL 1
REMARK VINA RESULT:      -7.6      0.000      0.000
REMARK  Name = 
REMARK  9 active torsions:
REMARK  status: ('A' for Active; 'I' for Inactive)
REMARK    1  A    between atoms: C_1  and  C_2
REMARK    2  A    between atoms: C_2  and  C_3
REMARK    3  A    between atoms: C_3  and  C_4
REMARK    4  A    between atoms: C_4  and  C_5
REMARK    5  A    between atoms: C_5  and  C_6
REMARK    6  A    between atoms: C_6  and  C_7
REMARK    7  A    between atoms: C_7  and  C_8
REMARK    8  A    between atoms: C_8  and  O_9
REMARK    9  A    between atoms: O_9  and  C_10
REMARK                            x       y       z     vdW  Elec       q    Type
REMARK                         _______ _______ _______ _____ _____    ______ ____
ROOT
ATOM      1  C   UNL     1       4.079   4.659  17.245  0.00  0.00    +0.000 A 
ATOM      2  C   UNL     1       4.554   5.545  18.213  0.00  0.00    +0.000 A 
ATOM      3  C   UNL     1       3.933   5.634  19.460  0.00  0.00    +0.000 A 
ATOM      4  C   UNL     1       2.866   4.791  19.771  0.00  0.00    +0.000 A 
ATOM      5  C   UNL     1       2.380   3.903  18.813  0.00  0.00    +0.000 A 
ATOM      6  C   UNL     1       2.968   3.869  17.538  0.00  0.00    +0.000 A 
ATOM      7  C   UNL     1       1.314   2.904  19.043  0.00  0.00    +0.000 C 
ATOM      8  O   UNL     1       0.542   2.595  18.138  0.00  0.00    +0.000 OA
ATOM      9  N   UNL     1       1.319   2.169  20.203  0.00  0.00    +0.000 N 
ATOM     10  C   UNL     1       1.358   2.763  21.524  0.00  0.00    +0.000 C 
ATOM     11  C   UNL     1       2.499   3.735  21.775  0.00  0.00    +0.000 C 
ATOM     12  O   UNL     1       2.323   4.933  21.016  0.00  0.00    +0.000 OA
ATOM     13  H   UNL     1       0.654   1.410  20.114  0.00  0.00    +0.000 HD
ENDROOT
BRANCH   1  14
ATOM     14  O   UNL     1       4.782   4.637  16.070  0.00  0.00    +0.000 OA
BRANCH  14  15
ATOM     15  C   UNL     1       6.174   4.947  16.167  0.00  0.00    +0.000 C 
BRANCH  15  16
ATOM     16  C   UNL     1       6.830   4.713  14.811  0.00  0.00    +0.000 C 
BRANCH  16  17
ATOM     17  C   UNL     1       5.916   3.886  13.910  0.00  0.00    +0.000 C 
BRANCH  17  18
ATOM     18  C   UNL     1       6.561   3.607  12.556  0.00  0.00    +0.000 C 
BRANCH  18  19
ATOM     19  C   UNL     1       5.592   2.854  11.636  0.00  0.00    +0.000 C 
BRANCH  19  20
ATOM     20  C   UNL     1       4.221   3.527  11.598  0.00  0.00    +0.000 C 
BRANCH  20  22
ATOM     21  C   UNL     1       2.873   4.250   9.598  0.00  0.00    +0.000 C 
ATOM     22  C   UNL     1       3.409   3.067  10.388  0.00  0.00    +0.000 C 
ENDBRANCH  20  22
ENDBRANCH  19  20
ENDBRANCH  18  19
ENDBRANCH  17  18
ENDBRANCH  16  17
ENDBRANCH  15  16
ENDBRANCH  14  15
ENDBRANCH   1  14
TORSDOF 8
ENDMDL
MODEL 2
REMARK VINA RESULT:      -7.4      3.249      6.472
REMARK  Name = 
REMARK  9 active torsions:
REMARK  status: ('A' for Active; 'I' for Inactive)
REMARK    1  A    between atoms: C_1  and  C_2
REMARK    2  A    between atoms: C_2  and  C_3
REMARK    3  A    between atoms: C_3  and  C_4
REMARK    4  A    between atoms: C_4  and  C_5
REMARK    5  A    between atoms: C_5  and  C_6
REMARK    6  A    between atoms: C_6  and  C_7
REMARK    7  A    between atoms: C_7  and  C_8
REMARK    8  A    between atoms: C_8  and  O_9
REMARK    9  A    between atoms: O_9  and  C_10
REMARK                            x       y       z     vdW  Elec       q    Type
REMARK                         _______ _______ _______ _____ _____    ______ ____
ROOT
ATOM      1  C   UNL     1       3.047   6.062  19.355  0.00  0.00    +0.000 A 
ATOM      2  C   UNL     1       2.634   6.869  18.295  0.00  0.00    +0.000 A 
ATOM      3  C   UNL     1       3.486   7.116  17.217  0.00  0.00    +0.000 A 
ATOM      4  C   UNL     1       4.740   6.505  17.163  0.00  0.00    +0.000 A 
ATOM      5  C   UNL     1       5.165   5.697  18.216  0.00  0.00    +0.000 A 
ATOM      6  C   UNL     1       4.327   5.510  19.328  0.00  0.00    +0.000 A 
ATOM      7  C   UNL     1       6.429   4.930  18.243  0.00  0.00    +0.000 C 
ATOM      8  O   UNL     1       7.026   4.748  19.301  0.00  0.00    +0.000 OA
ATOM      9  N   UNL     1       6.824   4.246  17.120  0.00  0.00    +0.000 N 
ATOM     10  C   UNL     1       6.964   4.863  15.816  0.00  0.00    +0.000 C 
ATOM     11  C   UNL     1       5.740   5.604  15.305  0.00  0.00    +0.000 C 
ATOM     12  O   UNL     1       5.506   6.788  16.069  0.00  0.00    +0.000 OA
ATOM     13  H   UNL     1       7.588   3.626  17.365  0.00  0.00    +0.000 HD
ENDROOT
BRANCH   1  14
ATOM     14  O   UNL     1       2.119   5.867  20.343  0.00  0.00    +0.000 OA
BRANCH  14  15
ATOM     15  C   UNL     1       2.263   4.671  21.112  0.00  0.00    +0.000 C 
BRANCH  15  16
ATOM     16  C   UNL     1       1.117   3.723  20.775  0.00  0.00    +0.000 C 
BRANCH  16  17
ATOM     17  C   UNL     1       0.892   3.672  19.266  0.00  0.00    +0.000 C 
BRANCH  17  18
ATOM     18  C   UNL     1       1.282   2.316  18.684  0.00  0.00    +0.000 C 
BRANCH  18  19
ATOM     19  C   UNL     1       2.211   2.488  17.477  0.00  0.00    +0.000 C 
BRANCH  19  20
ATOM     20  C   UNL     1       3.680   2.394  17.886  0.00  0.00    +0.000 C 
BRANCH  20  22
ATOM     21  C   UNL     1       4.616   2.015  20.191  0.00  0.00    +0.000 C 
ATOM     22  C   UNL     1       3.878   1.389  19.019  0.00  0.00    +0.000 C 
ENDBRANCH  20  22
ENDBRANCH  19  20
ENDBRANCH  18  19
ENDBRANCH  17  18
ENDBRANCH  16  17
ENDBRANCH  15  16
ENDBRANCH  14  15
ENDBRANCH   1  14
TORSDOF 8
ENDMDL
MODEL 3
REMARK VINA RESULT:      -7.3      1.420      2.048
REMARK  Name = 
REMARK  9 active torsions:
REMARK  status: ('A' for Active; 'I' for Inactive)
REMARK    1  A    between atoms: C_1  and  C_2
REMARK    2  A    between atoms: C_2  and  C_3
REMARK    3  A    between atoms: C_3  and  C_4
REMARK    4  A    between atoms: C_4  and  C_5
REMARK    5  A    between atoms: C_5  and  C_6
REMARK    6  A    between atoms: C_6  and  C_7
REMARK    7  A    between atoms: C_7  and  C_8
REMARK    8  A    between atoms: C_8  and  O_9
REMARK    9  A    between atoms: O_9  and  C_10
REMARK                            x       y       z     vdW  Elec       q    Type
REMARK                         _______ _______ _______ _____ _____    ______ ____
ROOT
ATOM      1  C   UNL     1       4.838   4.484  17.750  0.00  0.00    +0.000 A 
ATOM      2  C   UNL     1       3.649   4.602  17.030  0.00  0.00    +0.000 A 
ATOM      3  C   UNL     1       2.484   3.975  17.475  0.00  0.00    +0.000 A 
ATOM      4  C   UNL     1       2.485   3.273  18.680  0.00  0.00    +0.000 A 
ATOM      5  C   UNL     1       3.666   3.145  19.409  0.00  0.00    +0.000 A 
ATOM      6  C   UNL     1       4.848   3.723  18.918  0.00  0.00    +0.000 A 
ATOM      7  C   UNL     1       3.781   2.501  20.735  0.00  0.00    +0.000 C 
ATOM      8  O   UNL     1       4.806   1.900  21.050  0.00  0.00    +0.000 OA
ATOM      9  N   UNL     1       2.828   2.752  21.691  0.00  0.00    +0.000 N 
ATOM     10  C   UNL     1       1.408   2.562  21.472  0.00  0.00    +0.000 C 
ATOM     11  C   UNL     1       0.826   3.281  20.266  0.00  0.00    +0.000 C 
ATOM     12  O   UNL     1       1.302   2.701  19.050  0.00  0.00    +0.000 OA
ATOM     13  H   UNL     1       3.157   2.401  22.583  0.00  0.00    +0.000 HD
ENDROOT
BRANCH   1  14
ATOM     14  O   UNL     1       5.909   5.163  17.235  0.00  0.00    +0.000 OA
BRANCH  14  15
ATOM     15  C   UNL     1       5.779   5.606  15.882  0.00  0.00    +0.000 C 
BRANCH  15  16
ATOM     16  C   UNL     1       6.850   4.930  15.033  0.00  0.00    +0.000 C 
BRANCH  16  17
ATOM     17  C   UNL     1       6.285   3.686  14.350  0.00  0.00    +0.000 C 
BRANCH  17  18
ATOM     18  C   UNL     1       6.286   3.828  12.831  0.00  0.00    +0.000 C 
BRANCH  18  19
ATOM     19  C   UNL     1       4.853   3.861  12.286  0.00  0.00    +0.000 C 
BRANCH  19  20
ATOM     20  C   UNL     1       4.629   2.768  11.242  0.00  0.00    +0.000 C 
BRANCH  20  22
ATOM     21  C   UNL     1       3.118   4.233   9.860  0.00  0.00    +0.000 C 
ATOM     22  C   UNL     1       3.256   2.903  10.583  0.00  0.00    +0.000 C 
ENDBRANCH  20  22
ENDBRANCH  19  20
ENDBRANCH  18  19
ENDBRANCH  17  18
ENDBRANCH  16  17
ENDBRANCH  15  16
ENDBRANCH  14  15
ENDBRANCH   1  14
TORSDOF 8
ENDMDL
MODEL 4
REMARK VINA RESULT:      -7.3      3.146      6.454
REMARK  Name = 
REMARK  9 active torsions:
REMARK  status: ('A' for Active; 'I' for Inactive)
REMARK    1  A    between atoms: C_1  and  C_2
REMARK    2  A    between atoms: C_2  and  C_3
REMARK    3  A    between atoms: C_3  and  C_4
REMARK    4  A    between atoms: C_4  and  C_5
REMARK    5  A    between atoms: C_5  and  C_6
REMARK    6  A    between atoms: C_6  and  C_7
REMARK    7  A    between atoms: C_7  and  C_8
REMARK    8  A    between atoms: C_8  and  O_9
REMARK    9  A    between atoms: O_9  and  C_10
REMARK                            x       y       z     vdW  Elec       q    Type
REMARK                         _______ _______ _______ _____ _____    ______ ____
ROOT
ATOM      1  C   UNL     1       3.606   6.140  19.442  0.00  0.00    +0.000 A 
ATOM      2  C   UNL     1       3.020   6.851  18.395  0.00  0.00    +0.000 A 
ATOM      3  C   UNL     1       3.686   6.997  17.176  0.00  0.00    +0.000 A 
ATOM      4  C   UNL     1       4.921   6.379  16.976  0.00  0.00    +0.000 A 
ATOM      5  C   UNL     1       5.518   5.668  18.015  0.00  0.00    +0.000 A 
ATOM      6  C   UNL     1       4.870   5.584  19.259  0.00  0.00    +0.000 A 
ATOM      7  C   UNL     1       6.779   4.902  17.907  0.00  0.00    +0.000 C 
ATOM      8  O   UNL     1       7.539   4.813  18.868  0.00  0.00    +0.000 OA
ATOM      9  N   UNL     1       6.997   4.118  16.801  0.00  0.00    +0.000 N 
ATOM     10  C   UNL     1       6.919   4.616  15.442  0.00  0.00    +0.000 C 
ATOM     11  C   UNL     1       5.621   5.312  15.070  0.00  0.00    +0.000 C 
ATOM     12  O   UNL     1       5.499   6.561  15.753  0.00  0.00    +0.000 OA
ATOM     13  H   UNL     1       7.797   3.521  16.975  0.00  0.00    +0.000 HD
ENDROOT
BRANCH   1  14
ATOM     14  O   UNL     1       2.850   6.038  20.580  0.00  0.00    +0.000 OA
BRANCH  14  15
ATOM     15  C   UNL     1       1.771   5.102  20.533  0.00  0.00    +0.000 C 
BRANCH  15  16
ATOM     16  C   UNL     1       2.056   3.967  21.512  0.00  0.00    +0.000 C 
BRANCH  16  17
ATOM     17  C   UNL     1       1.765   2.616  20.863  0.00  0.00    +0.000 C 
BRANCH  17  18
ATOM     18  C   UNL     1       0.660   2.719  19.816  0.00  0.00    +0.000 C 
BRANCH  18  19
ATOM     19  C   UNL     1       1.176   2.297  18.435  0.00  0.00    +0.000 C 
BRANCH  19  20
ATOM     20  C   UNL     1       1.621   3.506  17.612  0.00  0.00    +0.000 C 
BRANCH  20  22
ATOM     21  C   UNL     1       3.839   2.329  17.794  0.00  0.00    +0.000 C 
ATOM     22  C   UNL     1       2.979   3.261  16.956  0.00  0.00    +0.000 C 
ENDBRANCH  20  22
ENDBRANCH  19  20
ENDBRANCH  18  19
ENDBRANCH  17  18
ENDBRANCH  16  17
ENDBRANCH  15  16
ENDBRANCH  14  15
ENDBRANCH   1  14
TORSDOF 8
ENDMDL
MODEL 5
REMARK VINA RESULT:      -7.3      4.068      6.233
REMARK  Name = 
REMARK  9 active torsions:
REMARK  status: ('A' for Active; 'I' for Inactive)
REMARK    1  A    between atoms: C_1  and  C_2
REMARK    2  A    between atoms: C_2  and  C_3
REMARK    3  A    between atoms: C_3  and  C_4
REMARK    4  A    between atoms: C_4  and  C_5
REMARK    5  A    between atoms: C_5  and  C_6
REMARK    6  A    between atoms: C_6  and  C_7
REMARK    7  A    between atoms: C_7  and  C_8
REMARK    8  A    between atoms: C_8  and  O_9
REMARK    9  A    between atoms: O_9  and  C_10
REMARK                            x       y       z     vdW  Elec       q    Type
REMARK                         _______ _______ _______ _____ _____    ______ ____
ROOT
ATOM      1  C   UNL     1       4.951   5.470  18.245  0.00  0.00    +0.000 A 
ATOM      2  C   UNL     1       3.749   5.925  17.701  0.00  0.00    +0.000 A 
ATOM      3  C   UNL     1       2.550   5.265  17.977  0.00  0.00    +0.000 A 
ATOM      4  C   UNL     1       2.536   4.177  18.850  0.00  0.00    +0.000 A 
ATOM      5  C   UNL     1       3.730   3.711  19.399  0.00  0.00    +0.000 A 
ATOM      6  C   UNL     1       4.939   4.340  19.061  0.00  0.00    +0.000 A 
ATOM      7  C   UNL     1       3.840   2.626  20.397  0.00  0.00    +0.000 C 
ATOM      8  O   UNL     1       4.816   1.880  20.403  0.00  0.00    +0.000 OA
ATOM      9  N   UNL     1       2.955   2.583  21.446  0.00  0.00    +0.000 N 
ATOM     10  C   UNL     1       1.515   2.587  21.277  0.00  0.00    +0.000 C 
ATOM     11  C   UNL     1       0.953   3.731  20.451  0.00  0.00    +0.000 C 
ATOM     12  O   UNL     1       1.322   3.596  19.077  0.00  0.00    +0.000 OA
ATOM     13  H   UNL     1       3.286   1.912  22.129  0.00  0.00    +0.000 HD
ENDROOT
BRANCH   1  14
ATOM     14  O   UNL     1       6.058   6.211  17.929  0.00  0.00    +0.000 OA
BRANCH  14  15
ATOM     15  C   UNL     1       7.249   5.900  18.656  0.00  0.00    +0.000 C 
BRANCH  15  16
ATOM     16  C   UNL     1       8.183   7.105  18.617  0.00  0.00    +0.000 C 
BRANCH  16  17
ATOM     17  C   UNL     1       7.781   8.057  17.493  0.00  0.00    +0.000 C 
BRANCH  17  18
ATOM     18  C   UNL     1       8.017   9.515  17.878  0.00  0.00    +0.000 C 
BRANCH  18  19
ATOM     19  C   UNL     1       9.068   9.622  18.989  0.00  0.00    +0.000 C 
BRANCH  19  20
ATOM     20  C   UNL     1       9.872  10.917  18.873  0.00  0.00    +0.000 C 
BRANCH  20  22
ATOM     21  C   UNL     1      10.126  13.069  17.593  0.00  0.00    +0.000 C 
ATOM     22  C   UNL     1       9.210  11.897  17.907  0.00  0.00    +0.000 C 
ENDBRANCH  20  22
ENDBRANCH  19  20
ENDBRANCH  18  19
ENDBRANCH  17  18
ENDBRANCH  16  17
ENDBRANCH  15  16
ENDBRANCH  14  15
ENDBRANCH   1  14
TORSDOF 8
ENDMDL
MODEL 6
REMARK VINA RESULT:      -7.2      3.702      6.710
REMARK  Name = 
REMARK  9 active torsions:
REMARK  status: ('A' for Active; 'I' for Inactive)
REMARK    1  A    between atoms: C_1  and  C_2
REMARK    2  A    between atoms: C_2  and  C_3
REMARK    3  A    between atoms: C_3  and  C_4
REMARK    4  A    between atoms: C_4  and  C_5
REMARK    5  A    between atoms: C_5  and  C_6
REMARK    6  A    between atoms: C_6  and  C_7
REMARK    7  A    between atoms: C_7  and  C_8
REMARK    8  A    between atoms: C_8  and  O_9
REMARK    9  A    between atoms: O_9  and  C_10
REMARK                            x       y       z     vdW  Elec       q    Type
REMARK                         _______ _______ _______ _____ _____    ______ ____
ROOT
ATOM      1  C   UNL     1       3.491   3.447  17.633  0.00  0.00    +0.000 A 
ATOM      2  C   UNL     1       4.153   3.033  18.790  0.00  0.00    +0.000 A 
ATOM      3  C   UNL     1       5.441   3.492  19.073  0.00  0.00    +0.000 A 
ATOM      4  C   UNL     1       6.054   4.419  18.229  0.00  0.00    +0.000 A 
ATOM      5  C   UNL     1       5.405   4.839  17.070  0.00  0.00    +0.000 A 
ATOM      6  C   UNL     1       4.137   4.319  16.759  0.00  0.00    +0.000 A 
ATOM      7  C   UNL     1       5.908   5.874  16.140  0.00  0.00    +0.000 C 
ATOM      8  O   UNL     1       5.674   5.798  14.937  0.00  0.00    +0.000 OA
ATOM      9  N   UNL     1       6.456   7.025  16.649  0.00  0.00    +0.000 N 
ATOM     10  C   UNL     1       7.543   7.037  17.607  0.00  0.00    +0.000 C 
ATOM     11  C   UNL     1       7.314   6.226  18.872  0.00  0.00    +0.000 C 
ATOM     12  O   UNL     1       7.308   4.827  18.584  0.00  0.00    +0.000 OA
ATOM     13  H   UNL     1       6.564   7.697  15.897  0.00  0.00    +0.000 HD
ENDROOT
BRANCH   1  14
ATOM     14  O   UNL     1       2.223   2.955  17.473  0.00  0.00    +0.000 OA
BRANCH  14  15
ATOM     15  C   UNL     1       1.787   2.014  18.456  0.00  0.00    +0.000 C 
BRANCH  15  16
ATOM     16  C   UNL     1       0.604   2.604  19.217  0.00  0.00    +0.000 C 
BRANCH  16  17
ATOM     17  C   UNL     1       1.082   3.304  20.488  0.00  0.00    +0.000 C 
BRANCH  17  18
ATOM     18  C   UNL     1       0.950   4.820  20.379  0.00  0.00    +0.000 C 
BRANCH  18  19
ATOM     19  C   UNL     1       2.317   5.498  20.527  0.00  0.00    +0.000 C 
BRANCH  19  20
ATOM     20  C   UNL     1       2.308   6.908  19.938  0.00  0.00    +0.000 C 
BRANCH  20  22
ATOM     21  C   UNL     1       2.433   8.277  17.829  0.00  0.00    +0.000 C 
ATOM     22  C   UNL     1       2.428   6.874  18.415  0.00  0.00    +0.000 C 
ENDBRANCH  20  22
ENDBRANCH  19  20
ENDBRANCH  18  19
ENDBRANCH  17  18
ENDBRANCH  16  17
ENDBRANCH  15  16
ENDBRANCH  14  15
ENDBRANCH   1  14
TORSDOF 8
ENDMDL
MODEL 7
REMARK VINA RESULT:      -7.2      2.064      2.840
REMARK  Name = 
REMARK  9 active torsions:
REMARK  status: ('A' for Active; 'I' for Inactive)
REMARK    1  A    between atoms: C_1  and  C_2
REMARK    2  A    between atoms: C_2  and  C_3
REMARK    3  A    between atoms: C_3  and  C_4
REMARK    4  A    between atoms: C_4  and  C_5
REMARK    5  A    between atoms: C_5  and  C_6
REMARK    6  A    between atoms: C_6  and  C_7
REMARK    7  A    between atoms: C_7  and  C_8
REMARK    8  A    between atoms: C_8  and  O_9
REMARK    9  A    between atoms: O_9  and  C_10
REMARK                            x       y       z     vdW  Elec       q    Type
REMARK                         _______ _______ _______ _____ _____    ______ ____
ROOT
ATOM      1  C   UNL     1       5.356   4.802  19.204  0.00  0.00    +0.000 A 
ATOM      2  C   UNL     1       4.501   5.884  18.996  0.00  0.00    +0.000 A 
ATOM      3  C   UNL     1       3.189   5.679  18.565  0.00  0.00    +0.000 A 
ATOM      4  C   UNL     1       2.703   4.382  18.396  0.00  0.00    +0.000 A 
ATOM      5  C   UNL     1       3.548   3.292  18.599  0.00  0.00    +0.000 A 
ATOM      6  C   UNL     1       4.885   3.512  18.967  0.00  0.00    +0.000 A 
ATOM      7  C   UNL     1       3.136   1.873  18.535  0.00  0.00    +0.000 C 
ATOM      8  O   UNL     1       3.917   1.014  18.135  0.00  0.00    +0.000 OA
ATOM      9  N   UNL     1       1.953   1.489  19.118  0.00  0.00    +0.000 N 
ATOM     10  C   UNL     1       0.677   2.107  18.819  0.00  0.00    +0.000 C 
ATOM     11  C   UNL     1       0.622   3.616  18.986  0.00  0.00    +0.000 C 
ATOM     12  O   UNL     1       1.406   4.268  17.985  0.00  0.00    +0.000 OA
ATOM     13  H   UNL     1       1.921   0.477  19.157  0.00  0.00    +0.000 HD
ENDROOT
BRANCH   1  14
ATOM     14  O   UNL     1       6.610   5.121  19.653  0.00  0.00    +0.000 OA
BRANCH  14  15
ATOM     15  C   UNL     1       7.531   5.583  18.663  0.00  0.00    +0.000 C 
BRANCH  15  16
ATOM     16  C   UNL     1       7.486   4.641  17.464  0.00  0.00    +0.000 C 
BRANCH  16  17
ATOM     17  C   UNL     1       7.273   5.428  16.174  0.00  0.00    +0.000 C 
BRANCH  17  18
ATOM     18  C   UNL     1       5.831   5.330  15.685  0.00  0.00    +0.000 C 
BRANCH  18  19
ATOM     19  C   UNL     1       5.591   4.002  14.957  0.00  0.00    +0.000 C 
BRANCH  19  20
ATOM     20  C   UNL     1       6.292   3.976  13.599  0.00  0.00    +0.000 C 
BRANCH  20  22
ATOM     21  C   UNL     1       5.906   2.349  11.717  0.00  0.00    +0.000 C 
ATOM     22  C   UNL     1       5.340   3.529  12.491  0.00  0.00    +0.000 C 
ENDBRANCH  20  22
ENDBRANCH  19  20
ENDBRANCH  18  19
ENDBRANCH  17  18
ENDBRANCH  16  17
ENDBRANCH  15  16
ENDBRANCH  14  15
ENDBRANCH   1  14
TORSDOF 8
ENDMDL
MODEL 8
REMARK VINA RESULT:      -7.2      3.122      6.855
REMARK  Name = 
REMARK  9 active torsions:
REMARK  status: ('A' for Active; 'I' for Inactive)
REMARK    1  A    between atoms: C_1  and  C_2
REMARK    2  A    between atoms: C_2  and  C_3
REMARK    3  A    between atoms: C_3  and  C_4
REMARK    4  A    between atoms: C_4  and  C_5
REMARK    5  A    between atoms: C_5  and  C_6
REMARK    6  A    between atoms: C_6  and  C_7
REMARK    7  A    between atoms: C_7  and  C_8
REMARK    8  A    between atoms: C_8  and  O_9
REMARK    9  A    between atoms: O_9  and  C_10
REMARK                            x       y       z     vdW  Elec       q    Type
REMARK                         _______ _______ _______ _____ _____    ______ ____
ROOT
ATOM      1  C   UNL     1       3.577   2.867  18.758  0.00  0.00    +0.000 A 
ATOM      2  C   UNL     1       2.880   2.993  17.556  0.00  0.00    +0.000 A 
ATOM      3  C   UNL     1       3.420   3.723  16.496  0.00  0.00    +0.000 A 
ATOM      4  C   UNL     1       4.693   4.283  16.609  0.00  0.00    +0.000 A 
ATOM      5  C   UNL     1       5.399   4.167  17.805  0.00  0.00    +0.000 A 
ATOM      6  C   UNL     1       4.818   3.488  18.889  0.00  0.00    +0.000 A 
ATOM      7  C   UNL     1       6.783   4.641  18.025  0.00  0.00    +0.000 C 
ATOM      8  O   UNL     1       7.131   5.057  19.127  0.00  0.00    +0.000 OA
ATOM      9  N   UNL     1       7.731   4.421  17.057  0.00  0.00    +0.000 N 
ATOM     10  C   UNL     1       7.572   4.828  15.675  0.00  0.00    +0.000 C 
ATOM     11  C   UNL     1       6.313   4.332  14.985  0.00  0.00    +0.000 C 
ATOM     12  O   UNL     1       5.153   4.969  15.522  0.00  0.00    +0.000 OA
ATOM     13  H   UNL     1       8.647   4.624  17.442  0.00  0.00    +0.000 HD
ENDROOT
BRANCH   1  14
ATOM     14  O   UNL     1       2.964   2.107  19.718  0.00  0.00    +0.000 OA
BRANCH  14  15
ATOM     15  C   UNL     1       3.162   2.525  21.070  0.00  0.00    +0.000 C 
BRANCH  15  16
ATOM     16  C   UNL     1       1.822   2.956  21.657  0.00  0.00    +0.000 C 
BRANCH  16  17
ATOM     17  C   UNL     1       1.111   3.924  20.714  0.00  0.00    +0.000 C 
BRANCH  17  18
ATOM     18  C   UNL     1       1.756   5.307  20.736  0.00  0.00    +0.000 C 
BRANCH  18  19
ATOM     19  C   UNL     1       1.831   5.896  19.322  0.00  0.00    +0.000 C 
BRANCH  19  20
ATOM     20  C   UNL     1       3.088   6.745  19.138  0.00  0.00    +0.000 C 
BRANCH  20  22
ATOM     21  C   UNL     1       2.060   8.637  17.834  0.00  0.00    +0.000 C 
ATOM     22  C   UNL     1       3.062   7.494  17.806  0.00  0.00    +0.000 C 
ENDBRANCH  20  22
ENDBRANCH  19  20
ENDBRANCH  18  19
ENDBRANCH  17  18
ENDBRANCH  16  17
ENDBRANCH  15  16
ENDBRANCH  14  15
ENDBRANCH   1  14
TORSDOF 8
ENDMDL
MODEL 9
REMARK VINA RESULT:      -7.2      1.430      1.495
REMARK  Name = 
REMARK  9 active torsions:
REMARK  status: ('A' for Active; 'I' for Inactive)
REMARK    1  A    between atoms: C_1  and  C_2
REMARK    2  A    between atoms: C_2  and  C_3
REMARK    3  A    between atoms: C_3  and  C_4
REMARK    4  A    between atoms: C_4  and  C_5
REMARK    5  A    between atoms: C_5  and  C_6
REMARK    6  A    between atoms: C_6  and  C_7
REMARK    7  A    between atoms: C_7  and  C_8
REMARK    8  A    between atoms: C_8  and  O_9
REMARK    9  A    between atoms: O_9  and  C_10
REMARK                            x       y       z     vdW  Elec       q    Type
REMARK                         _______ _______ _______ _____ _____    ______ ____
ROOT
ATOM      1  C   UNL     1       5.051   5.212  17.398  0.00  0.00    +0.000 A 
ATOM      2  C   UNL     1       4.139   6.266  17.458  0.00  0.00    +0.000 A 
ATOM      3  C   UNL     1       2.902   6.100  18.084  0.00  0.00    +0.000 A 
ATOM      4  C   UNL     1       2.592   4.892  18.709  0.00  0.00    +0.000 A 
ATOM      5  C   UNL     1       3.492   3.830  18.654  0.00  0.00    +0.000 A 
ATOM      6  C   UNL     1       4.706   3.986  17.964  0.00  0.00    +0.000 A 
ATOM      7  C   UNL     1       3.320   2.532  19.342  0.00  0.00    +0.000 C 
ATOM      8  O   UNL     1       3.752   1.497  18.839  0.00  0.00    +0.000 OA
ATOM      9  N   UNL     1       2.862   2.512  20.636  0.00  0.00    +0.000 N 
ATOM     10  C   UNL     1       1.635   3.155  21.060  0.00  0.00    +0.000 C 
ATOM     11  C   UNL     1       1.514   4.631  20.717  0.00  0.00    +0.000 C 
ATOM     12  O   UNL     1       1.368   4.816  19.308  0.00  0.00    +0.000 OA
ATOM     13  H   UNL     1       2.990   1.581  21.015  0.00  0.00    +0.000 HD
ENDROOT
BRANCH   1  14
ATOM     14  O   UNL     1       6.242   5.498  16.785  0.00  0.00    +0.000 OA
BRANCH  14  15
ATOM     15  C   UNL     1       6.773   4.475  15.940  0.00  0.00    +0.000 C 
BRANCH  15  16
ATOM     16  C   UNL     1       6.054   4.519  14.596  0.00  0.00    +0.000 C 
BRANCH  16  17
ATOM     17  C   UNL     1       7.064   4.538  13.450  0.00  0.00    +0.000 C 
BRANCH  17  18
ATOM     18  C   UNL     1       6.554   3.766  12.237  0.00  0.00    +0.000 C 
BRANCH  18  19
ATOM     19  C   UNL     1       5.028   3.631  12.278  0.00  0.00    +0.000 C 
BRANCH  19  20
ATOM     20  C   UNL     1       4.520   2.699  11.179  0.00  0.00    +0.000 C 
BRANCH  20  22
ATOM     21  C   UNL     1       3.110   4.314   9.860  0.00  0.00    +0.000 C 
ATOM     22  C   UNL     1       3.106   3.075  10.741  0.00  0.00    +0.000 C 
ENDBRANCH  20  22
ENDBRANCH  19  20
ENDBRANCH  18  19
ENDBRANCH  17  18
ENDBRANCH  16  17
ENDBRANCH  15  16
ENDBRANCH  14  15
ENDBRANCH   1  14
TORSDOF 8
ENDMDL
