MODEL 1
REMARK VINA RESULT:      -8.8      0.000      0.000
REMARK  Name = 
REMARK  8 active torsions:
REMARK  status: ('A' for Active; 'I' for Inactive)
REMARK    1  A    between atoms: C_1  and  N_2
REMARK    2  A    between atoms: N_2  and  C_27
REMARK    3  A    between atoms: C_3  and  C_5
REMARK    4  A    between atoms: C_5  and  S_6
REMARK    5  A    between atoms: S_6  and  C_7
REMARK    6  A    between atoms: N_15  and  C_16
REMARK    7  A    between atoms: C_16  and  C_17
REMARK    8  A    between atoms: C_21  and  C_22
REMARK                            x       y       z     vdW  Elec       q    Type
REMARK                         _______ _______ _______ _____ _____    ______ ____
ROOT
ATOM      1  C   UNL     1       7.078   5.377  16.206  0.00  0.00    +0.000 A 
ATOM      2  N   UNL     1       7.765   5.739  15.147  0.00  0.00    +0.000 NA
ATOM      3  C   UNL     1       7.239   5.006  14.109  0.00  0.00    +0.000 A 
ATOM      4  C   UNL     1       7.569   5.018  12.743  0.00  0.00    +0.000 A 
ATOM      5  C   UNL     1       6.857   4.192  11.862  0.00  0.00    +0.000 A 
ATOM      6  C   UNL     1       5.851   3.349  12.333  0.00  0.00    +0.000 A 
ATOM      7  C   UNL     1       5.538   3.291  13.693  0.00  0.00    +0.000 A 
ATOM      8  C   UNL     1       6.238   4.146  14.558  0.00  0.00    +0.000 A 
ATOM      9  N   UNL     1       6.186   4.370  15.921  0.00  0.00    +0.000 N 
ENDROOT
BRANCH   1  10
ATOM     10  S   UNL     1       7.208   6.076  17.785  0.00  0.00    +0.000 S 
BRANCH  10  11
ATOM     11  C   UNL     1       7.207   7.861  17.422  0.00  0.00    +0.000 C 
BRANCH  11  14
ATOM     12  C   UNL     1       7.533  10.789  17.297  0.00  0.00    +0.000 C 
ATOM     13  N   UNL     1       8.454   9.966  18.088  0.00  0.00    +0.000 N 
ATOM     14  C   UNL     1       8.282   8.574  18.259  0.00  0.00    +0.000 C 
ATOM     15  O   UNL     1       8.915   7.919  19.095  0.00  0.00    +0.000 OA
BRANCH  13  16
ATOM     16  C   UNL     1       9.509  10.690  18.786  0.00  0.00    +0.000 A 
ATOM     17  C   UNL     1      10.690  11.096  18.143  0.00  0.00    +0.000 A 
ATOM     18  C   UNL     1      11.698  11.792  18.826  0.00  0.00    +0.000 A 
ATOM     19  C   UNL     1      11.549  12.105  20.172  0.00  0.00    +0.000 A 
ATOM     20  C   UNL     1      10.385  11.731  20.831  0.00  0.00    +0.000 A 
ATOM     21  C   UNL     1       9.377  11.042  20.143  0.00  0.00    +0.000 A 
ENDBRANCH  13  16
ENDBRANCH  11  14
ENDBRANCH  10  11
ENDBRANCH   1  10
BRANCH   9  22
ATOM     22  C   UNL     1       5.482   3.535  16.884  0.00  0.00    +0.000 C 
BRANCH  22  23
ATOM     23  C   UNL     1       4.170   4.108  17.363  0.00  0.00    +0.000 A 
ATOM     24  C   UNL     1       3.925   5.486  17.277  0.00  0.00    +0.000 A 
ATOM     25  C   UNL     1       2.774   6.043  17.838  0.00  0.00    +0.000 A 
ATOM     26  C   UNL     1       1.851   5.231  18.497  0.00  0.00    +0.000 A 
ATOM     27  C   UNL     1       2.061   3.849  18.580  0.00  0.00    +0.000 A 
ATOM     28  C   UNL     1       3.213   3.298  17.995  0.00  0.00    +0.000 A 
BRANCH  27  29
ATOM     29  C   UNL     1       1.095   2.948  19.310  0.00  0.00    +0.000 C 
ATOM     30  F   UNL     1       0.339   3.593  20.241  0.00  0.00    +0.000 F 
ATOM     31  F   UNL     1       0.218   2.331  18.472  0.00  0.00    +0.000 F 
ATOM     32  F   UNL     1       1.735   1.947  19.981  0.00  0.00    +0.000 F 
ENDBRANCH  27  29
ENDBRANCH  22  23
ENDBRANCH   9  22
TORSDOF 7
ENDMDL
MODEL 2
REMARK VINA RESULT:      -8.7      1.765      2.394
REMARK  Name = 
REMARK  8 active torsions:
REMARK  status: ('A' for Active; 'I' for Inactive)
REMARK    1  A    between atoms: C_1  and  N_2
REMARK    2  A    between atoms: N_2  and  C_27
REMARK    3  A    between atoms: C_3  and  C_5
REMARK    4  A    between atoms: C_5  and  S_6
REMARK    5  A    between atoms: S_6  and  C_7
REMARK    6  A    between atoms: N_15  and  C_16
REMARK    7  A    between atoms: C_16  and  C_17
REMARK    8  A    between atoms: C_21  and  C_22
REMARK                            x       y       z     vdW  Elec       q    Type
REMARK                         _______ _______ _______ _____ _____    ______ ____
ROOT
ATOM      1  C   UNL     1       7.036   5.520  16.293  0.00  0.00    +0.000 A 
ATOM      2  N   UNL     1       7.722   5.856  15.224  0.00  0.00    +0.000 NA
ATOM      3  C   UNL     1       7.206   5.084  14.209  0.00  0.00    +0.000 A 
ATOM      4  C   UNL     1       7.538   5.056  12.844  0.00  0.00    +0.000 A 
ATOM      5  C   UNL     1       6.836   4.194  11.989  0.00  0.00    +0.000 A 
ATOM      6  C   UNL     1       5.839   3.356  12.485  0.00  0.00    +0.000 A 
ATOM      7  C   UNL     1       5.523   3.338  13.846  0.00  0.00    +0.000 A 
ATOM      8  C   UNL     1       6.213   4.228  14.684  0.00  0.00    +0.000 A 
ATOM      9  N   UNL     1       6.155   4.495  16.038  0.00  0.00    +0.000 N 
ENDROOT
BRANCH   1  10
ATOM     10  S   UNL     1       7.155   6.272  17.849  0.00  0.00    +0.000 S 
BRANCH  10  11
ATOM     11  C   UNL     1       7.245   8.040  17.422  0.00  0.00    +0.000 C 
BRANCH  11  14
ATOM     12  C   UNL     1       7.614  10.963  17.310  0.00  0.00    +0.000 C 
ATOM     13  N   UNL     1       8.529  10.123  18.089  0.00  0.00    +0.000 N 
ATOM     14  C   UNL     1       8.338   8.733  18.254  0.00  0.00    +0.000 C 
ATOM     15  O   UNL     1       8.968   8.063  19.080  0.00  0.00    +0.000 OA
BRANCH  13  16
ATOM     16  C   UNL     1       9.602  10.827  18.780  0.00  0.00    +0.000 A 
ATOM     17  C   UNL     1       9.512  11.184  20.135  0.00  0.00    +0.000 A 
ATOM     18  C   UNL     1      10.551  11.862  20.789  0.00  0.00    +0.000 A 
ATOM     19  C   UNL     1      11.713  12.197  20.104  0.00  0.00    +0.000 A 
ATOM     20  C   UNL     1      11.838  11.843  18.766  0.00  0.00    +0.000 A 
ATOM     21  C   UNL     1      10.799  11.160  18.119  0.00  0.00    +0.000 A 
ENDBRANCH  13  16
ENDBRANCH  11  14
ENDBRANCH  10  11
ENDBRANCH   1  10
BRANCH   9  22
ATOM     22  C   UNL     1       5.458   3.685  17.027  0.00  0.00    +0.000 C 
BRANCH  22  23
ATOM     23  C   UNL     1       4.095   4.208  17.414  0.00  0.00    +0.000 A 
ATOM     24  C   UNL     1       2.974   3.368  17.360  0.00  0.00    +0.000 A 
ATOM     25  C   UNL     1       1.692   3.874  17.584  0.00  0.00    +0.000 A 
ATOM     26  C   UNL     1       1.511   5.229  17.862  0.00  0.00    +0.000 A 
ATOM     27  C   UNL     1       2.616   6.086  17.942  0.00  0.00    +0.000 A 
ATOM     28  C   UNL     1       3.902   5.560  17.733  0.00  0.00    +0.000 A 
BRANCH  27  29
ATOM     29  C   UNL     1       2.451   7.561  18.213  0.00  0.00    +0.000 C 
ATOM     30  F   UNL     1       1.421   8.133  17.529  0.00  0.00    +0.000 F 
ATOM     31  F   UNL     1       2.227   7.830  19.528  0.00  0.00    +0.000 F 
ATOM     32  F   UNL     1       3.563   8.272  17.872  0.00  0.00    +0.000 F 
ENDBRANCH  27  29
ENDBRANCH  22  23
ENDBRANCH   9  22
TORSDOF 7
ENDMDL
MODEL 3
REMARK VINA RESULT:      -8.6      1.029      1.399
REMARK  Name = 
REMARK  8 active torsions:
REMARK  status: ('A' for Active; 'I' for Inactive)
REMARK    1  A    between atoms: C_1  and  N_2
REMARK    2  A    between atoms: N_2  and  C_27
REMARK    3  A    between atoms: C_3  and  C_5
REMARK    4  A    between atoms: C_5  and  S_6
REMARK    5  A    between atoms: S_6  and  C_7
REMARK    6  A    between atoms: N_15  and  C_16
REMARK    7  A    between atoms: C_16  and  C_17
REMARK    8  A    between atoms: C_21  and  C_22
REMARK                            x       y       z     vdW  Elec       q    Type
REMARK                         _______ _______ _______ _____ _____    ______ ____
ROOT
ATOM      1  C   UNL     1       6.932   5.581  16.297  0.00  0.00    +0.000 A 
ATOM      2  N   UNL     1       7.772   5.717  15.296  0.00  0.00    +0.000 NA
ATOM      3  C   UNL     1       7.195   5.036  14.248  0.00  0.00    +0.000 A 
ATOM      4  C   UNL     1       7.639   4.883  12.924  0.00  0.00    +0.000 A 
ATOM      5  C   UNL     1       6.848   4.162  12.019  0.00  0.00    +0.000 A 
ATOM      6  C   UNL     1       5.648   3.581  12.427  0.00  0.00    +0.000 A 
ATOM      7  C   UNL     1       5.210   3.687  13.749  0.00  0.00    +0.000 A 
ATOM      8  C   UNL     1       5.998   4.437  14.637  0.00  0.00    +0.000 A 
ATOM      9  N   UNL     1       5.874   4.764  15.974  0.00  0.00    +0.000 N 
ENDROOT
BRANCH   1  10
ATOM     10  S   UNL     1       7.068   6.349  17.843  0.00  0.00    +0.000 S 
BRANCH  10  11
ATOM     11  C   UNL     1       7.229   8.106  17.393  0.00  0.00    +0.000 C 
BRANCH  11  14
ATOM     12  C   UNL     1       7.634  11.026  17.327  0.00  0.00    +0.000 C 
ATOM     13  N   UNL     1       8.540  10.162  18.090  0.00  0.00    +0.000 N 
ATOM     14  C   UNL     1       8.332   8.772  18.234  0.00  0.00    +0.000 C 
ATOM     15  O   UNL     1       8.955   8.081  19.048  0.00  0.00    +0.000 OA
BRANCH  13  16
ATOM     16  C   UNL     1       9.622  10.841  18.792  0.00  0.00    +0.000 A 
ATOM     17  C   UNL     1      10.840  11.154  18.167  0.00  0.00    +0.000 A 
ATOM     18  C   UNL     1      11.874  11.807  18.853  0.00  0.00    +0.000 A 
ATOM     19  C   UNL     1      11.714  12.171  20.185  0.00  0.00    +0.000 A 
ATOM     20  C   UNL     1      10.514  11.890  20.826  0.00  0.00    +0.000 A 
ATOM     21  C   UNL     1       9.481  11.243  20.134  0.00  0.00    +0.000 A 
ENDBRANCH  13  16
ENDBRANCH  11  14
ENDBRANCH  10  11
ENDBRANCH   1  10
BRANCH   9  22
ATOM     22  C   UNL     1       4.926   4.164  16.902  0.00  0.00    +0.000 C 
BRANCH  22  23
ATOM     23  C   UNL     1       3.973   5.146  17.540  0.00  0.00    +0.000 A 
ATOM     24  C   UNL     1       3.926   6.476  17.098  0.00  0.00    +0.000 A 
ATOM     25  C   UNL     1       3.148   7.423  17.767  0.00  0.00    +0.000 A 
ATOM     26  C   UNL     1       2.409   7.056  18.891  0.00  0.00    +0.000 A 
ATOM     27  C   UNL     1       2.422   5.731  19.342  0.00  0.00    +0.000 A 
ATOM     28  C   UNL     1       3.193   4.783  18.649  0.00  0.00    +0.000 A 
BRANCH  27  29
ATOM     29  C   UNL     1       1.654   5.309  20.571  0.00  0.00    +0.000 C 
ATOM     30  F   UNL     1       2.441   4.810  21.565  0.00  0.00    +0.000 F 
ATOM     31  F   UNL     1       0.948   6.331  21.125  0.00  0.00    +0.000 F 
ATOM     32  F   UNL     1       0.742   4.333  20.295  0.00  0.00    +0.000 F 
ENDBRANCH  27  29
ENDBRANCH  22  23
ENDBRANCH   9  22
TORSDOF 7
ENDMDL
MODEL 4
REMARK VINA RESULT:      -8.6      4.211      7.002
REMARK  Name = 
REMARK  8 active torsions:
REMARK  status: ('A' for Active; 'I' for Inactive)
REMARK    1  A    between atoms: C_1  and  N_2
REMARK    2  A    between atoms: N_2  and  C_27
REMARK    3  A    between atoms: C_3  and  C_5
REMARK    4  A    between atoms: C_5  and  S_6
REMARK    5  A    between atoms: S_6  and  C_7
REMARK    6  A    between atoms: N_15  and  C_16
REMARK    7  A    between atoms: C_16  and  C_17
REMARK    8  A    between atoms: C_21  and  C_22
REMARK                            x       y       z     vdW  Elec       q    Type
REMARK                         _______ _______ _______ _____ _____    ______ ____
ROOT
ATOM      1  C   UNL     1       4.867   4.294  19.211  0.00  0.00    +0.000 A 
ATOM      2  N   UNL     1       4.757   3.057  18.784  0.00  0.00    +0.000 NA
ATOM      3  C   UNL     1       3.404   2.809  18.744  0.00  0.00    +0.000 A 
ATOM      4  C   UNL     1       2.713   1.659  18.329  0.00  0.00    +0.000 A 
ATOM      5  C   UNL     1       1.312   1.660  18.349  0.00  0.00    +0.000 A 
ATOM      6  C   UNL     1       0.607   2.776  18.798  0.00  0.00    +0.000 A 
ATOM      7  C   UNL     1       1.276   3.915  19.254  0.00  0.00    +0.000 A 
ATOM      8  C   UNL     1       2.679   3.909  19.199  0.00  0.00    +0.000 A 
ATOM      9  N   UNL     1       3.646   4.836  19.538  0.00  0.00    +0.000 N 
ENDROOT
BRANCH   1  10
ATOM     10  S   UNL     1       6.340   5.198  19.325  0.00  0.00    +0.000 S 
BRANCH  10  11
ATOM     11  C   UNL     1       6.263   6.258  17.847  0.00  0.00    +0.000 C 
BRANCH  11  14
ATOM     12  C   UNL     1       4.992   6.802  15.242  0.00  0.00    +0.000 C 
ATOM     13  N   UNL     1       5.939   5.694  15.396  0.00  0.00    +0.000 N 
ATOM     14  C   UNL     1       6.648   5.452  16.594  0.00  0.00    +0.000 C 
ATOM     15  O   UNL     1       7.601   4.668  16.663  0.00  0.00    +0.000 OA
BRANCH  13  16
ATOM     16  C   UNL     1       6.193   4.907  14.195  0.00  0.00    +0.000 A 
ATOM     17  C   UNL     1       5.322   3.894  13.765  0.00  0.00    +0.000 A 
ATOM     18  C   UNL     1       5.578   3.144  12.608  0.00  0.00    +0.000 A 
ATOM     19  C   UNL     1       6.714   3.392  11.846  0.00  0.00    +0.000 A 
ATOM     20  C   UNL     1       7.587   4.400  12.237  0.00  0.00    +0.000 A 
ATOM     21  C   UNL     1       7.323   5.151  13.391  0.00  0.00    +0.000 A 
ENDBRANCH  13  16
ENDBRANCH  11  14
ENDBRANCH  10  11
ENDBRANCH   1  10
BRANCH   9  22
ATOM     22  C   UNL     1       3.414   6.053  20.304  0.00  0.00    +0.000 C 
BRANCH  22  23
ATOM     23  C   UNL     1       2.623   7.109  19.570  0.00  0.00    +0.000 A 
ATOM     24  C   UNL     1       2.847   7.342  18.206  0.00  0.00    +0.000 A 
ATOM     25  C   UNL     1       2.220   8.404  17.551  0.00  0.00    +0.000 A 
ATOM     26  C   UNL     1       1.361   9.251  18.250  0.00  0.00    +0.000 A 
ATOM     27  C   UNL     1       1.103   9.029  19.608  0.00  0.00    +0.000 A 
ATOM     28  C   UNL     1       1.725   7.946  20.251  0.00  0.00    +0.000 A 
BRANCH  27  29
ATOM     29  C   UNL     1       0.200   9.944  20.398  0.00  0.00    +0.000 C 
ATOM     30  F   UNL     1       0.865  10.922  21.073  0.00  0.00    +0.000 F 
ATOM     31  F   UNL     1      -0.717  10.578  19.618  0.00  0.00    +0.000 F 
ATOM     32  F   UNL     1      -0.519   9.266  21.340  0.00  0.00    +0.000 F 
ENDBRANCH  27  29
ENDBRANCH  22  23
ENDBRANCH   9  22
TORSDOF 7
ENDMDL
MODEL 5
REMARK VINA RESULT:      -8.6      4.515      7.589
REMARK  Name = 
REMARK  8 active torsions:
REMARK  status: ('A' for Active; 'I' for Inactive)
REMARK    1  A    between atoms: C_1  and  N_2
REMARK    2  A    between atoms: N_2  and  C_27
REMARK    3  A    between atoms: C_3  and  C_5
REMARK    4  A    between atoms: C_5  and  S_6
REMARK    5  A    between atoms: S_6  and  C_7
REMARK    6  A    between atoms: N_15  and  C_16
REMARK    7  A    between atoms: C_16  and  C_17
REMARK    8  A    between atoms: C_21  and  C_22
REMARK                            x       y       z     vdW  Elec       q    Type
REMARK                         _______ _______ _______ _____ _____    ______ ____
ROOT
ATOM      1  C   UNL     1       3.103   6.051  18.142  0.00  0.00    +0.000 A 
ATOM      2  N   UNL     1       3.003   4.919  17.483  0.00  0.00    +0.000 NA
ATOM      3  C   UNL     1       2.191   4.122  18.257  0.00  0.00    +0.000 A 
ATOM      4  C   UNL     1       1.719   2.821  18.019  0.00  0.00    +0.000 A 
ATOM      5  C   UNL     1       0.863   2.224  18.956  0.00  0.00    +0.000 A 
ATOM      6  C   UNL     1       0.503   2.898  20.122  0.00  0.00    +0.000 A 
ATOM      7  C   UNL     1       0.995   4.176  20.397  0.00  0.00    +0.000 A 
ATOM      8  C   UNL     1       1.826   4.772  19.435  0.00  0.00    +0.000 A 
ATOM      9  N   UNL     1       2.465   5.995  19.359  0.00  0.00    +0.000 N 
ENDROOT
BRANCH   1  10
ATOM     10  S   UNL     1       3.894   7.484  17.578  0.00  0.00    +0.000 S 
BRANCH  10  11
ATOM     11  C   UNL     1       5.575   6.886  17.216  0.00  0.00    +0.000 C 
BRANCH  11  14
ATOM     12  C   UNL     1       6.779   4.266  16.601  0.00  0.00    +0.000 C 
ATOM     13  N   UNL     1       6.329   5.154  15.525  0.00  0.00    +0.000 N 
ATOM     14  C   UNL     1       5.658   6.373  15.769  0.00  0.00    +0.000 C 
ATOM     15  O   UNL     1       5.083   7.012  14.880  0.00  0.00    +0.000 OA
BRANCH  13  16
ATOM     16  C   UNL     1       6.518   4.652  14.169  0.00  0.00    +0.000 A 
ATOM     17  C   UNL     1       7.533   5.134  13.327  0.00  0.00    +0.000 A 
ATOM     18  C   UNL     1       7.704   4.643  12.025  0.00  0.00    +0.000 A 
ATOM     19  C   UNL     1       6.865   3.651  11.531  0.00  0.00    +0.000 A 
ATOM     20  C   UNL     1       5.862   3.142  12.346  0.00  0.00    +0.000 A 
ATOM     21  C   UNL     1       5.699   3.631  13.649  0.00  0.00    +0.000 A 
ENDBRANCH  13  16
ENDBRANCH  11  14
ENDBRANCH  10  11
ENDBRANCH   1  10
BRANCH   9  22
ATOM     22  C   UNL     1       2.612   6.938  20.459  0.00  0.00    +0.000 C 
BRANCH  22  23
ATOM     23  C   UNL     1       1.593   8.052  20.466  0.00  0.00    +0.000 A 
ATOM     24  C   UNL     1       1.313   8.762  19.289  0.00  0.00    +0.000 A 
ATOM     25  C   UNL     1       0.475   9.879  19.311  0.00  0.00    +0.000 A 
ATOM     26  C   UNL     1      -0.094  10.305  20.511  0.00  0.00    +0.000 A 
ATOM     27  C   UNL     1       0.152   9.602  21.697  0.00  0.00    +0.000 A 
ATOM     28  C   UNL     1       0.982   8.469  21.658  0.00  0.00    +0.000 A 
BRANCH  27  29
ATOM     29  C   UNL     1      -0.426  10.055  23.016  0.00  0.00    +0.000 C 
ATOM     30  F   UNL     1      -0.536  11.407  23.132  0.00  0.00    +0.000 F 
ATOM     31  F   UNL     1      -1.670   9.553  23.242  0.00  0.00    +0.000 F 
ATOM     32  F   UNL     1       0.335   9.653  24.074  0.00  0.00    +0.000 F 
ENDBRANCH  27  29
ENDBRANCH  22  23
ENDBRANCH   9  22
TORSDOF 7
ENDMDL
MODEL 6
REMARK VINA RESULT:      -8.6      5.827      8.110
REMARK  Name = 
REMARK  8 active torsions:
REMARK  status: ('A' for Active; 'I' for Inactive)
REMARK    1  A    between atoms: C_1  and  N_2
REMARK    2  A    between atoms: N_2  and  C_27
REMARK    3  A    between atoms: C_3  and  C_5
REMARK    4  A    between atoms: C_5  and  S_6
REMARK    5  A    between atoms: S_6  and  C_7
REMARK    6  A    between atoms: N_15  and  C_16
REMARK    7  A    between atoms: C_16  and  C_17
REMARK    8  A    between atoms: C_21  and  C_22
REMARK                            x       y       z     vdW  Elec       q    Type
REMARK                         _______ _______ _______ _____ _____    ______ ____
ROOT
ATOM      1  C   UNL     1       1.829   6.402  20.019  0.00  0.00    +0.000 A 
ATOM      2  N   UNL     1       1.213   5.398  20.601  0.00  0.00    +0.000 NA
ATOM      3  C   UNL     1       1.507   4.298  19.829  0.00  0.00    +0.000 A 
ATOM      4  C   UNL     1       1.142   2.954  20.005  0.00  0.00    +0.000 A 
ATOM      5  C   UNL     1       1.600   1.997  19.089  0.00  0.00    +0.000 A 
ATOM      6  C   UNL     1       2.388   2.372  18.001  0.00  0.00    +0.000 A 
ATOM      7  C   UNL     1       2.727   3.710  17.785  0.00  0.00    +0.000 A 
ATOM      8  C   UNL     1       2.286   4.652  18.728  0.00  0.00    +0.000 A 
ATOM      9  N   UNL     1       2.441   6.020  18.848  0.00  0.00    +0.000 N 
ENDROOT
BRANCH   1  10
ATOM     10  S   UNL     1       1.930   8.019  20.630  0.00  0.00    +0.000 S 
BRANCH  10  11
ATOM     11  C   UNL     1       0.350   8.200  21.517  0.00  0.00    +0.000 C 
BRANCH  11  14
ATOM     12  C   UNL     1      -0.851  10.429  20.005  0.00  0.00    +0.000 C 
ATOM     13  N   UNL     1      -0.255  10.655  21.326  0.00  0.00    +0.000 N 
ATOM     14  C   UNL     1       0.243   9.607  22.131  0.00  0.00    +0.000 C 
ATOM     15  O   UNL     1       0.538   9.758  23.322  0.00  0.00    +0.000 OA
BRANCH  13  16
ATOM     16  C   UNL     1      -0.304  12.028  21.816  0.00  0.00    +0.000 A 
ATOM     17  C   UNL     1      -1.187  12.431  22.829  0.00  0.00    +0.000 A 
ATOM     18  C   UNL     1      -1.224  13.755  23.290  0.00  0.00    +0.000 A 
ATOM     19  C   UNL     1      -0.372  14.711  22.752  0.00  0.00    +0.000 A 
ATOM     20  C   UNL     1       0.526  14.339  21.758  0.00  0.00    +0.000 A 
ATOM     21  C   UNL     1       0.563  13.014  21.305  0.00  0.00    +0.000 A 
ENDBRANCH  13  16
ENDBRANCH  11  14
ENDBRANCH  10  11
ENDBRANCH   1  10
BRANCH   9  22
ATOM     22  C   UNL     1       2.956   6.903  17.811  0.00  0.00    +0.000 C 
BRANCH  22  23
ATOM     23  C   UNL     1       4.354   6.570  17.347  0.00  0.00    +0.000 A 
ATOM     24  C   UNL     1       4.602   6.283  15.996  0.00  0.00    +0.000 A 
ATOM     25  C   UNL     1       5.860   5.844  15.580  0.00  0.00    +0.000 A 
ATOM     26  C   UNL     1       6.889   5.681  16.507  0.00  0.00    +0.000 A 
ATOM     27  C   UNL     1       6.674   5.979  17.858  0.00  0.00    +0.000 A 
ATOM     28  C   UNL     1       5.409   6.439  18.262  0.00  0.00    +0.000 A 
BRANCH  27  29
ATOM     29  C   UNL     1       7.759   5.786  18.889  0.00  0.00    +0.000 C 
ATOM     30  F   UNL     1       8.600   6.851  19.007  0.00  0.00    +0.000 F 
ATOM     31  F   UNL     1       7.263   5.557  20.135  0.00  0.00    +0.000 F 
ATOM     32  F   UNL     1       8.554   4.716  18.602  0.00  0.00    +0.000 F 
ENDBRANCH  27  29
ENDBRANCH  22  23
ENDBRANCH   9  22
TORSDOF 7
ENDMDL
MODEL 7
REMARK VINA RESULT:      -8.5      1.606      2.203
REMARK  Name = 
REMARK  8 active torsions:
REMARK  status: ('A' for Active; 'I' for Inactive)
REMARK    1  A    between atoms: C_1  and  N_2
REMARK    2  A    between atoms: N_2  and  C_27
REMARK    3  A    between atoms: C_3  and  C_5
REMARK    4  A    between atoms: C_5  and  S_6
REMARK    5  A    between atoms: S_6  and  C_7
REMARK    6  A    between atoms: N_15  and  C_16
REMARK    7  A    between atoms: C_16  and  C_17
REMARK    8  A    between atoms: C_21  and  C_22
REMARK                            x       y       z     vdW  Elec       q    Type
REMARK                         _______ _______ _______ _____ _____    ______ ____
ROOT
ATOM      1  C   UNL     1       7.367   6.423  17.484  0.00  0.00    +0.000 A 
ATOM      2  N   UNL     1       7.753   6.370  16.229  0.00  0.00    +0.000 NA
ATOM      3  C   UNL     1       6.922   5.446  15.637  0.00  0.00    +0.000 A 
ATOM      4  C   UNL     1       6.861   5.020  14.300  0.00  0.00    +0.000 A 
ATOM      5  C   UNL     1       5.891   4.080  13.927  0.00  0.00    +0.000 A 
ATOM      6  C   UNL     1       5.012   3.551  14.871  0.00  0.00    +0.000 A 
ATOM      7  C   UNL     1       5.084   3.930  16.214  0.00  0.00    +0.000 A 
ATOM      8  C   UNL     1       6.041   4.896  16.566  0.00  0.00    +0.000 A 
ATOM      9  N   UNL     1       6.379   5.507  17.758  0.00  0.00    +0.000 N 
ENDROOT
BRANCH   1  10
ATOM     10  S   UNL     1       7.965   7.524  18.680  0.00  0.00    +0.000 S 
BRANCH  10  11
ATOM     11  C   UNL     1       8.005   9.102  17.772  0.00  0.00    +0.000 C 
BRANCH  11  14
ATOM     12  C   UNL     1       7.830  11.981  17.160  0.00  0.00    +0.000 C 
ATOM     13  N   UNL     1       8.815  11.480  18.124  0.00  0.00    +0.000 N 
ATOM     14  C   UNL     1       8.873  10.126  18.524  0.00  0.00    +0.000 C 
ATOM     15  O   UNL     1       9.543   9.740  19.489  0.00  0.00    +0.000 OA
BRANCH  13  16
ATOM     16  C   UNL     1       9.673  12.488  18.735  0.00  0.00    +0.000 A 
ATOM     17  C   UNL     1       9.312  13.167  19.909  0.00  0.00    +0.000 A 
ATOM     18  C   UNL     1      10.146  14.135  20.487  0.00  0.00    +0.000 A 
ATOM     19  C   UNL     1      11.369  14.446  19.906  0.00  0.00    +0.000 A 
ATOM     20  C   UNL     1      11.762  13.779  18.751  0.00  0.00    +0.000 A 
ATOM     21  C   UNL     1      10.927  12.808  18.182  0.00  0.00    +0.000 A 
ENDBRANCH  13  16
ENDBRANCH  11  14
ENDBRANCH  10  11
ENDBRANCH   1  10
BRANCH   9  22
ATOM     22  C   UNL     1       5.926   5.089  19.077  0.00  0.00    +0.000 C 
BRANCH  22  23
ATOM     23  C   UNL     1       4.435   5.198  19.288  0.00  0.00    +0.000 A 
ATOM     24  C   UNL     1       3.803   6.449  19.240  0.00  0.00    +0.000 A 
ATOM     25  C   UNL     1       2.452   6.579  19.565  0.00  0.00    +0.000 A 
ATOM     26  C   UNL     1       1.711   5.461  19.947  0.00  0.00    +0.000 A 
ATOM     27  C   UNL     1       2.312   4.197  19.984  0.00  0.00    +0.000 A 
ATOM     28  C   UNL     1       3.667   4.076  19.635  0.00  0.00    +0.000 A 
BRANCH  27  29
ATOM     29  C   UNL     1       1.545   2.972  20.419  0.00  0.00    +0.000 C 
ATOM     30  F   UNL     1       2.167   1.799  20.118  0.00  0.00    +0.000 F 
ATOM     31  F   UNL     1       1.316   2.946  21.760  0.00  0.00    +0.000 F 
ATOM     32  F   UNL     1       0.316   2.901  19.831  0.00  0.00    +0.000 F 
ENDBRANCH  27  29
ENDBRANCH  22  23
ENDBRANCH   9  22
TORSDOF 7
ENDMDL
MODEL 8
REMARK VINA RESULT:      -8.5      1.714      2.076
REMARK  Name = 
REMARK  8 active torsions:
REMARK  status: ('A' for Active; 'I' for Inactive)
REMARK    1  A    between atoms: C_1  and  N_2
REMARK    2  A    between atoms: N_2  and  C_27
REMARK    3  A    between atoms: C_3  and  C_5
REMARK    4  A    between atoms: C_5  and  S_6
REMARK    5  A    between atoms: S_6  and  C_7
REMARK    6  A    between atoms: N_15  and  C_16
REMARK    7  A    between atoms: C_16  and  C_17
REMARK    8  A    between atoms: C_21  and  C_22
REMARK                            x       y       z     vdW  Elec       q    Type
REMARK                         _______ _______ _______ _____ _____    ______ ____
ROOT
ATOM      1  C   UNL     1       7.439   6.533  17.520  0.00  0.00    +0.000 A 
ATOM      2  N   UNL     1       7.788   6.474  16.255  0.00  0.00    +0.000 NA
ATOM      3  C   UNL     1       6.955   5.532  15.695  0.00  0.00    +0.000 A 
ATOM      4  C   UNL     1       6.861   5.093  14.365  0.00  0.00    +0.000 A 
ATOM      5  C   UNL     1       5.895   4.135  14.029  0.00  0.00    +0.000 A 
ATOM      6  C   UNL     1       5.052   3.602  15.003  0.00  0.00    +0.000 A 
ATOM      7  C   UNL     1       5.157   3.995  16.340  0.00  0.00    +0.000 A 
ATOM      8  C   UNL     1       6.109   4.978  16.655  0.00  0.00    +0.000 A 
ATOM      9  N   UNL     1       6.473   5.605  17.831  0.00  0.00    +0.000 N 
ENDROOT
BRANCH   1  10
ATOM     10  S   UNL     1       8.055   7.654  18.688  0.00  0.00    +0.000 S 
BRANCH  10  11
ATOM     11  C   UNL     1       7.946   9.241  17.802  0.00  0.00    +0.000 C 
BRANCH  11  14
ATOM     12  C   UNL     1       7.767  12.105  17.126  0.00  0.00    +0.000 C 
ATOM     13  N   UNL     1       8.843  11.605  17.987  0.00  0.00    +0.000 N 
ATOM     14  C   UNL     1       8.916  10.262  18.419  0.00  0.00    +0.000 C 
ATOM     15  O   UNL     1       9.683   9.886  19.313  0.00  0.00    +0.000 OA
BRANCH  13  16
ATOM     16  C   UNL     1       9.788  12.607  18.466  0.00  0.00    +0.000 A 
ATOM     17  C   UNL     1      10.797  13.138  17.647  0.00  0.00    +0.000 A 
ATOM     18  C   UNL     1      11.700  14.101  18.120  0.00  0.00    +0.000 A 
ATOM     19  C   UNL     1      11.613  14.563  19.428  0.00  0.00    +0.000 A 
ATOM     20  C   UNL     1      10.615  14.069  20.258  0.00  0.00    +0.000 A 
ATOM     21  C   UNL     1       9.711  13.111  19.778  0.00  0.00    +0.000 A 
ENDBRANCH  13  16
ENDBRANCH  11  14
ENDBRANCH  10  11
ENDBRANCH   1  10
BRANCH   9  22
ATOM     22  C   UNL     1       6.065   5.192  19.166  0.00  0.00    +0.000 C 
BRANCH  22  23
ATOM     23  C   UNL     1       4.571   5.155  19.378  0.00  0.00    +0.000 A 
ATOM     24  C   UNL     1       3.797   6.304  19.160  0.00  0.00    +0.000 A 
ATOM     25  C   UNL     1       2.438   6.320  19.481  0.00  0.00    +0.000 A 
ATOM     26  C   UNL     1       1.832   5.189  20.028  0.00  0.00    +0.000 A 
ATOM     27  C   UNL     1       2.577   4.022  20.237  0.00  0.00    +0.000 A 
ATOM     28  C   UNL     1       3.939   4.013  19.892  0.00  0.00    +0.000 A 
BRANCH  27  29
ATOM     29  C   UNL     1       1.958   2.792  20.853  0.00  0.00    +0.000 C 
ATOM     30  F   UNL     1       0.730   3.010  21.401  0.00  0.00    +0.000 F 
ATOM     31  F   UNL     1       1.797   1.781  19.956  0.00  0.00    +0.000 F 
ATOM     32  F   UNL     1       2.726   2.279  21.857  0.00  0.00    +0.000 F 
ENDBRANCH  27  29
ENDBRANCH  22  23
ENDBRANCH   9  22
TORSDOF 7
ENDMDL
MODEL 9
REMARK VINA RESULT:      -8.5      4.197      6.963
REMARK  Name = 
REMARK  8 active torsions:
REMARK  status: ('A' for Active; 'I' for Inactive)
REMARK    1  A    between atoms: C_1  and  N_2
REMARK    2  A    between atoms: N_2  and  C_27
REMARK    3  A    between atoms: C_3  and  C_5
REMARK    4  A    between atoms: C_5  and  S_6
REMARK    5  A    between atoms: S_6  and  C_7
REMARK    6  A    between atoms: N_15  and  C_16
REMARK    7  A    between atoms: C_16  and  C_17
REMARK    8  A    between atoms: C_21  and  C_22
REMARK                            x       y       z     vdW  Elec       q    Type
REMARK                         _______ _______ _______ _____ _____    ______ ____
ROOT
ATOM      1  C   UNL     1       4.899   4.381  19.181  0.00  0.00    +0.000 A 
ATOM      2  N   UNL     1       4.831   3.149  18.729  0.00  0.00    +0.000 NA
ATOM      3  C   UNL     1       3.487   2.857  18.682  0.00  0.00    +0.000 A 
ATOM      4  C   UNL     1       2.836   1.693  18.242  0.00  0.00    +0.000 A 
ATOM      5  C   UNL     1       1.435   1.647  18.259  0.00  0.00    +0.000 A 
ATOM      6  C   UNL     1       0.693   2.730  18.729  0.00  0.00    +0.000 A 
ATOM      7  C   UNL     1       1.323   3.880  19.210  0.00  0.00    +0.000 A 
ATOM      8  C   UNL     1       2.725   3.923  19.158  0.00  0.00    +0.000 A 
ATOM      9  N   UNL     1       3.661   4.875  19.517  0.00  0.00    +0.000 N 
ENDROOT
BRANCH   1  10
ATOM     10  S   UNL     1       6.341   5.330  19.317  0.00  0.00    +0.000 S 
BRANCH  10  11
ATOM     11  C   UNL     1       6.265   6.371  17.825  0.00  0.00    +0.000 C 
BRANCH  11  14
ATOM     12  C   UNL     1       4.938   6.818  15.229  0.00  0.00    +0.000 C 
ATOM     13  N   UNL     1       5.923   5.743  15.392  0.00  0.00    +0.000 N 
ATOM     14  C   UNL     1       6.656   5.551  16.584  0.00  0.00    +0.000 C 
ATOM     15  O   UNL     1       7.635   4.799  16.655  0.00  0.00    +0.000 OA
BRANCH  13  16
ATOM     16  C   UNL     1       6.183   4.939  14.204  0.00  0.00    +0.000 A 
ATOM     17  C   UNL     1       7.329   5.119  13.413  0.00  0.00    +0.000 A 
ATOM     18  C   UNL     1       7.568   4.339  12.273  0.00  0.00    +0.000 A 
ATOM     19  C   UNL     1       6.666   3.352  11.895  0.00  0.00    +0.000 A 
ATOM     20  C   UNL     1       5.531   3.138  12.667  0.00  0.00    +0.000 A 
ATOM     21  C   UNL     1       5.300   3.916  13.809  0.00  0.00    +0.000 A 
ENDBRANCH  13  16
ENDBRANCH  11  14
ENDBRANCH  10  11
ENDBRANCH   1  10
BRANCH   9  22
ATOM     22  C   UNL     1       3.387   6.067  20.307  0.00  0.00    +0.000 C 
BRANCH  22  23
ATOM     23  C   UNL     1       2.605   7.132  19.576  0.00  0.00    +0.000 A 
ATOM     24  C   UNL     1       2.860   7.395  18.223  0.00  0.00    +0.000 A 
ATOM     25  C   UNL     1       2.239   8.465  17.575  0.00  0.00    +0.000 A 
ATOM     26  C   UNL     1       1.357   9.290  18.270  0.00  0.00    +0.000 A 
ATOM     27  C   UNL     1       1.068   9.038  19.617  0.00  0.00    +0.000 A 
ATOM     28  C   UNL     1       1.685   7.947  20.253  0.00  0.00    +0.000 A 
BRANCH  27  29
ATOM     29  C   UNL     1       0.139   9.930  20.404  0.00  0.00    +0.000 C 
ATOM     30  F   UNL     1      -0.314   9.367  21.559  0.00  0.00    +0.000 F 
ATOM     31  F   UNL     1       0.719  11.108  20.760  0.00  0.00    +0.000 F 
ATOM     32  F   UNL     1      -0.976  10.264  19.693  0.00  0.00    +0.000 F 
ENDBRANCH  27  29
ENDBRANCH  22  23
ENDBRANCH   9  22
TORSDOF 7
ENDMDL
