MODEL 1
REMARK VINA RESULT:      -8.7      0.000      0.000
REMARK  Name = 
REMARK  8 active torsions:
REMARK  status: ('A' for Active; 'I' for Inactive)
REMARK    1  A    between atoms: C_1  and  N_2
REMARK    2  A    between atoms: N_5  and  C_6
REMARK    3  A    between atoms: C_6  and  C_7
REMARK    4  A    between atoms: C_15  and  C_16
REMARK    5  A    between atoms: C_19  and  C_20
REMARK    6  A    between atoms: C_21  and  C_22
REMARK    7  A    between atoms: C_22  and  O_23
REMARK    8  A    between atoms: O_23  and  C_24
REMARK                            x       y       z     vdW  Elec       q    Type
REMARK                         _______ _______ _______ _____ _____    ______ ____
ROOT
ATOM      1  C   UNL     1       3.074   6.634  19.002  0.00  0.00    +0.000 A 
ATOM      2  C   UNL     1       3.237   7.397  17.816  0.00  0.00    +0.000 A 
ATOM      3  C   UNL     1       2.583   8.624  17.630  0.00  0.00    +0.000 A 
ATOM      4  C   UNL     1       1.752   9.054  18.637  0.00  0.00    +0.000 A 
ATOM      5  C   UNL     1       1.506   8.272  19.797  0.00  0.00    +0.000 A 
ATOM      6  C   UNL     1       2.152   7.055  19.975  0.00  0.00    +0.000 A 
ATOM      7  C   UNL     1       0.540   8.948  20.788  0.00  0.00    +0.000 C 
ATOM      8  C   UNL     1       0.328  10.212  20.028  0.00  0.00    +0.000 A 
ATOM      9  C   UNL     1      -0.358  11.433  20.097  0.00  0.00    +0.000 A 
ATOM     10  N   UNL     1      -0.082  12.200  19.020  0.00  0.00    +0.000 NA
ATOM     11  N   UNL     1       0.764  11.444  18.268  0.00  0.00    +0.000 N 
ATOM     12  C   UNL     1       1.003  10.249  18.838  0.00  0.00    +0.000 A 
ATOM     13  H   UNL     1       1.119  11.831  17.400  0.00  0.00    +0.000 HD
ENDROOT
BRANCH   9  14
ATOM     14  C   UNL     1      -1.275  11.840  21.175  0.00  0.00    +0.000 A 
ATOM     15  C   UNL     1      -1.033  11.715  22.526  0.00  0.00    +0.000 A 
ATOM     16  S   UNL     1      -2.337  12.267  23.484  0.00  0.00    +0.000 S 
ATOM     17  C   UNL     1      -3.253  12.673  22.095  0.00  0.00    +0.000 A 
ATOM     18  C   UNL     1      -2.568  12.406  20.928  0.00  0.00    +0.000 A 
BRANCH  17  19
ATOM     19  C   UNL     1      -4.561  13.231  22.194  0.00  0.00    +0.000 C 
ATOM     20  C   UNL     1      -5.688  13.646  22.271  0.00  0.00    +0.000 C 
BRANCH  20  21
ATOM     21  C   UNL     1      -7.097  14.056  22.364  0.00  0.00    +0.000 C 
BRANCH  21  22
ATOM     22  O   UNL     1      -7.916  13.023  21.823  0.00  0.00    +0.000 OA
BRANCH  22  23
ATOM     23  C   UNL     1      -7.624  12.647  20.539  0.00  0.00    +0.000 A 
ATOM     24  C   UNL     1      -7.766  13.649  19.576  0.00  0.00    +0.000 A 
ATOM     25  C   UNL     1      -7.498  13.381  18.232  0.00  0.00    +0.000 A 
ATOM     26  C   UNL     1      -7.065  12.113  17.848  0.00  0.00    +0.000 A 
ATOM     27  C   UNL     1      -6.893  11.119  18.810  0.00  0.00    +0.000 A 
ATOM     28  C   UNL     1      -7.170  11.384  20.155  0.00  0.00    +0.000 A 
ENDBRANCH  22  23
ENDBRANCH  21  22
ENDBRANCH  20  21
ENDBRANCH  17  19
ENDBRANCH   9  14
BRANCH   1  29
ATOM     29  C   UNL     1       3.925   5.396  19.236  0.00  0.00    +0.000 C 
BRANCH  29  34
ATOM     30  C   UNL     1       7.456   4.379  15.803  0.00  0.00    +0.000 C 
ATOM     31  N   UNL     1       6.628   5.577  15.898  0.00  0.00    +0.000 NA
ATOM     32  C   UNL     1       5.190   5.298  15.742  0.00  0.00    +0.000 C 
ATOM     33  C   UNL     1       4.579   4.580  16.947  0.00  0.00    +0.000 C 
ATOM     34  N   UNL     1       4.917   5.236  18.196  0.00  0.00    +0.000 N 
ATOM     35  C   UNL     1       6.232   5.622  18.406  0.00  0.00    +0.000 C 
ATOM     36  O   UNL     1       6.773   5.620  19.509  0.00  0.00    +0.000 OA
ATOM     37  C   UNL     1       6.871   6.281  17.177  0.00  0.00    +0.000 C 
ENDBRANCH  29  34
ENDBRANCH   1  29
TORSDOF 7
ENDMDL
MODEL 2
REMARK VINA RESULT:      -8.6      2.382      3.188
REMARK  Name = 
REMARK  8 active torsions:
REMARK  status: ('A' for Active; 'I' for Inactive)
REMARK    1  A    between atoms: C_1  and  N_2
REMARK    2  A    between atoms: N_5  and  C_6
REMARK    3  A    between atoms: C_6  and  C_7
REMARK    4  A    between atoms: C_15  and  C_16
REMARK    5  A    between atoms: C_19  and  C_20
REMARK    6  A    between atoms: C_21  and  C_22
REMARK    7  A    between atoms: C_22  and  O_23
REMARK    8  A    between atoms: O_23  and  C_24
REMARK                            x       y       z     vdW  Elec       q    Type
REMARK                         _______ _______ _______ _____ _____    ______ ____
ROOT
ATOM      1  C   UNL     1       2.316   7.152  18.992  0.00  0.00    +0.000 A 
ATOM      2  C   UNL     1       2.209   6.511  20.254  0.00  0.00    +0.000 A 
ATOM      3  C   UNL     1       1.553   7.116  21.338  0.00  0.00    +0.000 A 
ATOM      4  C   UNL     1       1.035   8.373  21.138  0.00  0.00    +0.000 A 
ATOM      5  C   UNL     1       1.201   9.071  19.912  0.00  0.00    +0.000 A 
ATOM      6  C   UNL     1       1.854   8.470  18.843  0.00  0.00    +0.000 A 
ATOM      7  C   UNL     1       0.543  10.463  19.915  0.00  0.00    +0.000 C 
ATOM      8  C   UNL     1      -0.031  10.409  21.289  0.00  0.00    +0.000 A 
ATOM      9  C   UNL     1      -0.790  11.166  22.193  0.00  0.00    +0.000 A 
ATOM     10  N   UNL     1      -0.994  10.482  23.339  0.00  0.00    +0.000 NA
ATOM     11  N   UNL     1      -0.341   9.301  23.156  0.00  0.00    +0.000 N 
ATOM     12  C   UNL     1       0.258   9.247  21.951  0.00  0.00    +0.000 A 
ATOM     13  H   UNL     1      -0.369   8.610  23.898  0.00  0.00    +0.000 HD
ENDROOT
BRANCH   9  14
ATOM     14  C   UNL     1      -1.292  12.529  21.957  0.00  0.00    +0.000 A 
ATOM     15  C   UNL     1      -0.560  13.689  22.088  0.00  0.00    +0.000 A 
ATOM     16  S   UNL     1      -1.481  15.092  21.759  0.00  0.00    +0.000 S 
ATOM     17  C   UNL     1      -2.884  14.161  21.447  0.00  0.00    +0.000 A 
ATOM     18  C   UNL     1      -2.645  12.808  21.576  0.00  0.00    +0.000 A 
BRANCH  17  19
ATOM     19  C   UNL     1      -4.124  14.766  21.088  0.00  0.00    +0.000 C 
ATOM     20  C   UNL     1      -5.191  15.222  20.772  0.00  0.00    +0.000 C 
BRANCH  20  21
ATOM     21  C   UNL     1      -6.530  15.684  20.379  0.00  0.00    +0.000 C 
BRANCH  21  22
ATOM     22  O   UNL     1      -7.463  14.626  20.582  0.00  0.00    +0.000 OA
BRANCH  22  23
ATOM     23  C   UNL     1      -7.298  13.530  19.777  0.00  0.00    +0.000 A 
ATOM     24  C   UNL     1      -7.279  12.301  20.439  0.00  0.00    +0.000 A 
ATOM     25  C   UNL     1      -7.113  11.114  19.722  0.00  0.00    +0.000 A 
ATOM     26  C   UNL     1      -6.988  11.151  18.335  0.00  0.00    +0.000 A 
ATOM     27  C   UNL     1      -7.037  12.374  17.667  0.00  0.00    +0.000 A 
ATOM     28  C   UNL     1      -7.194  13.563  18.386  0.00  0.00    +0.000 A 
ENDBRANCH  22  23
ENDBRANCH  21  22
ENDBRANCH  20  21
ENDBRANCH  17  19
ENDBRANCH   9  14
BRANCH   1  29
ATOM     29  C   UNL     1       2.885   6.398  17.800  0.00  0.00    +0.000 C 
BRANCH  29  34
ATOM     30  C   UNL     1       3.566   1.445  18.342  0.00  0.00    +0.000 C 
ATOM     31  N   UNL     1       3.234   2.416  19.381  0.00  0.00    +0.000 NA
ATOM     32  C   UNL     1       4.276   3.439  19.568  0.00  0.00    +0.000 C 
ATOM     33  C   UNL     1       4.348   4.447  18.418  0.00  0.00    +0.000 C 
ATOM     34  N   UNL     1       3.043   4.991  18.094  0.00  0.00    +0.000 N 
ATOM     35  C   UNL     1       1.971   4.119  17.984  0.00  0.00    +0.000 C 
ATOM     36  O   UNL     1       1.040   4.283  17.200  0.00  0.00    +0.000 OA
ATOM     37  C   UNL     1       1.934   3.063  19.095  0.00  0.00    +0.000 C 
ENDBRANCH  29  34
ENDBRANCH   1  29
TORSDOF 7
ENDMDL
MODEL 3
REMARK VINA RESULT:      -8.4      2.733     12.022
REMARK  Name = 
REMARK  8 active torsions:
REMARK  status: ('A' for Active; 'I' for Inactive)
REMARK    1  A    between atoms: C_1  and  N_2
REMARK    2  A    between atoms: N_5  and  C_6
REMARK    3  A    between atoms: C_6  and  C_7
REMARK    4  A    between atoms: C_15  and  C_16
REMARK    5  A    between atoms: C_19  and  C_20
REMARK    6  A    between atoms: C_21  and  C_22
REMARK    7  A    between atoms: C_22  and  O_23
REMARK    8  A    between atoms: O_23  and  C_24
REMARK                            x       y       z     vdW  Elec       q    Type
REMARK                         _______ _______ _______ _____ _____    ______ ____
ROOT
ATOM      1  C   UNL     1      -2.204  13.369  22.451  0.00  0.00    +0.000 A 
ATOM      2  C   UNL     1      -1.699  14.264  21.471  0.00  0.00    +0.000 A 
ATOM      3  C   UNL     1      -0.795  13.844  20.483  0.00  0.00    +0.000 A 
ATOM      4  C   UNL     1      -0.394  12.530  20.512  0.00  0.00    +0.000 A 
ATOM      5  C   UNL     1      -0.819  11.635  21.530  0.00  0.00    +0.000 A 
ATOM      6  C   UNL     1      -1.710  12.055  22.510  0.00  0.00    +0.000 A 
ATOM      7  C   UNL     1      -0.243  10.216  21.367  0.00  0.00    +0.000 C 
ATOM      8  C   UNL     1       0.518  10.454  20.108  0.00  0.00    +0.000 A 
ATOM      9  C   UNL     1       1.342   9.799  19.181  0.00  0.00    +0.000 A 
ATOM     10  N   UNL     1       1.703  10.635  18.185  0.00  0.00    +0.000 NA
ATOM     11  N   UNL     1       1.117  11.822  18.502  0.00  0.00    +0.000 N 
ATOM     12  C   UNL     1       0.426  11.742  19.654  0.00  0.00    +0.000 A 
ATOM     13  H   UNL     1       1.244  12.609  17.875  0.00  0.00    +0.000 HD
ENDROOT
BRANCH   9  14
ATOM     14  C   UNL     1       1.784   8.398  19.272  0.00  0.00    +0.000 A 
ATOM     15  C   UNL     1       1.598   7.564  20.352  0.00  0.00    +0.000 A 
ATOM     16  S   UNL     1       2.271   6.011  20.112  0.00  0.00    +0.000 S 
ATOM     17  C   UNL     1       2.834   6.439  18.553  0.00  0.00    +0.000 A 
ATOM     18  C   UNL     1       2.500   7.735  18.221  0.00  0.00    +0.000 A 
BRANCH  17  19
ATOM     19  C   UNL     1       3.549   5.518  17.732  0.00  0.00    +0.000 C 
ATOM     20  C   UNL     1       4.200   4.747  17.076  0.00  0.00    +0.000 C 
BRANCH  20  21
ATOM     21  C   UNL     1       5.067   3.809  16.348  0.00  0.00    +0.000 C 
BRANCH  21  22
ATOM     22  O   UNL     1       6.237   4.499  15.918  0.00  0.00    +0.000 OA
BRANCH  22  23
ATOM     23  C   UNL     1       6.874   5.238  16.879  0.00  0.00    +0.000 A 
ATOM     24  C   UNL     1       6.974   6.606  16.612  0.00  0.00    +0.000 A 
ATOM     25  C   UNL     1       7.607   7.459  17.518  0.00  0.00    +0.000 A 
ATOM     26  C   UNL     1       8.123   6.950  18.708  0.00  0.00    +0.000 A 
ATOM     27  C   UNL     1       7.999   5.591  18.993  0.00  0.00    +0.000 A 
ATOM     28  C   UNL     1       7.374   4.735  18.081  0.00  0.00    +0.000 A 
ENDBRANCH  22  23
ENDBRANCH  21  22
ENDBRANCH  20  21
ENDBRANCH  17  19
ENDBRANCH   9  14
BRANCH   1  29
ATOM     29  C   UNL     1      -3.305  13.818  23.398  0.00  0.00    +0.000 C 
BRANCH  29  34
ATOM     30  C   UNL     1      -7.908  14.347  21.444  0.00  0.00    +0.000 C 
ATOM     31  N   UNL     1      -6.747  13.715  20.825  0.00  0.00    +0.000 NA
ATOM     32  C   UNL     1      -5.626  14.646  20.616  0.00  0.00    +0.000 C 
ATOM     33  C   UNL     1      -4.922  15.048  21.914  0.00  0.00    +0.000 C 
ATOM     34  N   UNL     1      -4.582  13.893  22.723  0.00  0.00    +0.000 N 
ATOM     35  C   UNL     1      -5.541  12.910  22.910  0.00  0.00    +0.000 C 
ATOM     36  O   UNL     1      -5.648  12.251  23.941  0.00  0.00    +0.000 OA
ATOM     37  C   UNL     1      -6.297  12.553  21.624  0.00  0.00    +0.000 C 
ENDBRANCH  29  34
ENDBRANCH   1  29
TORSDOF 7
ENDMDL
MODEL 4
REMARK VINA RESULT:      -8.3      2.925     12.096
REMARK  Name = 
REMARK  8 active torsions:
REMARK  status: ('A' for Active; 'I' for Inactive)
REMARK    1  A    between atoms: C_1  and  N_2
REMARK    2  A    between atoms: N_5  and  C_6
REMARK    3  A    between atoms: C_6  and  C_7
REMARK    4  A    between atoms: C_15  and  C_16
REMARK    5  A    between atoms: C_19  and  C_20
REMARK    6  A    between atoms: C_21  and  C_22
REMARK    7  A    between atoms: C_22  and  O_23
REMARK    8  A    between atoms: O_23  and  C_24
REMARK                            x       y       z     vdW  Elec       q    Type
REMARK                         _______ _______ _______ _____ _____    ______ ____
ROOT
ATOM      1  C   UNL     1      -1.593  12.680  22.671  0.00  0.00    +0.000 A 
ATOM      2  C   UNL     1      -1.287  13.593  21.628  0.00  0.00    +0.000 A 
ATOM      3  C   UNL     1      -0.515  13.216  20.519  0.00  0.00    +0.000 A 
ATOM      4  C   UNL     1      -0.041  11.927  20.489  0.00  0.00    +0.000 A 
ATOM      5  C   UNL     1      -0.262  11.018  21.559  0.00  0.00    +0.000 A 
ATOM      6  C   UNL     1      -1.023  11.396  22.658  0.00  0.00    +0.000 A 
ATOM      7  C   UNL     1       0.363   9.632  21.313  0.00  0.00    +0.000 C 
ATOM      8  C   UNL     1       0.917   9.902  19.956  0.00  0.00    +0.000 A 
ATOM      9  C   UNL     1       1.633   9.285  18.919  0.00  0.00    +0.000 A 
ATOM     10  N   UNL     1       1.797  10.132  17.880  0.00  0.00    +0.000 NA
ATOM     11  N   UNL     1       1.198  11.287  18.280  0.00  0.00    +0.000 N 
ATOM     12  C   UNL     1       0.688  11.178  19.521  0.00  0.00    +0.000 A 
ATOM     13  H   UNL     1       1.188  12.075  17.641  0.00  0.00    +0.000 HD
ENDROOT
BRANCH   9  14
ATOM     14  C   UNL     1       2.162   7.911  18.944  0.00  0.00    +0.000 A 
ATOM     15  C   UNL     1       2.043   7.023  19.991  0.00  0.00    +0.000 A 
ATOM     16  S   UNL     1       2.806   5.526  19.676  0.00  0.00    +0.000 S 
ATOM     17  C   UNL     1       3.318   6.053  18.129  0.00  0.00    +0.000 A 
ATOM     18  C   UNL     1       2.900   7.339  17.857  0.00  0.00    +0.000 A 
BRANCH  17  19
ATOM     19  C   UNL     1       4.076   5.213  17.261  0.00  0.00    +0.000 C 
ATOM     20  C   UNL     1       4.757   4.499  16.572  0.00  0.00    +0.000 C 
BRANCH  20  21
ATOM     21  C   UNL     1       5.647   3.610  15.813  0.00  0.00    +0.000 C 
BRANCH  21  22
ATOM     22  O   UNL     1       6.922   4.232  15.683  0.00  0.00    +0.000 OA
BRANCH  22  23
ATOM     23  C   UNL     1       7.241   5.137  16.661  0.00  0.00    +0.000 A 
ATOM     24  C   UNL     1       7.649   4.583  17.876  0.00  0.00    +0.000 A 
ATOM     25  C   UNL     1       7.996   5.408  18.948  0.00  0.00    +0.000 A 
ATOM     26  C   UNL     1       7.957   6.793  18.801  0.00  0.00    +0.000 A 
ATOM     27  C   UNL     1       7.579   7.350  17.580  0.00  0.00    +0.000 A 
ATOM     28  C   UNL     1       7.223   6.524  16.510  0.00  0.00    +0.000 A 
ENDBRANCH  22  23
ENDBRANCH  21  22
ENDBRANCH  20  21
ENDBRANCH  17  19
ENDBRANCH   9  14
BRANCH   1  29
ATOM     29  C   UNL     1      -2.567  13.075  23.769  0.00  0.00    +0.000 C 
BRANCH  29  34
ATOM     30  C   UNL     1      -6.978  14.977  22.281  0.00  0.00    +0.000 C 
ATOM     31  N   UNL     1      -6.061  14.148  21.506  0.00  0.00    +0.000 NA
ATOM     32  C   UNL     1      -4.750  14.783  21.292  0.00  0.00    +0.000 C 
ATOM     33  C   UNL     1      -3.891  14.839  22.557  0.00  0.00    +0.000 C 
ATOM     34  N   UNL     1      -3.817  13.550  23.218  0.00  0.00    +0.000 N 
ATOM     35  C   UNL     1      -4.987  12.826  23.390  0.00  0.00    +0.000 C 
ATOM     36  O   UNL     1      -5.202  12.101  24.358  0.00  0.00    +0.000 OA
ATOM     37  C   UNL     1      -5.884  12.825  22.146  0.00  0.00    +0.000 C 
ENDBRANCH  29  34
ENDBRANCH   1  29
TORSDOF 7
ENDMDL
MODEL 5
REMARK VINA RESULT:      -8.1      5.201     12.102
REMARK  Name = 
REMARK  8 active torsions:
REMARK  status: ('A' for Active; 'I' for Inactive)
REMARK    1  A    between atoms: C_1  and  N_2
REMARK    2  A    between atoms: N_5  and  C_6
REMARK    3  A    between atoms: C_6  and  C_7
REMARK    4  A    between atoms: C_15  and  C_16
REMARK    5  A    between atoms: C_19  and  C_20
REMARK    6  A    between atoms: C_21  and  C_22
REMARK    7  A    between atoms: C_22  and  O_23
REMARK    8  A    between atoms: O_23  and  C_24
REMARK                            x       y       z     vdW  Elec       q    Type
REMARK                         _______ _______ _______ _____ _____    ______ ____
ROOT
ATOM      1  C   UNL     1       0.795  11.916  19.129  0.00  0.00    +0.000 A 
ATOM      2  C   UNL     1       0.162  11.461  20.315  0.00  0.00    +0.000 A 
ATOM      3  C   UNL     1       0.288  10.135  20.758  0.00  0.00    +0.000 A 
ATOM      4  C   UNL     1       1.033   9.280  19.982  0.00  0.00    +0.000 A 
ATOM      5  C   UNL     1       1.608   9.688  18.749  0.00  0.00    +0.000 A 
ATOM      6  C   UNL     1       1.477  11.000  18.311  0.00  0.00    +0.000 A 
ATOM      7  C   UNL     1       2.396   8.565  18.048  0.00  0.00    +0.000 C 
ATOM      8  C   UNL     1       2.202   7.511  19.083  0.00  0.00    +0.000 A 
ATOM      9  C   UNL     1       2.530   6.177  19.367  0.00  0.00    +0.000 A 
ATOM     10  N   UNL     1       2.029   5.804  20.564  0.00  0.00    +0.000 NA
ATOM     11  N   UNL     1       1.369   6.905  21.019  0.00  0.00    +0.000 N 
ATOM     12  C   UNL     1       1.441   7.924  20.142  0.00  0.00    +0.000 A 
ATOM     13  H   UNL     1       0.915   6.860  21.925  0.00  0.00    +0.000 HD
ENDROOT
BRANCH   9  14
ATOM     14  C   UNL     1       3.297   5.279  18.489  0.00  0.00    +0.000 A 
ATOM     15  C   UNL     1       3.245   3.902  18.504  0.00  0.00    +0.000 A 
ATOM     16  S   UNL     1       4.296   3.189  17.359  0.00  0.00    +0.000 S 
ATOM     17  C   UNL     1       4.846   4.722  16.832  0.00  0.00    +0.000 A 
ATOM     18  C   UNL     1       4.227   5.754  17.507  0.00  0.00    +0.000 A 
BRANCH  17  19
ATOM     19  C   UNL     1       5.825   4.858  15.803  0.00  0.00    +0.000 C 
ATOM     20  C   UNL     1       6.639   4.915  14.920  0.00  0.00    +0.000 C 
BRANCH  20  21
ATOM     21  C   UNL     1       7.603   4.893  13.810  0.00  0.00    +0.000 C 
BRANCH  21  22
ATOM     22  O   UNL     1       6.890   4.933  12.577  0.00  0.00    +0.000 OA
BRANCH  22  23
ATOM     23  C   UNL     1       6.547   3.715  12.052  0.00  0.00    +0.000 A 
ATOM     24  C   UNL     1       7.620   2.901  11.682  0.00  0.00    +0.000 A 
ATOM     25  C   UNL     1       7.392   1.638  11.132  0.00  0.00    +0.000 A 
ATOM     26  C   UNL     1       6.089   1.174  10.970  0.00  0.00    +0.000 A 
ATOM     27  C   UNL     1       5.015   1.971  11.365  0.00  0.00    +0.000 A 
ATOM     28  C   UNL     1       5.242   3.240  11.907  0.00  0.00    +0.000 A 
ENDBRANCH  22  23
ENDBRANCH  21  22
ENDBRANCH  20  21
ENDBRANCH  17  19
ENDBRANCH   9  14
BRANCH   1  29
ATOM     29  C   UNL     1       0.772  13.394  18.772  0.00  0.00    +0.000 C 
BRANCH  29  34
ATOM     30  C   UNL     1       2.644  16.587  22.176  0.00  0.00    +0.000 C 
ATOM     31  N   UNL     1       2.242  15.200  22.386  0.00  0.00    +0.000 NA
ATOM     32  C   UNL     1       0.809  14.971  22.138  0.00  0.00    +0.000 C 
ATOM     33  C   UNL     1       0.434  15.029  20.655  0.00  0.00    +0.000 C 
ATOM     34  N   UNL     1       1.309  14.203  19.844  0.00  0.00    +0.000 N 
ATOM     35  C   UNL     1       2.677  14.276  20.060  0.00  0.00    +0.000 C 
ATOM     36  O   UNL     1       3.513  14.149  19.170  0.00  0.00    +0.000 OA
ATOM     37  C   UNL     1       3.053  14.289  21.547  0.00  0.00    +0.000 C 
ENDBRANCH  29  34
ENDBRANCH   1  29
TORSDOF 7
ENDMDL
MODEL 6
REMARK VINA RESULT:      -8.1      4.379      7.480
REMARK  Name = 
REMARK  8 active torsions:
REMARK  status: ('A' for Active; 'I' for Inactive)
REMARK    1  A    between atoms: C_1  and  N_2
REMARK    2  A    between atoms: N_5  and  C_6
REMARK    3  A    between atoms: C_6  and  C_7
REMARK    4  A    between atoms: C_15  and  C_16
REMARK    5  A    between atoms: C_19  and  C_20
REMARK    6  A    between atoms: C_21  and  C_22
REMARK    7  A    between atoms: C_22  and  O_23
REMARK    8  A    between atoms: O_23  and  C_24
REMARK                            x       y       z     vdW  Elec       q    Type
REMARK                         _______ _______ _______ _____ _____    ______ ____
ROOT
ATOM      1  C   UNL     1       3.349   4.677  19.062  0.00  0.00    +0.000 A 
ATOM      2  C   UNL     1       2.735   4.371  20.305  0.00  0.00    +0.000 A 
ATOM      3  C   UNL     1       1.940   5.305  20.986  0.00  0.00    +0.000 A 
ATOM      4  C   UNL     1       1.796   6.546  20.414  0.00  0.00    +0.000 A 
ATOM      5  C   UNL     1       2.466   6.906  19.214  0.00  0.00    +0.000 A 
ATOM      6  C   UNL     1       3.256   5.980  18.545  0.00  0.00    +0.000 A 
ATOM      7  C   UNL     1       2.161   8.345  18.759  0.00  0.00    +0.000 C 
ATOM      8  C   UNL     1       1.211   8.701  19.850  0.00  0.00    +0.000 A 
ATOM      9  C   UNL     1       0.405   9.755  20.306  0.00  0.00    +0.000 A 
ATOM     10  N   UNL     1      -0.274   9.396  21.416  0.00  0.00    +0.000 NA
ATOM     11  N   UNL     1       0.126   8.119  21.665  0.00  0.00    +0.000 N 
ATOM     12  C   UNL     1       1.026   7.694  20.758  0.00  0.00    +0.000 A 
ATOM     13  H   UNL     1      -0.272   7.632  22.461  0.00  0.00    +0.000 HD
ENDROOT
BRANCH   9  14
ATOM     14  C   UNL     1       0.310  11.088  19.686  0.00  0.00    +0.000 A 
ATOM     15  C   UNL     1      -0.835  11.655  19.171  0.00  0.00    +0.000 A 
ATOM     16  S   UNL     1      -0.561  13.206  18.505  0.00  0.00    +0.000 S 
ATOM     17  C   UNL     1       1.106  13.134  18.890  0.00  0.00    +0.000 A 
ATOM     18  C   UNL     1       1.438  11.957  19.527  0.00  0.00    +0.000 A 
BRANCH  17  19
ATOM     19  C   UNL     1       1.997  14.202  18.575  0.00  0.00    +0.000 C 
ATOM     20  C   UNL     1       2.785  15.062  18.284  0.00  0.00    +0.000 C 
BRANCH  20  21
ATOM     21  C   UNL     1       3.800  16.044  17.875  0.00  0.00    +0.000 C 
BRANCH  21  22
ATOM     22  O   UNL     1       4.929  15.351  17.349  0.00  0.00    +0.000 OA
BRANCH  22  23
ATOM     23  C   UNL     1       5.942  15.109  18.238  0.00  0.00    +0.000 A 
ATOM     24  C   UNL     1       7.092  14.534  17.692  0.00  0.00    +0.000 A 
ATOM     25  C   UNL     1       8.189  14.239  18.504  0.00  0.00    +0.000 A 
ATOM     26  C   UNL     1       8.149  14.539  19.864  0.00  0.00    +0.000 A 
ATOM     27  C   UNL     1       7.015  15.141  20.408  0.00  0.00    +0.000 A 
ATOM     28  C   UNL     1       5.912  15.428  19.597  0.00  0.00    +0.000 A 
ENDBRANCH  22  23
ENDBRANCH  21  22
ENDBRANCH  20  21
ENDBRANCH  17  19
ENDBRANCH   9  14
BRANCH   1  29
ATOM     29  C   UNL     1       4.063   3.589  18.276  0.00  0.00    +0.000 C 
BRANCH  29  34
ATOM     30  C   UNL     1       7.568   5.084  14.995  0.00  0.00    +0.000 C 
ATOM     31  N   UNL     1       6.490   5.883  15.569  0.00  0.00    +0.000 NA
ATOM     32  C   UNL     1       5.151   5.388  15.210  0.00  0.00    +0.000 C 
ATOM     33  C   UNL     1       4.780   4.080  15.914  0.00  0.00    +0.000 C 
ATOM     34  N   UNL     1       5.016   4.151  17.344  0.00  0.00    +0.000 N 
ATOM     35  C   UNL     1       6.213   4.687  17.792  0.00  0.00    +0.000 C 
ATOM     36  O   UNL     1       6.792   4.304  18.806  0.00  0.00    +0.000 OA
ATOM     37  C   UNL     1       6.624   5.959  17.041  0.00  0.00    +0.000 C 
ENDBRANCH  29  34
ENDBRANCH   1  29
TORSDOF 7
ENDMDL
MODEL 7
REMARK VINA RESULT:      -8.1      2.932     12.186
REMARK  Name = 
REMARK  8 active torsions:
REMARK  status: ('A' for Active; 'I' for Inactive)
REMARK    1  A    between atoms: C_1  and  N_2
REMARK    2  A    between atoms: N_5  and  C_6
REMARK    3  A    between atoms: C_6  and  C_7
REMARK    4  A    between atoms: C_15  and  C_16
REMARK    5  A    between atoms: C_19  and  C_20
REMARK    6  A    between atoms: C_21  and  C_22
REMARK    7  A    between atoms: C_22  and  O_23
REMARK    8  A    between atoms: O_23  and  C_24
REMARK                            x       y       z     vdW  Elec       q    Type
REMARK                         _______ _______ _______ _____ _____    ______ ____
ROOT
ATOM      1  C   UNL     1      -2.230  13.711  23.142  0.00  0.00    +0.000 A 
ATOM      2  C   UNL     1      -1.772  14.582  22.118  0.00  0.00    +0.000 A 
ATOM      3  C   UNL     1      -0.944  14.131  21.079  0.00  0.00    +0.000 A 
ATOM      4  C   UNL     1      -0.569  12.809  21.101  0.00  0.00    +0.000 A 
ATOM      5  C   UNL     1      -0.945  11.936  22.157  0.00  0.00    +0.000 A 
ATOM      6  C   UNL     1      -1.760  12.388  23.187  0.00  0.00    +0.000 A 
ATOM      7  C   UNL     1      -0.410  10.503  21.976  0.00  0.00    +0.000 C 
ATOM      8  C   UNL     1       0.270  10.709  20.667  0.00  0.00    +0.000 A 
ATOM      9  C   UNL     1       1.018  10.024  19.697  0.00  0.00    +0.000 A 
ATOM     10  N   UNL     1       1.330  10.839  18.667  0.00  0.00    +0.000 NA
ATOM     11  N   UNL     1       0.791  12.042  19.006  0.00  0.00    +0.000 N 
ATOM     12  C   UNL     1       0.176  11.992  20.202  0.00  0.00    +0.000 A 
ATOM     13  H   UNL     1       0.892  12.819  18.360  0.00  0.00    +0.000 HD
ENDROOT
BRANCH   9  14
ATOM     14  C   UNL     1       1.436   8.615  19.778  0.00  0.00    +0.000 A 
ATOM     15  C   UNL     1       1.240   7.778  20.855  0.00  0.00    +0.000 A 
ATOM     16  S   UNL     1       1.884   6.215  20.604  0.00  0.00    +0.000 S 
ATOM     17  C   UNL     1       2.448   6.642  19.044  0.00  0.00    +0.000 A 
ATOM     18  C   UNL     1       2.135   7.946  18.721  0.00  0.00    +0.000 A 
BRANCH  17  19
ATOM     19  C   UNL     1       3.144   5.713  18.215  0.00  0.00    +0.000 C 
ATOM     20  C   UNL     1       3.782   4.958  17.530  0.00  0.00    +0.000 C 
BRANCH  20  21
ATOM     21  C   UNL     1       4.646   4.080  16.728  0.00  0.00    +0.000 C 
BRANCH  21  22
ATOM     22  O   UNL     1       5.634   4.873  16.075  0.00  0.00    +0.000 OA
BRANCH  22  23
ATOM     23  C   UNL     1       6.459   5.588  16.902  0.00  0.00    +0.000 A 
ATOM     24  C   UNL     1       7.097   4.845  17.897  0.00  0.00    +0.000 A 
ATOM     25  C   UNL     1       7.959   5.467  18.802  0.00  0.00    +0.000 A 
ATOM     26  C   UNL     1       8.205   6.835  18.700  0.00  0.00    +0.000 A 
ATOM     27  C   UNL     1       7.593   7.576  17.689  0.00  0.00    +0.000 A 
ATOM     28  C   UNL     1       6.722   6.954  16.790  0.00  0.00    +0.000 A 
ENDBRANCH  22  23
ENDBRANCH  21  22
ENDBRANCH  20  21
ENDBRANCH  17  19
ENDBRANCH   9  14
BRANCH   1  29
ATOM     29  C   UNL     1      -3.256  14.196  24.153  0.00  0.00    +0.000 C 
BRANCH  29  34
ATOM     30  C   UNL     1      -7.740  13.523  21.979  0.00  0.00    +0.000 C 
ATOM     31  N   UNL     1      -7.464  13.750  23.394  0.00  0.00    +0.000 NA
ATOM     32  C   UNL     1      -6.648  12.685  24.000  0.00  0.00    +0.000 C 
ATOM     33  C   UNL     1      -5.188  12.704  23.542  0.00  0.00    +0.000 C 
ATOM     34  N   UNL     1      -4.604  14.028  23.657  0.00  0.00    +0.000 N 
ATOM     35  C   UNL     1      -5.331  15.115  23.197  0.00  0.00    +0.000 C 
ATOM     36  O   UNL     1      -4.818  16.110  22.692  0.00  0.00    +0.000 OA
ATOM     37  C   UNL     1      -6.811  15.063  23.595  0.00  0.00    +0.000 C 
ENDBRANCH  29  34
ENDBRANCH   1  29
TORSDOF 7
ENDMDL
MODEL 8
REMARK VINA RESULT:      -8.1      4.908     11.996
REMARK  Name = 
REMARK  8 active torsions:
REMARK  status: ('A' for Active; 'I' for Inactive)
REMARK    1  A    between atoms: C_1  and  N_2
REMARK    2  A    between atoms: N_5  and  C_6
REMARK    3  A    between atoms: C_6  and  C_7
REMARK    4  A    between atoms: C_15  and  C_16
REMARK    5  A    between atoms: C_19  and  C_20
REMARK    6  A    between atoms: C_21  and  C_22
REMARK    7  A    between atoms: C_22  and  O_23
REMARK    8  A    between atoms: O_23  and  C_24
REMARK                            x       y       z     vdW  Elec       q    Type
REMARK                         _______ _______ _______ _____ _____    ______ ____
ROOT
ATOM      1  C   UNL     1       0.273  12.358  19.079  0.00  0.00    +0.000 A 
ATOM      2  C   UNL     1       0.016  12.055  20.442  0.00  0.00    +0.000 A 
ATOM      3  C   UNL     1       0.319  10.799  20.990  0.00  0.00    +0.000 A 
ATOM      4  C   UNL     1       0.856   9.856  20.145  0.00  0.00    +0.000 A 
ATOM      5  C   UNL     1       1.045  10.105  18.760  0.00  0.00    +0.000 A 
ATOM      6  C   UNL     1       0.739  11.349  18.220  0.00  0.00    +0.000 A 
ATOM      7  C   UNL     1       1.655   8.908  18.007  0.00  0.00    +0.000 C 
ATOM      8  C   UNL     1       1.803   7.995  19.176  0.00  0.00    +0.000 A 
ATOM      9  C   UNL     1       2.256   6.712  19.517  0.00  0.00    +0.000 A 
ATOM     10  N   UNL     1       2.126   6.493  20.843  0.00  0.00    +0.000 NA
ATOM     11  N   UNL     1       1.572   7.638  21.327  0.00  0.00    +0.000 N 
ATOM     12  C   UNL     1       1.351   8.536  20.348  0.00  0.00    +0.000 A 
ATOM     13  H   UNL     1       1.391   7.708  22.323  0.00  0.00    +0.000 HD
ENDROOT
BRANCH   9  14
ATOM     14  C   UNL     1       2.786   5.713  18.574  0.00  0.00    +0.000 A 
ATOM     15  C   UNL     1       2.355   4.410  18.455  0.00  0.00    +0.000 A 
ATOM     16  S   UNL     1       3.222   3.532  17.272  0.00  0.00    +0.000 S 
ATOM     17  C   UNL     1       4.200   4.889  16.907  0.00  0.00    +0.000 A 
ATOM     18  C   UNL     1       3.859   5.991  17.664  0.00  0.00    +0.000 A 
BRANCH  17  19
ATOM     19  C   UNL     1       5.226   4.833  15.919  0.00  0.00    +0.000 C 
ATOM     20  C   UNL     1       6.131   4.806  15.126  0.00  0.00    +0.000 C 
BRANCH  20  21
ATOM     21  C   UNL     1       7.298   4.798  14.233  0.00  0.00    +0.000 C 
BRANCH  21  22
ATOM     22  O   UNL     1       6.852   4.928  12.885  0.00  0.00    +0.000 OA
BRANCH  22  23
ATOM     23  C   UNL     1       6.539   3.756  12.250  0.00  0.00    +0.000 A 
ATOM     24  C   UNL     1       7.631   3.001  11.817  0.00  0.00    +0.000 A 
ATOM     25  C   UNL     1       7.435   1.788  11.154  0.00  0.00    +0.000 A 
ATOM     26  C   UNL     1       6.143   1.314  10.941  0.00  0.00    +0.000 A 
ATOM     27  C   UNL     1       5.050   2.049  11.398  0.00  0.00    +0.000 A 
ATOM     28  C   UNL     1       5.246   3.268  12.054  0.00  0.00    +0.000 A 
ENDBRANCH  22  23
ENDBRANCH  21  22
ENDBRANCH  20  21
ENDBRANCH  17  19
ENDBRANCH   9  14
BRANCH   1  29
ATOM     29  C   UNL     1       0.086  13.777  18.565  0.00  0.00    +0.000 C 
BRANCH  29  34
ATOM     30  C   UNL     1       3.743  16.720  20.369  0.00  0.00    +0.000 C 
ATOM     31  N   UNL     1       3.621  16.181  19.018  0.00  0.00    +0.000 NA
ATOM     32  C   UNL     1       3.661  14.710  18.978  0.00  0.00    +0.000 C 
ATOM     33  C   UNL     1       2.393  14.055  19.531  0.00  0.00    +0.000 C 
ATOM     34  N   UNL     1       1.192  14.625  18.950  0.00  0.00    +0.000 N 
ATOM     35  C   UNL     1       1.093  16.005  18.858  0.00  0.00    +0.000 C 
ATOM     36  O   UNL     1       0.034  16.619  18.966  0.00  0.00    +0.000 OA
ATOM     37  C   UNL     1       2.384  16.672  18.370  0.00  0.00    +0.000 C 
ENDBRANCH  29  34
ENDBRANCH   1  29
TORSDOF 7
ENDMDL
MODEL 9
REMARK VINA RESULT:      -8.0      4.084     12.125
REMARK  Name = 
REMARK  8 active torsions:
REMARK  status: ('A' for Active; 'I' for Inactive)
REMARK    1  A    between atoms: C_1  and  N_2
REMARK    2  A    between atoms: N_5  and  C_6
REMARK    3  A    between atoms: C_6  and  C_7
REMARK    4  A    between atoms: C_15  and  C_16
REMARK    5  A    between atoms: C_19  and  C_20
REMARK    6  A    between atoms: C_21  and  C_22
REMARK    7  A    between atoms: C_22  and  O_23
REMARK    8  A    between atoms: O_23  and  C_24
REMARK                            x       y       z     vdW  Elec       q    Type
REMARK                         _______ _______ _______ _____ _____    ______ ____
ROOT
ATOM      1  C   UNL     1      -1.989  15.059  23.112  0.00  0.00    +0.000 A 
ATOM      2  C   UNL     1      -2.510  14.183  24.100  0.00  0.00    +0.000 A 
ATOM      3  C   UNL     1      -2.271  12.800  24.061  0.00  0.00    +0.000 A 
ATOM      4  C   UNL     1      -1.529  12.318  23.009  0.00  0.00    +0.000 A 
ATOM      5  C   UNL     1      -1.067  13.161  21.964  0.00  0.00    +0.000 A 
ATOM      6  C   UNL     1      -1.309  14.528  22.003  0.00  0.00    +0.000 A 
ATOM      7  C   UNL     1      -0.261  12.406  20.890  0.00  0.00    +0.000 C 
ATOM      8  C   UNL     1      -0.319  11.054  21.513  0.00  0.00    +0.000 A 
ATOM      9  C   UNL     1       0.110   9.733  21.314  0.00  0.00    +0.000 A 
ATOM     10  N   UNL     1      -0.283   8.942  22.335  0.00  0.00    +0.000 NA
ATOM     11  N   UNL     1      -0.977   9.769  23.164  0.00  0.00    +0.000 N 
ATOM     12  C   UNL     1      -1.029  11.025  22.682  0.00  0.00    +0.000 A 
ATOM     13  H   UNL     1      -1.363   9.386  24.020  0.00  0.00    +0.000 HD
ENDROOT
BRANCH   9  14
ATOM     14  C   UNL     1       0.869   9.247  20.150  0.00  0.00    +0.000 A 
ATOM     15  C   UNL     1       0.859   9.808  18.892  0.00  0.00    +0.000 A 
ATOM     16  S   UNL     1       1.841   8.957  17.781  0.00  0.00    +0.000 S 
ATOM     17  C   UNL     1       2.286   7.811  18.973  0.00  0.00    +0.000 A 
ATOM     18  C   UNL     1       1.708   8.086  20.195  0.00  0.00    +0.000 A 
BRANCH  17  19
ATOM     19  C   UNL     1       3.166   6.727  18.682  0.00  0.00    +0.000 C 
ATOM     20  C   UNL     1       3.871   5.776  18.468  0.00  0.00    +0.000 C 
BRANCH  20  21
ATOM     21  C   UNL     1       4.661   4.556  18.249  0.00  0.00    +0.000 C 
BRANCH  21  22
ATOM     22  O   UNL     1       3.773   3.455  18.071  0.00  0.00    +0.000 OA
BRANCH  22  23
ATOM     23  C   UNL     1       2.901   3.225  19.102  0.00  0.00    +0.000 A 
ATOM     24  C   UNL     1       3.494   2.882  20.319  0.00  0.00    +0.000 A 
ATOM     25  C   UNL     1       2.705   2.621  21.441  0.00  0.00    +0.000 A 
ATOM     26  C   UNL     1       1.319   2.724  21.356  0.00  0.00    +0.000 A 
ATOM     27  C   UNL     1       0.724   3.096  20.151  0.00  0.00    +0.000 A 
ATOM     28  C   UNL     1       1.513   3.348  19.024  0.00  0.00    +0.000 A 
ENDBRANCH  22  23
ENDBRANCH  21  22
ENDBRANCH  20  21
ENDBRANCH  17  19
ENDBRANCH   9  14
BRANCH   1  29
ATOM     29  C   UNL     1      -2.127  16.564  23.279  0.00  0.00    +0.000 C 
BRANCH  29  34
ATOM     30  C   UNL     1      -6.794  18.433  23.163  0.00  0.00    +0.000 C 
ATOM     31  N   UNL     1      -6.400  17.037  23.323  0.00  0.00    +0.000 NA
ATOM     32  C   UNL     1      -5.671  16.507  22.159  0.00  0.00    +0.000 C 
ATOM     33  C   UNL     1      -4.252  17.065  22.027  0.00  0.00    +0.000 C 
ATOM     34  N   UNL     1      -3.516  16.968  23.274  0.00  0.00    +0.000 N 
ATOM     35  C   UNL     1      -4.145  17.359  24.446  0.00  0.00    +0.000 C 
ATOM     36  O   UNL     1      -3.558  17.881  25.390  0.00  0.00    +0.000 OA
ATOM     37  C   UNL     1      -5.591  16.860  24.550  0.00  0.00    +0.000 C 
ENDBRANCH  29  34
ENDBRANCH   1  29
TORSDOF 7
ENDMDL
