MODEL 1
REMARK VINA RESULT:      -8.0      0.000      0.000
REMARK  Name = 
REMARK  7 active torsions:
REMARK  status: ('A' for Active; 'I' for Inactive)
REMARK    1  A    between atoms: C_1  and  O_2
REMARK    2  A    between atoms: O_2  and  C_3
REMARK    3  A    between atoms: C_6  and  C_7
REMARK    4  A    between atoms: C_7  and  C_8
REMARK    5  A    between atoms: N_10  and  C_11
REMARK    6  A    between atoms: C_14  and  S_15
REMARK    7  A    between atoms: S_15  and  N_18
REMARK                            x       y       z     vdW  Elec       q    Type
REMARK                         _______ _______ _______ _____ _____    ______ ____
ROOT
ATOM      1  C   UNL     1       2.383   7.661  19.095  0.00  0.00    +0.000 A 
ATOM      2  C   UNL     1       2.214   8.648  18.116  0.00  0.00    +0.000 A 
ATOM      3  C   UNL     1       1.377   9.744  18.352  0.00  0.00    +0.000 A 
ATOM      4  C   UNL     1       0.724   9.864  19.582  0.00  0.00    +0.000 A 
ATOM      5  C   UNL     1       0.932   8.909  20.584  0.00  0.00    +0.000 A 
ATOM      6  C   UNL     1       1.726   7.788  20.321  0.00  0.00    +0.000 A 
ENDROOT
BRANCH   1   9
ATOM      7  C   UNL     1       2.681   5.366  18.289  0.00  0.00    +0.000 C 
ATOM      8  O   UNL     1       1.529   5.240  17.878  0.00  0.00    +0.000 OA
ATOM      9  N   UNL     1       3.186   6.522  18.870  0.00  0.00    +0.000 N 
ATOM     10  H   UNL     1       4.179   6.679  18.731  0.00  0.00    +0.000 HD
BRANCH   7  11
ATOM     11  C   UNL     1       3.700   4.240  18.147  0.00  0.00    +0.000 C 
BRANCH  11  15
ATOM     12  C   UNL     1       7.013   5.026  15.459  0.00  0.00    +0.000 A 
ATOM     13  C   UNL     1       5.703   5.003  14.989  0.00  0.00    +0.000 A 
ATOM     14  C   UNL     1       4.637   4.772  15.869  0.00  0.00    +0.000 A 
ATOM     15  C   UNL     1       4.871   4.522  17.232  0.00  0.00    +0.000 A 
ATOM     16  C   UNL     1       6.187   4.606  17.702  0.00  0.00    +0.000 A 
ATOM     17  C   UNL     1       7.249   4.839  16.821  0.00  0.00    +0.000 A 
BRANCH  12  19
ATOM     18  C   UNL     1       7.544   5.074  13.154  0.00  0.00    +0.000 C 
ATOM     19  O   UNL     1       7.976   5.210  14.504  0.00  0.00    +0.000 OA
ENDBRANCH  12  19
ENDBRANCH  11  15
ENDBRANCH   7  11
ENDBRANCH   1   9
BRANCH   4  20
ATOM     20  S   UNL     1      -0.305  11.293  19.913  0.00  0.00    +0.000 S 
ATOM     21  O   UNL     1      -0.893  11.107  21.220  0.00  0.00    +0.000 OA
ATOM     22  O   UNL     1       0.484  12.466  19.608  0.00  0.00    +0.000 OA
BRANCH  20  23
ATOM     23  N   UNL     1      -1.548  11.154  18.738  0.00  0.00    +0.000 NA
ATOM     24  C   UNL     1      -1.769   9.812  18.157  0.00  0.00    +0.000 C 
ATOM     25  C   UNL     1      -2.124   9.881  16.671  0.00  0.00    +0.000 C 
ATOM     26  C   UNL     1      -3.598  10.143  16.389  0.00  0.00    +0.000 C 
ATOM     27  C   UNL     1      -4.089  11.495  16.884  0.00  0.00    +0.000 C 
ATOM     28  C   UNL     1      -4.045  11.611  18.402  0.00  0.00    +0.000 C 
ATOM     29  C   UNL     1      -2.699  12.066  18.945  0.00  0.00    +0.000 C 
ENDBRANCH  20  23
ENDBRANCH   4  20
TORSDOF 6
ENDMDL
MODEL 2
REMARK VINA RESULT:      -8.0      2.917     10.236
REMARK  Name = 
REMARK  7 active torsions:
REMARK  status: ('A' for Active; 'I' for Inactive)
REMARK    1  A    between atoms: C_1  and  O_2
REMARK    2  A    between atoms: O_2  and  C_3
REMARK    3  A    between atoms: C_6  and  C_7
REMARK    4  A    between atoms: C_7  and  C_8
REMARK    5  A    between atoms: N_10  and  C_11
REMARK    6  A    between atoms: C_14  and  S_15
REMARK    7  A    between atoms: S_15  and  N_18
REMARK                            x       y       z     vdW  Elec       q    Type
REMARK                         _______ _______ _______ _____ _____    ______ ____
ROOT
ATOM      1  C   UNL     1       1.471   8.754  19.814  0.00  0.00    +0.000 A 
ATOM      2  C   UNL     1       2.020   8.458  18.560  0.00  0.00    +0.000 A 
ATOM      3  C   UNL     1       2.451   7.160  18.263  0.00  0.00    +0.000 A 
ATOM      4  C   UNL     1       2.310   6.150  19.220  0.00  0.00    +0.000 A 
ATOM      5  C   UNL     1       1.713   6.428  20.454  0.00  0.00    +0.000 A 
ATOM      6  C   UNL     1       1.336   7.739  20.763  0.00  0.00    +0.000 A 
ENDROOT
BRANCH   1   9
ATOM      7  C   UNL     1      -0.107  10.623  19.673  0.00  0.00    +0.000 C 
ATOM      8  O   UNL     1      -0.916  10.035  18.957  0.00  0.00    +0.000 OA
ATOM      9  N   UNL     1       1.068  10.063  20.158  0.00  0.00    +0.000 N 
ATOM     10  H   UNL     1       1.382  10.421  21.053  0.00  0.00    +0.000 HD
BRANCH   7  11
ATOM     11  C   UNL     1      -0.360  12.051  20.144  0.00  0.00    +0.000 C 
BRANCH  11  15
ATOM     12  C   UNL     1      -3.836  12.576  22.688  0.00  0.00    +0.000 A 
ATOM     13  C   UNL     1      -2.661  12.022  23.190  0.00  0.00    +0.000 A 
ATOM     14  C   UNL     1      -1.536  11.878  22.366  0.00  0.00    +0.000 A 
ATOM     15  C   UNL     1      -1.582  12.253  21.013  0.00  0.00    +0.000 A 
ATOM     16  C   UNL     1      -2.749  12.863  20.537  0.00  0.00    +0.000 A 
ATOM     17  C   UNL     1      -3.870  13.007  21.361  0.00  0.00    +0.000 A 
BRANCH  12  19
ATOM     18  C   UNL     1      -4.554  12.436  24.938  0.00  0.00    +0.000 C 
ATOM     19  O   UNL     1      -4.884  12.621  23.565  0.00  0.00    +0.000 OA
ENDBRANCH  12  19
ENDBRANCH  11  15
ENDBRANCH   7  11
ENDBRANCH   1   9
BRANCH   4  20
ATOM     20  S   UNL     1       2.807   4.473  18.828  0.00  0.00    +0.000 S 
ATOM     21  O   UNL     1       2.932   3.759  20.077  0.00  0.00    +0.000 OA
ATOM     22  O   UNL     1       1.928   4.002  17.781  0.00  0.00    +0.000 OA
BRANCH  20  23
ATOM     23  N   UNL     1       4.377   4.680  18.166  0.00  0.00    +0.000 NA
ATOM     24  C   UNL     1       5.520   4.379  19.056  0.00  0.00    +0.000 C 
ATOM     25  C   UNL     1       6.687   5.343  18.837  0.00  0.00    +0.000 C 
ATOM     26  C   UNL     1       7.606   4.962  17.682  0.00  0.00    +0.000 C 
ATOM     27  C   UNL     1       6.929   4.989  16.321  0.00  0.00    +0.000 C 
ATOM     28  C   UNL     1       5.834   3.938  16.195  0.00  0.00    +0.000 C 
ATOM     29  C   UNL     1       4.479   4.397  16.714  0.00  0.00    +0.000 C 
ENDBRANCH  20  23
ENDBRANCH   4  20
TORSDOF 6
ENDMDL
MODEL 3
REMARK VINA RESULT:      -8.0      3.027     10.127
REMARK  Name = 
REMARK  7 active torsions:
REMARK  status: ('A' for Active; 'I' for Inactive)
REMARK    1  A    between atoms: C_1  and  O_2
REMARK    2  A    between atoms: O_2  and  C_3
REMARK    3  A    between atoms: C_6  and  C_7
REMARK    4  A    between atoms: C_7  and  C_8
REMARK    5  A    between atoms: N_10  and  C_11
REMARK    6  A    between atoms: C_14  and  S_15
REMARK    7  A    between atoms: S_15  and  N_18
REMARK                            x       y       z     vdW  Elec       q    Type
REMARK                         _______ _______ _______ _____ _____    ______ ____
ROOT
ATOM      1  C   UNL     1       1.706   8.373  19.775  0.00  0.00    +0.000 A 
ATOM      2  C   UNL     1       1.558   7.310  20.673  0.00  0.00    +0.000 A 
ATOM      3  C   UNL     1       1.867   6.003  20.281  0.00  0.00    +0.000 A 
ATOM      4  C   UNL     1       2.348   5.764  18.990  0.00  0.00    +0.000 A 
ATOM      5  C   UNL     1       2.549   6.830  18.107  0.00  0.00    +0.000 A 
ATOM      6  C   UNL     1       2.186   8.126  18.487  0.00  0.00    +0.000 A 
ENDROOT
BRANCH   1   9
ATOM      7  C   UNL     1       0.211  10.311  19.651  0.00  0.00    +0.000 C 
ATOM      8  O   UNL     1      -0.625   9.764  18.935  0.00  0.00    +0.000 OA
ATOM      9  N   UNL     1       1.362   9.697  20.128  0.00  0.00    +0.000 N 
ATOM     10  H   UNL     1       1.695  10.036  21.024  0.00  0.00    +0.000 HD
BRANCH   7  11
ATOM     11  C   UNL     1       0.023  11.746  20.131  0.00  0.00    +0.000 C 
BRANCH  11  15
ATOM     12  C   UNL     1      -3.179  12.327  23.000  0.00  0.00    +0.000 A 
ATOM     13  C   UNL     1      -2.049  11.585  23.333  0.00  0.00    +0.000 A 
ATOM     14  C   UNL     1      -1.009  11.422  22.407  0.00  0.00    +0.000 A 
ATOM     15  C   UNL     1      -1.102  11.971  21.117  0.00  0.00    +0.000 A 
ATOM     16  C   UNL     1      -2.216  12.763  20.816  0.00  0.00    +0.000 A 
ATOM     17  C   UNL     1      -3.252  12.926  21.742  0.00  0.00    +0.000 A 
BRANCH  12  19
ATOM     18  C   UNL     1      -5.370  13.006  23.580  0.00  0.00    +0.000 C 
ATOM     19  O   UNL     1      -4.151  12.376  23.962  0.00  0.00    +0.000 OA
ENDBRANCH  12  19
ENDBRANCH  11  15
ENDBRANCH   7  11
ENDBRANCH   1   9
BRANCH   4  20
ATOM     20  S   UNL     1       2.800   4.101  18.498  0.00  0.00    +0.000 S 
ATOM     21  O   UNL     1       2.781   3.280  19.687  0.00  0.00    +0.000 OA
ATOM     22  O   UNL     1       1.995   3.765  17.345  0.00  0.00    +0.000 OA
BRANCH  20  23
ATOM     23  N   UNL     1       4.430   4.277  17.991  0.00  0.00    +0.000 NA
ATOM     24  C   UNL     1       4.652   4.631  16.572  0.00  0.00    +0.000 C 
ATOM     25  C   UNL     1       5.882   3.932  15.992  0.00  0.00    +0.000 C 
ATOM     26  C   UNL     1       7.200   4.642  16.278  0.00  0.00    +0.000 C 
ATOM     27  C   UNL     1       7.555   4.708  17.755  0.00  0.00    +0.000 C 
ATOM     28  C   UNL     1       6.575   5.558  18.552  0.00  0.00    +0.000 C 
ATOM     29  C   UNL     1       5.349   4.795  19.033  0.00  0.00    +0.000 C 
ENDBRANCH  20  23
ENDBRANCH   4  20
TORSDOF 6
ENDMDL
MODEL 4
REMARK VINA RESULT:      -7.9      3.306      9.849
REMARK  Name = 
REMARK  7 active torsions:
REMARK  status: ('A' for Active; 'I' for Inactive)
REMARK    1  A    between atoms: C_1  and  O_2
REMARK    2  A    between atoms: O_2  and  C_3
REMARK    3  A    between atoms: C_6  and  C_7
REMARK    4  A    between atoms: C_7  and  C_8
REMARK    5  A    between atoms: N_10  and  C_11
REMARK    6  A    between atoms: C_14  and  S_15
REMARK    7  A    between atoms: S_15  and  N_18
REMARK                            x       y       z     vdW  Elec       q    Type
REMARK                         _______ _______ _______ _____ _____    ______ ____
ROOT
ATOM      1  C   UNL     1       1.836   7.326  20.602  0.00  0.00    +0.000 A 
ATOM      2  C   UNL     1       2.212   7.491  19.264  0.00  0.00    +0.000 A 
ATOM      3  C   UNL     1       2.543   6.381  18.479  0.00  0.00    +0.000 A 
ATOM      4  C   UNL     1       2.477   5.098  19.033  0.00  0.00    +0.000 A 
ATOM      5  C   UNL     1       2.050   4.924  20.354  0.00  0.00    +0.000 A 
ATOM      6  C   UNL     1       1.774   6.042  21.148  0.00  0.00    +0.000 A 
ENDROOT
BRANCH   1   9
ATOM      7  C   UNL     1       0.242   8.710  21.847  0.00  0.00    +0.000 C 
ATOM      8  O   UNL     1      -0.740   8.017  21.583  0.00  0.00    +0.000 OA
ATOM      9  N   UNL     1       1.537   8.430  21.431  0.00  0.00    +0.000 N 
ATOM     10  H   UNL     1       2.271   8.750  22.053  0.00  0.00    +0.000 HD
BRANCH   7  11
ATOM     11  C   UNL     1       0.120   9.953  22.721  0.00  0.00    +0.000 C 
BRANCH  11  15
ATOM     12  C   UNL     1      -2.587  13.011  21.256  0.00  0.00    +0.000 A 
ATOM     13  C   UNL     1      -1.621  12.454  20.422  0.00  0.00    +0.000 A 
ATOM     14  C   UNL     1      -0.767  11.450  20.898  0.00  0.00    +0.000 A 
ATOM     15  C   UNL     1      -0.841  11.013  22.231  0.00  0.00    +0.000 A 
ATOM     16  C   UNL     1      -1.855  11.539  23.042  0.00  0.00    +0.000 A 
ATOM     17  C   UNL     1      -2.708  12.540  22.564  0.00  0.00    +0.000 A 
BRANCH  12  19
ATOM     18  C   UNL     1      -4.741  13.822  20.707  0.00  0.00    +0.000 C 
ATOM     19  O   UNL     1      -3.331  14.017  20.702  0.00  0.00    +0.000 OA
ENDBRANCH  12  19
ENDBRANCH  11  15
ENDBRANCH   7  11
ENDBRANCH   1   9
BRANCH   4  20
ATOM     20  S   UNL     1       2.846   3.667  18.019  0.00  0.00    +0.000 S 
ATOM     21  O   UNL     1       2.834   2.511  18.886  0.00  0.00    +0.000 OA
ATOM     22  O   UNL     1       1.992   3.738  16.854  0.00  0.00    +0.000 OA
BRANCH  20  23
ATOM     23  N   UNL     1       4.465   3.951  17.524  0.00  0.00    +0.000 NA
ATOM     24  C   UNL     1       4.659   4.495  16.162  0.00  0.00    +0.000 C 
ATOM     25  C   UNL     1       5.899   3.912  15.483  0.00  0.00    +0.000 C 
ATOM     26  C   UNL     1       7.202   4.612  15.847  0.00  0.00    +0.000 C 
ATOM     27  C   UNL     1       7.575   4.492  17.317  0.00  0.00    +0.000 C 
ATOM     28  C   UNL     1       6.584   5.204  18.229  0.00  0.00    +0.000 C 
ATOM     29  C   UNL     1       5.384   4.352  18.616  0.00  0.00    +0.000 C 
ENDBRANCH  20  23
ENDBRANCH   4  20
TORSDOF 6
ENDMDL
MODEL 5
REMARK VINA RESULT:      -7.9      0.779      1.261
REMARK  Name = 
REMARK  7 active torsions:
REMARK  status: ('A' for Active; 'I' for Inactive)
REMARK    1  A    between atoms: C_1  and  O_2
REMARK    2  A    between atoms: O_2  and  C_3
REMARK    3  A    between atoms: C_6  and  C_7
REMARK    4  A    between atoms: C_7  and  C_8
REMARK    5  A    between atoms: N_10  and  C_11
REMARK    6  A    between atoms: C_14  and  S_15
REMARK    7  A    between atoms: S_15  and  N_18
REMARK                            x       y       z     vdW  Elec       q    Type
REMARK                         _______ _______ _______ _____ _____    ______ ____
ROOT
ATOM      1  C   UNL     1       2.203   7.479  19.647  0.00  0.00    +0.000 A 
ATOM      2  C   UNL     1       1.486   7.722  20.824  0.00  0.00    +0.000 A 
ATOM      3  C   UNL     1       0.724   8.888  20.962  0.00  0.00    +0.000 A 
ATOM      4  C   UNL     1       0.665   9.803  19.906  0.00  0.00    +0.000 A 
ATOM      5  C   UNL     1       1.337   9.539  18.708  0.00  0.00    +0.000 A 
ATOM      6  C   UNL     1       2.139   8.399  18.598  0.00  0.00    +0.000 A 
ENDROOT
BRANCH   1   9
ATOM      7  C   UNL     1       2.501   5.046  19.609  0.00  0.00    +0.000 C 
ATOM      8  O   UNL     1       1.315   4.784  19.800  0.00  0.00    +0.000 OA
ATOM      9  N   UNL     1       3.014   6.332  19.495  0.00  0.00    +0.000 N 
ATOM     10  H   UNL     1       3.831   6.422  18.901  0.00  0.00    +0.000 HD
BRANCH   7  11
ATOM     11  C   UNL     1       3.537   3.942  19.430  0.00  0.00    +0.000 C 
BRANCH  11  15
ATOM     12  C   UNL     1       6.577   4.663  16.419  0.00  0.00    +0.000 A 
ATOM     13  C   UNL     1       5.264   4.378  16.054  0.00  0.00    +0.000 A 
ATOM     14  C   UNL     1       4.284   4.169  17.034  0.00  0.00    +0.000 A 
ATOM     15  C   UNL     1       4.612   4.206  18.400  0.00  0.00    +0.000 A 
ATOM     16  C   UNL     1       5.922   4.552  18.754  0.00  0.00    +0.000 A 
ATOM     17  C   UNL     1       6.899   4.762  17.774  0.00  0.00    +0.000 A 
BRANCH  12  19
ATOM     18  C   UNL     1       6.918   4.602  14.079  0.00  0.00    +0.000 C 
ATOM     19  O   UNL     1       7.458   4.797  15.381  0.00  0.00    +0.000 OA
ENDBRANCH  12  19
ENDBRANCH  11  15
ENDBRANCH   7  11
ENDBRANCH   1   9
BRANCH   4  20
ATOM     20  S   UNL     1      -0.352  11.271  20.053  0.00  0.00    +0.000 S 
ATOM     21  O   UNL     1      -1.047  11.189  21.317  0.00  0.00    +0.000 OA
ATOM     22  O   UNL     1       0.487  12.405  19.734  0.00  0.00    +0.000 OA
BRANCH  20  23
ATOM     23  N   UNL     1      -1.500  11.074  18.793  0.00  0.00    +0.000 NA
ATOM     24  C   UNL     1      -1.675   9.705  18.259  0.00  0.00    +0.000 C 
ATOM     25  C   UNL     1      -1.913   9.705  16.748  0.00  0.00    +0.000 C 
ATOM     26  C   UNL     1      -3.362   9.948  16.342  0.00  0.00    +0.000 C 
ATOM     27  C   UNL     1      -3.889  11.319  16.733  0.00  0.00    +0.000 C 
ATOM     28  C   UNL     1      -3.964  11.505  18.243  0.00  0.00    +0.000 C 
ATOM     29  C   UNL     1      -2.664  11.990  18.868  0.00  0.00    +0.000 C 
ENDBRANCH  20  23
ENDBRANCH   4  20
TORSDOF 6
ENDMDL
MODEL 6
REMARK VINA RESULT:      -7.9      3.287      9.931
REMARK  Name = 
REMARK  7 active torsions:
REMARK  status: ('A' for Active; 'I' for Inactive)
REMARK    1  A    between atoms: C_1  and  O_2
REMARK    2  A    between atoms: O_2  and  C_3
REMARK    3  A    between atoms: C_6  and  C_7
REMARK    4  A    between atoms: C_7  and  C_8
REMARK    5  A    between atoms: N_10  and  C_11
REMARK    6  A    between atoms: C_14  and  S_15
REMARK    7  A    between atoms: S_15  and  N_18
REMARK                            x       y       z     vdW  Elec       q    Type
REMARK                         _______ _______ _______ _____ _____    ______ ____
ROOT
ATOM      1  C   UNL     1       1.836   7.264  20.618  0.00  0.00    +0.000 A 
ATOM      2  C   UNL     1       1.727   5.970  21.141  0.00  0.00    +0.000 A 
ATOM      3  C   UNL     1       1.994   4.856  20.339  0.00  0.00    +0.000 A 
ATOM      4  C   UNL     1       2.394   5.040  19.011  0.00  0.00    +0.000 A 
ATOM      5  C   UNL     1       2.557   6.332  18.499  0.00  0.00    +0.000 A 
ATOM      6  C   UNL     1       2.235   7.439  19.291  0.00  0.00    +0.000 A 
ENDROOT
BRANCH   1   9
ATOM      7  C   UNL     1       0.239   8.692  21.807  0.00  0.00    +0.000 C 
ATOM      8  O   UNL     1      -0.736   7.974  21.593  0.00  0.00    +0.000 OA
ATOM      9  N   UNL     1       1.533   8.407  21.391  0.00  0.00    +0.000 N 
ATOM     10  H   UNL     1       2.270   8.769  21.986  0.00  0.00    +0.000 HD
BRANCH   7  11
ATOM     11  C   UNL     1       0.111   9.978  22.616  0.00  0.00    +0.000 C 
BRANCH  11  15
ATOM     12  C   UNL     1      -2.869  12.818  21.247  0.00  0.00    +0.000 A 
ATOM     13  C   UNL     1      -2.805  12.441  22.585  0.00  0.00    +0.000 A 
ATOM     14  C   UNL     1      -1.823  11.541  23.023  0.00  0.00    +0.000 A 
ATOM     15  C   UNL     1      -0.912  10.974  22.117  0.00  0.00    +0.000 A 
ATOM     16  C   UNL     1      -0.950  11.405  20.785  0.00  0.00    +0.000 A 
ATOM     17  C   UNL     1      -1.930  12.306  20.351  0.00  0.00    +0.000 A 
BRANCH  12  19
ATOM     18  C   UNL     1      -3.608  15.053  21.005  0.00  0.00    +0.000 C 
ATOM     19  O   UNL     1      -3.897  13.661  20.924  0.00  0.00    +0.000 OA
ENDBRANCH  12  19
ENDBRANCH  11  15
ENDBRANCH   7  11
ENDBRANCH   1   9
BRANCH   4  20
ATOM     20  S   UNL     1       2.791   3.621  17.993  0.00  0.00    +0.000 S 
ATOM     21  O   UNL     1       2.772   2.457  18.850  0.00  0.00    +0.000 OA
ATOM     22  O   UNL     1       1.958   3.695  16.814  0.00  0.00    +0.000 OA
BRANCH  20  23
ATOM     23  N   UNL     1       4.417   3.920  17.529  0.00  0.00    +0.000 NA
ATOM     24  C   UNL     1       4.631   4.475  16.174  0.00  0.00    +0.000 C 
ATOM     25  C   UNL     1       5.887   3.906  15.514  0.00  0.00    +0.000 C 
ATOM     26  C   UNL     1       7.179   4.613  15.907  0.00  0.00    +0.000 C 
ATOM     27  C   UNL     1       7.526   4.486  17.382  0.00  0.00    +0.000 C 
ATOM     28  C   UNL     1       6.513   5.183  18.281  0.00  0.00    +0.000 C 
ATOM     29  C   UNL     1       5.313   4.320  18.640  0.00  0.00    +0.000 C 
ENDBRANCH  20  23
ENDBRANCH   4  20
TORSDOF 6
ENDMDL
MODEL 7
REMARK VINA RESULT:      -7.9      2.312      3.292
REMARK  Name = 
REMARK  7 active torsions:
REMARK  status: ('A' for Active; 'I' for Inactive)
REMARK    1  A    between atoms: C_1  and  O_2
REMARK    2  A    between atoms: O_2  and  C_3
REMARK    3  A    between atoms: C_6  and  C_7
REMARK    4  A    between atoms: C_7  and  C_8
REMARK    5  A    between atoms: N_10  and  C_11
REMARK    6  A    between atoms: C_14  and  S_15
REMARK    7  A    between atoms: S_15  and  N_18
REMARK                            x       y       z     vdW  Elec       q    Type
REMARK                         _______ _______ _______ _____ _____    ______ ____
ROOT
ATOM      1  C   UNL     1       2.250   7.399  19.734  0.00  0.00    +0.000 A 
ATOM      2  C   UNL     1       1.579   7.675  20.931  0.00  0.00    +0.000 A 
ATOM      3  C   UNL     1       0.764   8.808  21.041  0.00  0.00    +0.000 A 
ATOM      4  C   UNL     1       0.604   9.654  19.939  0.00  0.00    +0.000 A 
ATOM      5  C   UNL     1       1.230   9.353  18.724  0.00  0.00    +0.000 A 
ATOM      6  C   UNL     1       2.086   8.250  18.639  0.00  0.00    +0.000 A 
ENDROOT
BRANCH   1   9
ATOM      7  C   UNL     1       2.632   4.987  19.524  0.00  0.00    +0.000 C 
ATOM      8  O   UNL     1       1.440   4.685  19.505  0.00  0.00    +0.000 OA
ATOM      9  N   UNL     1       3.113   6.287  19.606  0.00  0.00    +0.000 N 
ATOM     10  H   UNL     1       4.007   6.449  19.155  0.00  0.00    +0.000 HD
BRANCH   7  11
ATOM     11  C   UNL     1       3.720   3.924  19.407  0.00  0.00    +0.000 C 
BRANCH  11  15
ATOM     12  C   UNL     1       6.729   4.618  16.359  0.00  0.00    +0.000 A 
ATOM     13  C   UNL     1       5.428   4.264  16.011  0.00  0.00    +0.000 A 
ATOM     14  C   UNL     1       4.457   4.065  17.002  0.00  0.00    +0.000 A 
ATOM     15  C   UNL     1       4.784   4.181  18.363  0.00  0.00    +0.000 A 
ATOM     16  C   UNL     1       6.079   4.595  18.698  0.00  0.00    +0.000 A 
ATOM     17  C   UNL     1       7.046   4.795  17.706  0.00  0.00    +0.000 A 
BRANCH  12  19
ATOM     18  C   UNL     1       7.021   4.765  14.016  0.00  0.00    +0.000 C 
ATOM     19  O   UNL     1       7.604   4.737  15.314  0.00  0.00    +0.000 OA
ENDBRANCH  12  19
ENDBRANCH  11  15
ENDBRANCH   7  11
ENDBRANCH   1   9
BRANCH   4  20
ATOM     20  S   UNL     1      -0.481  11.075  20.054  0.00  0.00    +0.000 S 
ATOM     21  O   UNL     1      -1.351  11.046  18.901  0.00  0.00    +0.000 OA
ATOM     22  O   UNL     1      -1.018  11.094  21.396  0.00  0.00    +0.000 OA
BRANCH  20  23
ATOM     23  N   UNL     1       0.597  12.400  19.882  0.00  0.00    +0.000 NA
ATOM     24  C   UNL     1       0.684  13.018  18.541  0.00  0.00    +0.000 C 
ATOM     25  C   UNL     1       2.109  13.458  18.204  0.00  0.00    +0.000 C 
ATOM     26  C   UNL     1       2.490  14.826  18.756  0.00  0.00    +0.000 C 
ATOM     27  C   UNL     1       2.501  14.895  20.275  0.00  0.00    +0.000 C 
ATOM     28  C   UNL     1       1.115  14.702  20.877  0.00  0.00    +0.000 C 
ATOM     29  C   UNL     1       0.737  13.244  21.093  0.00  0.00    +0.000 C 
ENDBRANCH  20  23
ENDBRANCH   4  20
TORSDOF 6
ENDMDL
MODEL 8
REMARK VINA RESULT:      -7.8      2.179      3.095
REMARK  Name = 
REMARK  7 active torsions:
REMARK  status: ('A' for Active; 'I' for Inactive)
REMARK    1  A    between atoms: C_1  and  O_2
REMARK    2  A    between atoms: O_2  and  C_3
REMARK    3  A    between atoms: C_6  and  C_7
REMARK    4  A    between atoms: C_7  and  C_8
REMARK    5  A    between atoms: N_10  and  C_11
REMARK    6  A    between atoms: C_14  and  S_15
REMARK    7  A    between atoms: S_15  and  N_18
REMARK                            x       y       z     vdW  Elec       q    Type
REMARK                         _______ _______ _______ _____ _____    ______ ____
ROOT
ATOM      1  C   UNL     1       2.429   7.414  19.046  0.00  0.00    +0.000 A 
ATOM      2  C   UNL     1       2.108   8.326  18.034  0.00  0.00    +0.000 A 
ATOM      3  C   UNL     1       1.244   9.395  18.291  0.00  0.00    +0.000 A 
ATOM      4  C   UNL     1       0.716   9.564  19.575  0.00  0.00    +0.000 A 
ATOM      5  C   UNL     1       1.077   8.687  20.604  0.00  0.00    +0.000 A 
ATOM      6  C   UNL     1       1.897   7.589  20.325  0.00  0.00    +0.000 A 
ENDROOT
BRANCH   1   9
ATOM      7  C   UNL     1       2.751   5.040  18.529  0.00  0.00    +0.000 C 
ATOM      8  O   UNL     1       1.553   4.784  18.420  0.00  0.00    +0.000 OA
ATOM      9  N   UNL     1       3.265   6.300  18.806  0.00  0.00    +0.000 N 
ATOM     10  H   UNL     1       4.183   6.489  18.419  0.00  0.00    +0.000 HD
BRANCH   7  11
ATOM     11  C   UNL     1       3.812   3.965  18.316  0.00  0.00    +0.000 C 
BRANCH  11  15
ATOM     12  C   UNL     1       7.002   4.981  15.556  0.00  0.00    +0.000 A 
ATOM     13  C   UNL     1       5.691   4.839  15.111  0.00  0.00    +0.000 A 
ATOM     14  C   UNL     1       4.663   4.533  16.014  0.00  0.00    +0.000 A 
ATOM     15  C   UNL     1       4.939   4.328  17.376  0.00  0.00    +0.000 A 
ATOM     16  C   UNL     1       6.251   4.532  17.821  0.00  0.00    +0.000 A 
ATOM     17  C   UNL     1       7.275   4.840  16.917  0.00  0.00    +0.000 A 
BRANCH  12  19
ATOM     18  C   UNL     1       7.500   4.997  13.243  0.00  0.00    +0.000 C 
ATOM     19  O   UNL     1       7.929   5.229  14.581  0.00  0.00    +0.000 OA
ENDBRANCH  12  19
ENDBRANCH  11  15
ENDBRANCH   7  11
ENDBRANCH   1   9
BRANCH   4  20
ATOM     20  S   UNL     1      -0.347  10.963  19.928  0.00  0.00    +0.000 S 
ATOM     21  O   UNL     1      -1.305  11.057  18.851  0.00  0.00    +0.000 OA
ATOM     22  O   UNL     1      -0.776  10.836  21.303  0.00  0.00    +0.000 OA
BRANCH  20  23
ATOM     23  N   UNL     1       0.723  12.300  19.814  0.00  0.00    +0.000 NA
ATOM     24  C   UNL     1       0.748  13.026  18.525  0.00  0.00    +0.000 C 
ATOM     25  C   UNL     1       2.156  13.496  18.158  0.00  0.00    +0.000 C 
ATOM     26  C   UNL     1       2.564  14.816  18.802  0.00  0.00    +0.000 C 
ATOM     27  C   UNL     1       2.647  14.760  20.319  0.00  0.00    +0.000 C 
ATOM     28  C   UNL     1       1.291  14.515  20.968  0.00  0.00    +0.000 C 
ATOM     29  C   UNL     1       0.922  13.043  21.082  0.00  0.00    +0.000 C 
ENDBRANCH  20  23
ENDBRANCH   4  20
TORSDOF 6
ENDMDL
MODEL 9
REMARK VINA RESULT:      -7.7      2.310      3.575
REMARK  Name = 
REMARK  7 active torsions:
REMARK  status: ('A' for Active; 'I' for Inactive)
REMARK    1  A    between atoms: C_1  and  O_2
REMARK    2  A    between atoms: O_2  and  C_3
REMARK    3  A    between atoms: C_6  and  C_7
REMARK    4  A    between atoms: C_7  and  C_8
REMARK    5  A    between atoms: N_10  and  C_11
REMARK    6  A    between atoms: C_14  and  S_15
REMARK    7  A    between atoms: S_15  and  N_18
REMARK                            x       y       z     vdW  Elec       q    Type
REMARK                         _______ _______ _______ _____ _____    ______ ____
ROOT
ATOM      1  C   UNL     1       2.205   7.548  19.701  0.00  0.00    +0.000 A 
ATOM      2  C   UNL     1       1.520   7.873  20.878  0.00  0.00    +0.000 A 
ATOM      3  C   UNL     1       0.697   9.004  20.930  0.00  0.00    +0.000 A 
ATOM      4  C   UNL     1       0.543   9.800  19.790  0.00  0.00    +0.000 A 
ATOM      5  C   UNL     1       1.183   9.448  18.596  0.00  0.00    +0.000 A 
ATOM      6  C   UNL     1       2.046   8.348  18.568  0.00  0.00    +0.000 A 
ENDROOT
BRANCH   1   9
ATOM      7  C   UNL     1       2.602   5.132  19.585  0.00  0.00    +0.000 C 
ATOM      8  O   UNL     1       1.412   4.823  19.553  0.00  0.00    +0.000 OA
ATOM      9  N   UNL     1       3.075   6.437  19.631  0.00  0.00    +0.000 N 
ATOM     10  H   UNL     1       3.977   6.588  19.193  0.00  0.00    +0.000 HD
BRANCH   7  11
ATOM     11  C   UNL     1       3.697   4.072  19.530  0.00  0.00    +0.000 C 
BRANCH  11  15
ATOM     12  C   UNL     1       6.588   4.506  16.323  0.00  0.00    +0.000 A 
ATOM     13  C   UNL     1       6.946   4.753  17.646  0.00  0.00    +0.000 A 
ATOM     14  C   UNL     1       6.012   4.587  18.678  0.00  0.00    +0.000 A 
ATOM     15  C   UNL     1       4.689   4.207  18.396  0.00  0.00    +0.000 A 
ATOM     16  C   UNL     1       4.357   3.906  17.069  0.00  0.00    +0.000 A 
ATOM     17  C   UNL     1       5.293   4.069  16.041  0.00  0.00    +0.000 A 
BRANCH  12  19
ATOM     18  C   UNL     1       7.130   4.825  14.043  0.00  0.00    +0.000 C 
ATOM     19  O   UNL     1       7.564   4.749  15.396  0.00  0.00    +0.000 OA
ENDBRANCH  12  19
ENDBRANCH  11  15
ENDBRANCH   7  11
ENDBRANCH   1   9
BRANCH   4  20
ATOM     20  S   UNL     1      -0.552  11.217  19.831  0.00  0.00    +0.000 S 
ATOM     21  O   UNL     1      -1.346  11.183  18.625  0.00  0.00    +0.000 OA
ATOM     22  O   UNL     1      -1.174  11.238  21.136  0.00  0.00    +0.000 OA
BRANCH  20  23
ATOM     23  N   UNL     1       0.531  12.545  19.725  0.00  0.00    +0.000 NA
ATOM     24  C   UNL     1       1.550  12.661  20.791  0.00  0.00    +0.000 C 
ATOM     25  C   UNL     1       1.814  14.117  21.178  0.00  0.00    +0.000 C 
ATOM     26  C   UNL     1       2.811  14.835  20.276  0.00  0.00    +0.000 C 
ATOM     27  C   UNL     1       2.344  14.981  18.837  0.00  0.00    +0.000 C 
ATOM     28  C   UNL     1       2.208  13.640  18.129  0.00  0.00    +0.000 C 
ATOM     29  C   UNL     1       0.860  12.966  18.342  0.00  0.00    +0.000 C 
ENDBRANCH  20  23
ENDBRANCH   4  20
TORSDOF 6
ENDMDL
