MODEL 1
REMARK VINA RESULT:      -6.3      0.000      0.000
REMARK  Name = 
REMARK  10 active torsions:
REMARK  status: ('A' for Active; 'I' for Inactive)
REMARK    1  A    between atoms: C_1  and  C_2
REMARK    2  A    between atoms: C_2  and  O_3
REMARK    3  A    between atoms: O_3  and  C_4
REMARK    4  A    between atoms: C_4  and  C_6
REMARK    5  A    between atoms: C_7  and  C_8
REMARK    6  A    between atoms: C_17  and  N_18
REMARK    7  A    between atoms: C_20  and  C_21
REMARK    8  A    between atoms: C_25  and  N_26
REMARK    9  A    between atoms: C_31  and  C_32
REMARK   10  A    between atoms: C_31  and  C_33
REMARK                            x       y       z     vdW  Elec       q    Type
REMARK                         _______ _______ _______ _____ _____    ______ ____
ROOT
ATOM      1  C   UNL     1       9.733  13.284  19.950  0.00  0.00    +0.000 C 
ATOM      2  C   UNL     1       9.455  11.964  20.062  0.00  0.00    +0.000 C 
ATOM      3  N   UNL     1       8.884  11.491  21.243  0.00  0.00    +0.000 N 
ATOM      4  C   UNL     1       8.652  12.260  22.384  0.00  0.00    +0.000 A 
ATOM      5  N   UNL     1       8.148  11.634  23.463  0.00  0.00    +0.000 NA
ATOM      6  C   UNL     1       7.890  12.374  24.570  0.00  0.00    +0.000 A 
ATOM      7  C   UNL     1       8.133  13.750  24.637  0.00  0.00    +0.000 A 
ATOM      8  C   UNL     1       8.713  14.382  23.529  0.00  0.00    +0.000 A 
ATOM      9  C   UNL     1       8.940  13.625  22.367  0.00  0.00    +0.000 A 
ATOM     10  C   UNL     1       9.423  14.263  21.070  0.00  0.00    +0.000 C 
ATOM     11  C   UNL     1       7.802  14.549  25.873  0.00  0.00    +0.000 C 
ATOM     12  C   UNL     1       6.805  13.880  26.838  0.00  0.00    +0.000 C 
ATOM     13  C   UNL     1       5.366  13.968  26.289  0.00  0.00    +0.000 C 
ATOM     14  C   UNL     1       6.852  14.647  28.171  0.00  0.00    +0.000 C 
ATOM     15  C   UNL     1       7.244  12.419  27.040  0.00  0.00    +0.000 C 
ATOM     16  C   UNL     1       7.269  11.630  25.728  0.00  0.00    +0.000 C 
ATOM     17  H   UNL     1       8.713  10.496  21.354  0.00  0.00    +0.000 HD
ENDROOT
BRANCH  10  18
ATOM     18  C   UNL     1       8.428  15.317  20.569  0.00  0.00    +0.000 A 
ATOM     19  C   UNL     1       8.799  16.670  20.463  0.00  0.00    +0.000 A 
ATOM     20  C   UNL     1       7.876  17.637  20.067  0.00  0.00    +0.000 A 
ATOM     21  C   UNL     1       6.566  17.265  19.755  0.00  0.00    +0.000 A 
ATOM     22  C   UNL     1       6.192  15.920  19.836  0.00  0.00    +0.000 A 
ATOM     23  C   UNL     1       7.111  14.948  20.243  0.00  0.00    +0.000 A 
BRANCH  22  24
ATOM     24  N   UNL     1       4.825  15.516  19.484  0.00  0.00    +0.000 N 
ATOM     25  O   UNL     1       4.173  14.889  20.328  0.00  0.00    +0.000 OA
ATOM     26  O   UNL     1       4.401  15.842  18.365  0.00  0.00    +0.000 OA
ENDBRANCH  22  24
ENDBRANCH  10  18
BRANCH   2  27
ATOM     27  C   UNL     1       9.768  10.945  18.972  0.00  0.00    +0.000 C 
ATOM     28  F   UNL     1       9.514   9.680  19.416  0.00  0.00    +0.000 F 
ATOM     29  F   UNL     1       9.004  11.113  17.865  0.00  0.00    +0.000 F 
ATOM     30  F   UNL     1      11.075  10.958  18.607  0.00  0.00    +0.000 F 
ENDBRANCH   2  27
BRANCH   8  31
ATOM     31  N   UNL     1       9.267  15.669  23.673  0.00  0.00    +0.000 N 
ATOM     32  H   UNL     1       8.634  16.385  24.011  0.00  0.00    +0.000 HD
ATOM     33  H   UNL     1       9.830  16.014  22.911  0.00  0.00    +0.000 HD
ENDBRANCH   8  31
BRANCH   1  34
ATOM     34  C   UNL     1      10.372  13.842  18.729  0.00  0.00    +0.000 C 
ATOM     35  O   UNL     1       9.800  14.080  17.681  0.00  0.00    +0.000 OA
BRANCH  34  36
ATOM     36  O   UNL     1      11.702  13.952  18.951  0.00  0.00    +0.000 OA
BRANCH  36  38
ATOM     37  C   UNL     1      12.325  16.131  19.612  0.00  0.00    +0.000 C 
ATOM     38  C   UNL     1      12.324  15.142  18.462  0.00  0.00    +0.000 C 
ENDBRANCH  36  38
ENDBRANCH  34  36
ENDBRANCH   1  34
TORSDOF 7
ENDMDL
MODEL 2
REMARK VINA RESULT:      -6.2      0.961      1.208
REMARK  Name = 
REMARK  10 active torsions:
REMARK  status: ('A' for Active; 'I' for Inactive)
REMARK    1  A    between atoms: C_1  and  C_2
REMARK    2  A    between atoms: C_2  and  O_3
REMARK    3  A    between atoms: O_3  and  C_4
REMARK    4  A    between atoms: C_4  and  C_6
REMARK    5  A    between atoms: C_7  and  C_8
REMARK    6  A    between atoms: C_17  and  N_18
REMARK    7  A    between atoms: C_20  and  C_21
REMARK    8  A    between atoms: C_25  and  N_26
REMARK    9  A    between atoms: C_31  and  C_32
REMARK   10  A    between atoms: C_31  and  C_33
REMARK                            x       y       z     vdW  Elec       q    Type
REMARK                         _______ _______ _______ _____ _____    ______ ____
ROOT
ATOM      1  C   UNL     1       9.872  13.222  20.625  0.00  0.00    +0.000 C 
ATOM      2  C   UNL     1       9.479  11.928  20.577  0.00  0.00    +0.000 C 
ATOM      3  N   UNL     1       8.772  11.396  21.656  0.00  0.00    +0.000 N 
ATOM      4  C   UNL     1       8.507  12.067  22.850  0.00  0.00    +0.000 A 
ATOM      5  N   UNL     1       7.864  11.387  23.815  0.00  0.00    +0.000 NA
ATOM      6  C   UNL     1       7.574  12.036  24.970  0.00  0.00    +0.000 A 
ATOM      7  C   UNL     1       7.921  13.371  25.200  0.00  0.00    +0.000 A 
ATOM      8  C   UNL     1       8.643  14.054  24.210  0.00  0.00    +0.000 A 
ATOM      9  C   UNL     1       8.907  13.397  22.997  0.00  0.00    +0.000 A 
ATOM     10  C   UNL     1       9.548  14.111  21.814  0.00  0.00    +0.000 C 
ATOM     11  C   UNL     1       7.553  14.073  26.483  0.00  0.00    +0.000 C 
ATOM     12  C   UNL     1       6.426  13.406  27.294  0.00  0.00    +0.000 C 
ATOM     13  C   UNL     1       5.051  13.675  26.649  0.00  0.00    +0.000 C 
ATOM     14  C   UNL     1       6.421  14.032  28.699  0.00  0.00    +0.000 C 
ATOM     15  C   UNL     1       6.726  11.898  27.376  0.00  0.00    +0.000 C 
ATOM     16  C   UNL     1       6.798  11.242  25.994  0.00  0.00    +0.000 C 
ATOM     17  H   UNL     1       8.512  10.413  21.649  0.00  0.00    +0.000 HD
ENDROOT
BRANCH  10  18
ATOM     18  C   UNL     1       8.689  15.295  21.351  0.00  0.00    +0.000 A 
ATOM     19  C   UNL     1       9.195  16.607  21.369  0.00  0.00    +0.000 A 
ATOM     20  C   UNL     1       8.393  17.688  21.006  0.00  0.00    +0.000 A 
ATOM     21  C   UNL     1       7.072  17.474  20.606  0.00  0.00    +0.000 A 
ATOM     22  C   UNL     1       6.565  16.172  20.565  0.00  0.00    +0.000 A 
ATOM     23  C   UNL     1       7.362  15.085  20.938  0.00  0.00    +0.000 A 
BRANCH  22  24
ATOM     24  N   UNL     1       5.186  15.936  20.120  0.00  0.00    +0.000 N 
ATOM     25  O   UNL     1       4.285  16.008  20.966  0.00  0.00    +0.000 OA
ATOM     26  O   UNL     1       5.005  15.691  18.918  0.00  0.00    +0.000 OA
ENDBRANCH  22  24
ENDBRANCH  10  18
BRANCH   2  27
ATOM     27  C   UNL     1       9.798  10.996  19.414  0.00  0.00    +0.000 C 
ATOM     28  F   UNL     1       9.440   9.715  19.718  0.00  0.00    +0.000 F 
ATOM     29  F   UNL     1       9.121  11.316  18.286  0.00  0.00    +0.000 F 
ATOM     30  F   UNL     1      11.125  10.955  19.130  0.00  0.00    +0.000 F 
ENDBRANCH   2  27
BRANCH   8  31
ATOM     31  N   UNL     1       9.286  15.265  24.531  0.00  0.00    +0.000 N 
ATOM     32  H   UNL     1      10.121  15.184  25.100  0.00  0.00    +0.000 HD
ATOM     33  H   UNL     1       8.703  16.023  24.853  0.00  0.00    +0.000 HD
ENDBRANCH   8  31
BRANCH   1  34
ATOM     34  C   UNL     1      10.656  13.837  19.522  0.00  0.00    +0.000 C 
ATOM     35  O   UNL     1      11.857  14.034  19.537  0.00  0.00    +0.000 OA
BRANCH  34  36
ATOM     36  O   UNL     1       9.800  14.221  18.547  0.00  0.00    +0.000 OA
BRANCH  36  38
ATOM     37  C   UNL     1       8.827  16.163  17.624  0.00  0.00    +0.000 C 
ATOM     38  C   UNL     1      10.132  15.428  17.860  0.00  0.00    +0.000 C 
ENDBRANCH  36  38
ENDBRANCH  34  36
ENDBRANCH   1  34
TORSDOF 7
ENDMDL
MODEL 3
REMARK VINA RESULT:      -6.2      9.063     11.292
REMARK  Name = 
REMARK  10 active torsions:
REMARK  status: ('A' for Active; 'I' for Inactive)
REMARK    1  A    between atoms: C_1  and  C_2
REMARK    2  A    between atoms: C_2  and  O_3
REMARK    3  A    between atoms: O_3  and  C_4
REMARK    4  A    between atoms: C_4  and  C_6
REMARK    5  A    between atoms: C_7  and  C_8
REMARK    6  A    between atoms: C_17  and  N_18
REMARK    7  A    between atoms: C_20  and  C_21
REMARK    8  A    between atoms: C_25  and  N_26
REMARK    9  A    between atoms: C_31  and  C_32
REMARK   10  A    between atoms: C_31  and  C_33
REMARK                            x       y       z     vdW  Elec       q    Type
REMARK                         _______ _______ _______ _____ _____    ______ ____
ROOT
ATOM      1  C   UNL     1      -1.609  11.561  19.553  0.00  0.00    +0.000 C 
ATOM      2  C   UNL     1      -2.752  11.570  18.828  0.00  0.00    +0.000 C 
ATOM      3  N   UNL     1      -3.792  12.414  19.216  0.00  0.00    +0.000 N 
ATOM      4  C   UNL     1      -3.797  13.204  20.366  0.00  0.00    +0.000 A 
ATOM      5  N   UNL     1      -4.907  13.917  20.625  0.00  0.00    +0.000 NA
ATOM      6  C   UNL     1      -4.916  14.712  21.724  0.00  0.00    +0.000 A 
ATOM      7  C   UNL     1      -3.827  14.812  22.597  0.00  0.00    +0.000 A 
ATOM      8  C   UNL     1      -2.697  14.021  22.351  0.00  0.00    +0.000 A 
ATOM      9  C   UNL     1      -2.670  13.230  21.189  0.00  0.00    +0.000 A 
ATOM     10  C   UNL     1      -1.426  12.459  20.765  0.00  0.00    +0.000 C 
ATOM     11  C   UNL     1      -3.857  15.733  23.792  0.00  0.00    +0.000 C 
ATOM     12  C   UNL     1      -4.924  16.842  23.737  0.00  0.00    +0.000 C 
ATOM     13  C   UNL     1      -4.498  17.967  22.771  0.00  0.00    +0.000 C 
ATOM     14  C   UNL     1      -5.047  17.449  25.146  0.00  0.00    +0.000 C 
ATOM     15  C   UNL     1      -6.256  16.203  23.307  0.00  0.00    +0.000 C 
ATOM     16  C   UNL     1      -6.164  15.534  21.932  0.00  0.00    +0.000 C 
ATOM     17  H   UNL     1      -4.670  12.395  18.704  0.00  0.00    +0.000 HD
ENDROOT
BRANCH  10  18
ATOM     18  C   UNL     1      -0.244  13.407  20.528  0.00  0.00    +0.000 A 
ATOM     19  C   UNL     1       0.969  13.238  21.219  0.00  0.00    +0.000 A 
ATOM     20  C   UNL     1       2.022  14.136  21.048  0.00  0.00    +0.000 A 
ATOM     21  C   UNL     1       1.885  15.214  20.171  0.00  0.00    +0.000 A 
ATOM     22  C   UNL     1       0.691  15.380  19.463  0.00  0.00    +0.000 A 
ATOM     23  C   UNL     1      -0.372  14.488  19.639  0.00  0.00    +0.000 A 
BRANCH  22  24
ATOM     24  N   UNL     1       0.547  16.495  18.518  0.00  0.00    +0.000 N 
ATOM     25  O   UNL     1       1.568  17.121  18.206  0.00  0.00    +0.000 OA
ATOM     26  O   UNL     1      -0.588  16.732  18.078  0.00  0.00    +0.000 OA
ENDBRANCH  22  24
ENDBRANCH  10  18
BRANCH   2  27
ATOM     27  C   UNL     1      -2.985  10.672  17.618  0.00  0.00    +0.000 C 
ATOM     28  F   UNL     1      -4.270  10.793  17.176  0.00  0.00    +0.000 F 
ATOM     29  F   UNL     1      -2.195  10.996  16.567  0.00  0.00    +0.000 F 
ATOM     30  F   UNL     1      -2.812   9.356  17.906  0.00  0.00    +0.000 F 
ENDBRANCH   2  27
BRANCH   8  31
ATOM     31  N   UNL     1      -1.735  13.848  23.365  0.00  0.00    +0.000 N 
ATOM     32  H   UNL     1      -2.078  13.927  24.315  0.00  0.00    +0.000 HD
ATOM     33  H   UNL     1      -0.860  14.338  23.255  0.00  0.00    +0.000 HD
ENDBRANCH   8  31
BRANCH   1  34
ATOM     34  C   UNL     1      -0.478  10.660  19.210  0.00  0.00    +0.000 C 
ATOM     35  O   UNL     1       0.278  10.807  18.268  0.00  0.00    +0.000 OA
BRANCH  34  36
ATOM     36  O   UNL     1      -0.492   9.608  20.061  0.00  0.00    +0.000 OA
BRANCH  36  38
ATOM     37  C   UNL     1       0.268   9.473  22.292  0.00  0.00    +0.000 C 
ATOM     38  C   UNL     1       0.691   9.413  20.837  0.00  0.00    +0.000 C 
ENDBRANCH  36  38
ENDBRANCH  34  36
ENDBRANCH   1  34
TORSDOF 7
ENDMDL
MODEL 4
REMARK VINA RESULT:      -6.1      8.970     11.219
REMARK  Name = 
REMARK  10 active torsions:
REMARK  status: ('A' for Active; 'I' for Inactive)
REMARK    1  A    between atoms: C_1  and  C_2
REMARK    2  A    between atoms: C_2  and  O_3
REMARK    3  A    between atoms: O_3  and  C_4
REMARK    4  A    between atoms: C_4  and  C_6
REMARK    5  A    between atoms: C_7  and  C_8
REMARK    6  A    between atoms: C_17  and  N_18
REMARK    7  A    between atoms: C_20  and  C_21
REMARK    8  A    between atoms: C_25  and  N_26
REMARK    9  A    between atoms: C_31  and  C_32
REMARK   10  A    between atoms: C_31  and  C_33
REMARK                            x       y       z     vdW  Elec       q    Type
REMARK                         _______ _______ _______ _____ _____    ______ ____
ROOT
ATOM      1  C   UNL     1      -1.562  11.705  19.574  0.00  0.00    +0.000 C 
ATOM      2  C   UNL     1      -2.739  11.626  18.911  0.00  0.00    +0.000 C 
ATOM      3  N   UNL     1      -3.807  12.417  19.333  0.00  0.00    +0.000 N 
ATOM      4  C   UNL     1      -3.801  13.235  20.464  0.00  0.00    +0.000 A 
ATOM      5  N   UNL     1      -4.938  13.887  20.766  0.00  0.00    +0.000 NA
ATOM      6  C   UNL     1      -4.937  14.708  21.845  0.00  0.00    +0.000 A 
ATOM      7  C   UNL     1      -3.813  14.896  22.656  0.00  0.00    +0.000 A 
ATOM      8  C   UNL     1      -2.651  14.167  22.368  0.00  0.00    +0.000 A 
ATOM      9  C   UNL     1      -2.637  13.349  21.226  0.00  0.00    +0.000 A 
ATOM     10  C   UNL     1      -1.371  12.643  20.754  0.00  0.00    +0.000 C 
ATOM     11  C   UNL     1      -3.837  15.844  23.830  0.00  0.00    +0.000 C 
ATOM     12  C   UNL     1      -4.971  16.886  23.806  0.00  0.00    +0.000 C 
ATOM     13  C   UNL     1      -4.665  18.009  22.793  0.00  0.00    +0.000 C 
ATOM     14  C   UNL     1      -5.058  17.520  25.206  0.00  0.00    +0.000 C 
ATOM     15  C   UNL     1      -6.282  16.157  23.462  0.00  0.00    +0.000 C 
ATOM     16  C   UNL     1      -6.221  15.460  22.100  0.00  0.00    +0.000 C 
ATOM     17  H   UNL     1      -4.708  12.332  18.870  0.00  0.00    +0.000 HD
ENDROOT
BRANCH  10  18
ATOM     18  C   UNL     1      -0.263  13.653  20.432  0.00  0.00    +0.000 A 
ATOM     19  C   UNL     1      -0.397  14.560  19.366  0.00  0.00    +0.000 A 
ATOM     20  C   UNL     1       0.637  15.436  19.037  0.00  0.00    +0.000 A 
ATOM     21  C   UNL     1       1.821  15.429  19.778  0.00  0.00    +0.000 A 
ATOM     22  C   UNL     1       1.957  14.546  20.853  0.00  0.00    +0.000 A 
ATOM     23  C   UNL     1       0.927  13.659  21.181  0.00  0.00    +0.000 A 
BRANCH  22  24
ATOM     24  N   UNL     1       3.187  14.551  21.654  0.00  0.00    +0.000 N 
ATOM     25  O   UNL     1       3.110  14.939  22.827  0.00  0.00    +0.000 OA
ATOM     26  O   UNL     1       4.228  14.151  21.111  0.00  0.00    +0.000 OA
ENDBRANCH  22  24
ENDBRANCH  10  18
BRANCH   2  27
ATOM     27  C   UNL     1      -2.980  10.684  17.736  0.00  0.00    +0.000 C 
ATOM     28  F   UNL     1      -4.258  10.811  17.279  0.00  0.00    +0.000 F 
ATOM     29  F   UNL     1      -2.176  10.953  16.679  0.00  0.00    +0.000 F 
ATOM     30  F   UNL     1      -2.831   9.379  18.077  0.00  0.00    +0.000 F 
ENDBRANCH   2  27
BRANCH   8  31
ATOM     31  N   UNL     1      -1.629  14.078  23.334  0.00  0.00    +0.000 N 
ATOM     32  H   UNL     1      -1.495  14.902  23.909  0.00  0.00    +0.000 HD
ATOM     33  H   UNL     1      -0.744  13.701  23.031  0.00  0.00    +0.000 HD
ENDBRANCH   8  31
BRANCH   1  34
ATOM     34  C   UNL     1      -0.398  10.863  19.192  0.00  0.00    +0.000 C 
ATOM     35  O   UNL     1       0.377  11.104  18.284  0.00  0.00    +0.000 OA
BRANCH  34  36
ATOM     36  O   UNL     1      -0.401   9.749  19.959  0.00  0.00    +0.000 OA
BRANCH  36  38
ATOM     37  C   UNL     1       0.216   9.596  22.232  0.00  0.00    +0.000 C 
ATOM     38  C   UNL     1       0.734   9.567  20.807  0.00  0.00    +0.000 C 
ENDBRANCH  36  38
ENDBRANCH  34  36
ENDBRANCH   1  34
TORSDOF 7
ENDMDL
MODEL 5
REMARK VINA RESULT:      -6.1      9.891     12.282
REMARK  Name = 
REMARK  10 active torsions:
REMARK  status: ('A' for Active; 'I' for Inactive)
REMARK    1  A    between atoms: C_1  and  C_2
REMARK    2  A    between atoms: C_2  and  O_3
REMARK    3  A    between atoms: O_3  and  C_4
REMARK    4  A    between atoms: C_4  and  C_6
REMARK    5  A    between atoms: C_7  and  C_8
REMARK    6  A    between atoms: C_17  and  N_18
REMARK    7  A    between atoms: C_20  and  C_21
REMARK    8  A    between atoms: C_25  and  N_26
REMARK    9  A    between atoms: C_31  and  C_32
REMARK   10  A    between atoms: C_31  and  C_33
REMARK                            x       y       z     vdW  Elec       q    Type
REMARK                         _______ _______ _______ _____ _____    ______ ____
ROOT
ATOM      1  C   UNL     1      -3.914  11.757  18.837  0.00  0.00    +0.000 C 
ATOM      2  C   UNL     1      -4.899  12.672  18.684  0.00  0.00    +0.000 C 
ATOM      3  N   UNL     1      -5.015  13.702  19.618  0.00  0.00    +0.000 N 
ATOM      4  C   UNL     1      -4.246  13.824  20.776  0.00  0.00    +0.000 A 
ATOM      5  N   UNL     1      -4.527  14.846  21.604  0.00  0.00    +0.000 NA
ATOM      6  C   UNL     1      -3.769  14.994  22.718  0.00  0.00    +0.000 A 
ATOM      7  C   UNL     1      -2.720  14.129  23.044  0.00  0.00    +0.000 A 
ATOM      8  C   UNL     1      -2.472  13.033  22.205  0.00  0.00    +0.000 A 
ATOM      9  C   UNL     1      -3.228  12.903  21.028  0.00  0.00    +0.000 A 
ATOM     10  C   UNL     1      -2.924  11.833  19.987  0.00  0.00    +0.000 C 
ATOM     11  C   UNL     1      -1.874  14.343  24.274  0.00  0.00    +0.000 C 
ATOM     12  C   UNL     1      -1.935  15.761  24.873  0.00  0.00    +0.000 C 
ATOM     13  C   UNL     1      -1.110  16.751  24.025  0.00  0.00    +0.000 C 
ATOM     14  C   UNL     1      -1.314  15.707  26.279  0.00  0.00    +0.000 C 
ATOM     15  C   UNL     1      -3.414  16.181  24.952  0.00  0.00    +0.000 C 
ATOM     16  C   UNL     1      -4.091  16.193  23.578  0.00  0.00    +0.000 C 
ATOM     17  H   UNL     1      -5.778  14.368  19.537  0.00  0.00    +0.000 HD
ENDROOT
BRANCH  10  18
ATOM     18  C   UNL     1      -1.503  11.990  19.432  0.00  0.00    +0.000 A 
ATOM     19  C   UNL     1      -1.014  13.249  19.043  0.00  0.00    +0.000 A 
ATOM     20  C   UNL     1       0.256  13.382  18.481  0.00  0.00    +0.000 A 
ATOM     21  C   UNL     1       1.065  12.256  18.312  0.00  0.00    +0.000 A 
ATOM     22  C   UNL     1       0.597  11.002  18.715  0.00  0.00    +0.000 A 
ATOM     23  C   UNL     1      -0.679  10.862  19.269  0.00  0.00    +0.000 A 
BRANCH  22  24
ATOM     24  N   UNL     1       1.452   9.818  18.566  0.00  0.00    +0.000 N 
ATOM     25  O   UNL     1       1.454   8.988  19.485  0.00  0.00    +0.000 OA
ATOM     26  O   UNL     1       2.110   9.712  17.520  0.00  0.00    +0.000 OA
ENDBRANCH  22  24
ENDBRANCH  10  18
BRANCH   2  27
ATOM     27  C   UNL     1      -5.924  12.623  17.557  0.00  0.00    +0.000 C 
ATOM     28  F   UNL     1      -6.747  13.710  17.613  0.00  0.00    +0.000 F 
ATOM     29  F   UNL     1      -5.353  12.650  16.329  0.00  0.00    +0.000 F 
ATOM     30  F   UNL     1      -6.734  11.536  17.638  0.00  0.00    +0.000 F 
ENDBRANCH   2  27
BRANCH   8  31
ATOM     31  N   UNL     1      -1.660  11.977  22.663  0.00  0.00    +0.000 N 
ATOM     32  H   UNL     1      -1.484  11.958  23.662  0.00  0.00    +0.000 HD
ATOM     33  H   UNL     1      -0.816  11.789  22.144  0.00  0.00    +0.000 HD
ENDBRANCH   8  31
BRANCH   1  34
ATOM     34  C   UNL     1      -3.759  10.618  17.893  0.00  0.00    +0.000 C 
ATOM     35  O   UNL     1      -4.144   9.481  18.094  0.00  0.00    +0.000 OA
BRANCH  34  36
ATOM     36  O   UNL     1      -3.042  11.038  16.825  0.00  0.00    +0.000 OA
BRANCH  36  38
ATOM     37  C   UNL     1      -3.301  10.193  14.636  0.00  0.00    +0.000 C 
ATOM     38  C   UNL     1      -2.564  10.015  15.950  0.00  0.00    +0.000 C 
ENDBRANCH  36  38
ENDBRANCH  34  36
ENDBRANCH   1  34
TORSDOF 7
ENDMDL
MODEL 6
REMARK VINA RESULT:      -6.0      9.426     11.401
REMARK  Name = 
REMARK  10 active torsions:
REMARK  status: ('A' for Active; 'I' for Inactive)
REMARK    1  A    between atoms: C_1  and  C_2
REMARK    2  A    between atoms: C_2  and  O_3
REMARK    3  A    between atoms: O_3  and  C_4
REMARK    4  A    between atoms: C_4  and  C_6
REMARK    5  A    between atoms: C_7  and  C_8
REMARK    6  A    between atoms: C_17  and  N_18
REMARK    7  A    between atoms: C_20  and  C_21
REMARK    8  A    between atoms: C_25  and  N_26
REMARK    9  A    between atoms: C_31  and  C_32
REMARK   10  A    between atoms: C_31  and  C_33
REMARK                            x       y       z     vdW  Elec       q    Type
REMARK                         _______ _______ _______ _____ _____    ______ ____
ROOT
ATOM      1  C   UNL     1      -0.505  11.119  20.828  0.00  0.00    +0.000 C 
ATOM      2  C   UNL     1      -0.618  10.710  22.114  0.00  0.00    +0.000 C 
ATOM      3  N   UNL     1      -1.361  11.482  23.006  0.00  0.00    +0.000 N 
ATOM      4  C   UNL     1      -1.938  12.717  22.709  0.00  0.00    +0.000 A 
ATOM      5  N   UNL     1      -2.573  13.362  23.704  0.00  0.00    +0.000 NA
ATOM      6  C   UNL     1      -3.164  14.550  23.423  0.00  0.00    +0.000 A 
ATOM      7  C   UNL     1      -3.131  15.132  22.151  0.00  0.00    +0.000 A 
ATOM      8  C   UNL     1      -2.417  14.482  21.136  0.00  0.00    +0.000 A 
ATOM      9  C   UNL     1      -1.841  13.230  21.414  0.00  0.00    +0.000 A 
ATOM     10  C   UNL     1      -1.181  12.386  20.332  0.00  0.00    +0.000 C 
ATOM     11  C   UNL     1      -3.828  16.439  21.864  0.00  0.00    +0.000 C 
ATOM     12  C   UNL     1      -4.909  16.842  22.884  0.00  0.00    +0.000 C 
ATOM     13  C   UNL     1      -6.194  16.012  22.681  0.00  0.00    +0.000 C 
ATOM     14  C   UNL     1      -5.258  18.321  22.643  0.00  0.00    +0.000 C 
ATOM     15  C   UNL     1      -4.330  16.648  24.297  0.00  0.00    +0.000 C 
ATOM     16  C   UNL     1      -3.913  15.198  24.562  0.00  0.00    +0.000 C 
ATOM     17  H   UNL     1      -1.415  11.207  23.983  0.00  0.00    +0.000 HD
ENDROOT
BRANCH  10  18
ATOM     18  C   UNL     1      -2.178  12.034  19.221  0.00  0.00    +0.000 A 
ATOM     19  C   UNL     1      -1.743  11.813  17.902  0.00  0.00    +0.000 A 
ATOM     20  C   UNL     1      -2.657  11.554  16.881  0.00  0.00    +0.000 A 
ATOM     21  C   UNL     1      -4.023  11.497  17.164  0.00  0.00    +0.000 A 
ATOM     22  C   UNL     1      -4.465  11.694  18.476  0.00  0.00    +0.000 A 
ATOM     23  C   UNL     1      -3.554  11.965  19.501  0.00  0.00    +0.000 A 
BRANCH  22  24
ATOM     24  N   UNL     1      -5.897  11.609  18.788  0.00  0.00    +0.000 N 
ATOM     25  O   UNL     1      -6.385  12.493  19.505  0.00  0.00    +0.000 OA
ATOM     26  O   UNL     1      -6.535  10.663  18.302  0.00  0.00    +0.000 OA
ENDBRANCH  22  24
ENDBRANCH  10  18
BRANCH   2  27
ATOM     27  C   UNL     1       0.060   9.458  22.659  0.00  0.00    +0.000 C 
ATOM     28  F   UNL     1      -0.061   9.404  24.017  0.00  0.00    +0.000 F 
ATOM     29  F   UNL     1      -0.498   8.316  22.189  0.00  0.00    +0.000 F 
ATOM     30  F   UNL     1       1.392   9.432  22.400  0.00  0.00    +0.000 F 
ENDBRANCH   2  27
BRANCH   8  31
ATOM     31  N   UNL     1      -2.088  15.182  19.959  0.00  0.00    +0.000 N 
ATOM     32  H   UNL     1      -2.863  15.391  19.339  0.00  0.00    +0.000 HD
ATOM     33  H   UNL     1      -1.288  14.855  19.439  0.00  0.00    +0.000 HD
ENDBRANCH   8  31
BRANCH   1  34
ATOM     34  C   UNL     1       0.301  10.357  19.839  0.00  0.00    +0.000 C 
ATOM     35  O   UNL     1      -0.026   9.301  19.330  0.00  0.00    +0.000 OA
BRANCH  34  36
ATOM     36  O   UNL     1       1.488  10.985  19.675  0.00  0.00    +0.000 OA
BRANCH  36  38
ATOM     37  C   UNL     1       2.302  12.675  18.242  0.00  0.00    +0.000 C 
ATOM     38  C   UNL     1       1.894  11.217  18.325  0.00  0.00    +0.000 C 
ENDBRANCH  36  38
ENDBRANCH  34  36
ENDBRANCH   1  34
TORSDOF 7
ENDMDL
MODEL 7
REMARK VINA RESULT:      -6.0      0.851      1.298
REMARK  Name = 
REMARK  10 active torsions:
REMARK  status: ('A' for Active; 'I' for Inactive)
REMARK    1  A    between atoms: C_1  and  C_2
REMARK    2  A    between atoms: C_2  and  O_3
REMARK    3  A    between atoms: O_3  and  C_4
REMARK    4  A    between atoms: C_4  and  C_6
REMARK    5  A    between atoms: C_7  and  C_8
REMARK    6  A    between atoms: C_17  and  N_18
REMARK    7  A    between atoms: C_20  and  C_21
REMARK    8  A    between atoms: C_25  and  N_26
REMARK    9  A    between atoms: C_31  and  C_32
REMARK   10  A    between atoms: C_31  and  C_33
REMARK                            x       y       z     vdW  Elec       q    Type
REMARK                         _______ _______ _______ _____ _____    ______ ____
ROOT
ATOM      1  C   UNL     1      10.195  13.354  20.270  0.00  0.00    +0.000 C 
ATOM      2  C   UNL     1       9.768  12.070  20.220  0.00  0.00    +0.000 C 
ATOM      3  N   UNL     1       9.014  11.567  21.281  0.00  0.00    +0.000 N 
ATOM      4  C   UNL     1       8.732  12.256  22.461  0.00  0.00    +0.000 A 
ATOM      5  N   UNL     1       8.041  11.602  23.412  0.00  0.00    +0.000 NA
ATOM      6  C   UNL     1       7.735  12.269  24.552  0.00  0.00    +0.000 A 
ATOM      7  C   UNL     1       8.112  13.596  24.781  0.00  0.00    +0.000 A 
ATOM      8  C   UNL     1       8.882  14.250  23.809  0.00  0.00    +0.000 A 
ATOM      9  C   UNL     1       9.164  13.575  22.609  0.00  0.00    +0.000 A 
ATOM     10  C   UNL     1       9.861  14.262  21.441  0.00  0.00    +0.000 C 
ATOM     11  C   UNL     1       7.724  14.319  26.048  0.00  0.00    +0.000 C 
ATOM     12  C   UNL     1       6.556  13.690  26.829  0.00  0.00    +0.000 C 
ATOM     13  C   UNL     1       5.209  13.992  26.140  0.00  0.00    +0.000 C 
ATOM     14  C   UNL     1       6.526  14.328  28.229  0.00  0.00    +0.000 C 
ATOM     15  C   UNL     1       6.810  12.176  26.932  0.00  0.00    +0.000 C 
ATOM     16  C   UNL     1       6.906  11.506  25.557  0.00  0.00    +0.000 C 
ATOM     17  H   UNL     1       8.727  10.592  21.273  0.00  0.00    +0.000 HD
ENDROOT
BRANCH  10  18
ATOM     18  C   UNL     1       9.049  15.464  20.943  0.00  0.00    +0.000 A 
ATOM     19  C   UNL     1       9.589  16.762  20.969  0.00  0.00    +0.000 A 
ATOM     20  C   UNL     1       8.829  17.862  20.574  0.00  0.00    +0.000 A 
ATOM     21  C   UNL     1       7.516  17.681  20.132  0.00  0.00    +0.000 A 
ATOM     22  C   UNL     1       6.976  16.392  20.082  0.00  0.00    +0.000 A 
ATOM     23  C   UNL     1       7.731  15.287  20.487  0.00  0.00    +0.000 A 
BRANCH  22  24
ATOM     24  N   UNL     1       5.607  16.189  19.593  0.00  0.00    +0.000 N 
ATOM     25  O   UNL     1       5.459  15.873  18.405  0.00  0.00    +0.000 OA
ATOM     26  O   UNL     1       4.680  16.332  20.404  0.00  0.00    +0.000 OA
ENDBRANCH  22  24
ENDBRANCH  10  18
BRANCH   2  27
ATOM     27  C   UNL     1      10.096  11.119  19.075  0.00  0.00    +0.000 C 
ATOM     28  F   UNL     1      11.444  11.068  18.869  0.00  0.00    +0.000 F 
ATOM     29  F   UNL     1       9.708   9.846  19.326  0.00  0.00    +0.000 F 
ATOM     30  F   UNL     1       9.553  11.517  17.896  0.00  0.00    +0.000 F 
ENDBRANCH   2  27
BRANCH   8  31
ATOM     31  N   UNL     1       9.549  15.446  24.140  0.00  0.00    +0.000 N 
ATOM     32  H   UNL     1      10.545  15.363  24.306  0.00  0.00    +0.000 HD
ATOM     33  H   UNL     1       9.114  16.036  24.833  0.00  0.00    +0.000 HD
ENDBRANCH   8  31
BRANCH   1  34
ATOM     34  C   UNL     1      11.029  13.937  19.186  0.00  0.00    +0.000 C 
ATOM     35  O   UNL     1      12.237  14.079  19.228  0.00  0.00    +0.000 OA
BRANCH  34  36
ATOM     36  O   UNL     1      10.212  14.362  18.195  0.00  0.00    +0.000 OA
BRANCH  36  38
ATOM     37  C   UNL     1      10.175  16.547  17.303  0.00  0.00    +0.000 C 
ATOM     38  C   UNL     1      10.817  15.178  17.190  0.00  0.00    +0.000 C 
ENDBRANCH  36  38
ENDBRANCH  34  36
ENDBRANCH   1  34
TORSDOF 7
ENDMDL
MODEL 8
REMARK VINA RESULT:      -6.0      9.224     12.105
REMARK  Name = 
REMARK  10 active torsions:
REMARK  status: ('A' for Active; 'I' for Inactive)
REMARK    1  A    between atoms: C_1  and  C_2
REMARK    2  A    between atoms: C_2  and  O_3
REMARK    3  A    between atoms: O_3  and  C_4
REMARK    4  A    between atoms: C_4  and  C_6
REMARK    5  A    between atoms: C_7  and  C_8
REMARK    6  A    between atoms: C_17  and  N_18
REMARK    7  A    between atoms: C_20  and  C_21
REMARK    8  A    between atoms: C_25  and  N_26
REMARK    9  A    between atoms: C_31  and  C_32
REMARK   10  A    between atoms: C_31  and  C_33
REMARK                            x       y       z     vdW  Elec       q    Type
REMARK                         _______ _______ _______ _____ _____    ______ ____
ROOT
ATOM      1  C   UNL     1      -3.317  11.956  18.785  0.00  0.00    +0.000 C 
ATOM      2  C   UNL     1      -2.549  11.192  17.974  0.00  0.00    +0.000 C 
ATOM      3  N   UNL     1      -1.183  11.460  17.887  0.00  0.00    +0.000 N 
ATOM      4  C   UNL     1      -0.535  12.530  18.505  0.00  0.00    +0.000 A 
ATOM      5  N   UNL     1       0.780  12.680  18.269  0.00  0.00    +0.000 NA
ATOM      6  C   UNL     1       1.429  13.699  18.886  0.00  0.00    +0.000 A 
ATOM      7  C   UNL     1       0.789  14.598  19.745  0.00  0.00    +0.000 A 
ATOM      8  C   UNL     1      -0.594  14.468  19.939  0.00  0.00    +0.000 A 
ATOM      9  C   UNL     1      -1.259  13.388  19.334  0.00  0.00    +0.000 A 
ATOM     10  C   UNL     1      -2.726  13.085  19.614  0.00  0.00    +0.000 C 
ATOM     11  C   UNL     1       1.548  15.699  20.443  0.00  0.00    +0.000 C 
ATOM     12  C   UNL     1       3.074  15.501  20.510  0.00  0.00    +0.000 C 
ATOM     13  C   UNL     1       3.445  14.450  21.577  0.00  0.00    +0.000 C 
ATOM     14  C   UNL     1       3.705  16.842  20.925  0.00  0.00    +0.000 C 
ATOM     15  C   UNL     1       3.563  15.084  19.112  0.00  0.00    +0.000 C 
ATOM     16  C   UNL     1       2.915  13.782  18.632  0.00  0.00    +0.000 C 
ATOM     17  H   UNL     1      -0.606  10.921  17.247  0.00  0.00    +0.000 HD
ENDROOT
BRANCH  10  18
ATOM     18  C   UNL     1      -2.957  12.803  21.103  0.00  0.00    +0.000 A 
ATOM     19  C   UNL     1      -1.990  12.131  21.872  0.00  0.00    +0.000 A 
ATOM     20  C   UNL     1      -2.227  11.822  23.210  0.00  0.00    +0.000 A 
ATOM     21  C   UNL     1      -3.434  12.191  23.809  0.00  0.00    +0.000 A 
ATOM     22  C   UNL     1      -4.395  12.878  23.061  0.00  0.00    +0.000 A 
ATOM     23  C   UNL     1      -4.165  13.182  21.715  0.00  0.00    +0.000 A 
BRANCH  22  24
ATOM     24  N   UNL     1      -5.654  13.295  23.689  0.00  0.00    +0.000 N 
ATOM     25  O   UNL     1      -6.485  12.416  23.955  0.00  0.00    +0.000 OA
ATOM     26  O   UNL     1      -5.804  14.502  23.930  0.00  0.00    +0.000 OA
ENDBRANCH  22  24
ENDBRANCH  10  18
BRANCH   2  27
ATOM     27  C   UNL     1      -3.103  10.064  17.111  0.00  0.00    +0.000 C 
ATOM     28  F   UNL     1      -2.127   9.557  16.305  0.00  0.00    +0.000 F 
ATOM     29  F   UNL     1      -3.561   9.021  17.845  0.00  0.00    +0.000 F 
ATOM     30  F   UNL     1      -4.093  10.482  16.281  0.00  0.00    +0.000 F 
ENDBRANCH   2  27
BRANCH   8  31
ATOM     31  N   UNL     1      -1.317  15.529  20.519  0.00  0.00    +0.000 N 
ATOM     32  H   UNL     1      -2.171  15.794  20.040  0.00  0.00    +0.000 HD
ATOM     33  H   UNL     1      -0.791  16.344  20.796  0.00  0.00    +0.000 HD
ENDBRANCH   8  31
BRANCH   1  34
ATOM     34  C   UNL     1      -4.783  11.741  18.895  0.00  0.00    +0.000 C 
ATOM     35  O   UNL     1      -5.317  10.815  19.479  0.00  0.00    +0.000 OA
BRANCH  34  36
ATOM     36  O   UNL     1      -5.414  12.689  18.164  0.00  0.00    +0.000 OA
BRANCH  36  38
ATOM     37  C   UNL     1      -7.674  13.349  17.988  0.00  0.00    +0.000 C 
ATOM     38  C   UNL     1      -6.657  12.303  17.574  0.00  0.00    +0.000 C 
ENDBRANCH  36  38
ENDBRANCH  34  36
ENDBRANCH   1  34
TORSDOF 7
ENDMDL
MODEL 9
REMARK VINA RESULT:      -6.0      9.423     11.802
REMARK  Name = 
REMARK  10 active torsions:
REMARK  status: ('A' for Active; 'I' for Inactive)
REMARK    1  A    between atoms: C_1  and  C_2
REMARK    2  A    between atoms: C_2  and  O_3
REMARK    3  A    between atoms: O_3  and  C_4
REMARK    4  A    between atoms: C_4  and  C_6
REMARK    5  A    between atoms: C_7  and  C_8
REMARK    6  A    between atoms: C_17  and  N_18
REMARK    7  A    between atoms: C_20  and  C_21
REMARK    8  A    between atoms: C_25  and  N_26
REMARK    9  A    between atoms: C_31  and  C_32
REMARK   10  A    between atoms: C_31  and  C_33
REMARK                            x       y       z     vdW  Elec       q    Type
REMARK                         _______ _______ _______ _____ _____    ______ ____
ROOT
ATOM      1  C   UNL     1      -3.292  11.712  18.932  0.00  0.00    +0.000 C 
ATOM      2  C   UNL     1      -4.470  12.376  18.872  0.00  0.00    +0.000 C 
ATOM      3  N   UNL     1      -4.762  13.325  19.853  0.00  0.00    +0.000 N 
ATOM      4  C   UNL     1      -3.970  13.592  20.970  0.00  0.00    +0.000 A 
ATOM      5  N   UNL     1      -4.427  14.497  21.854  0.00  0.00    +0.000 NA
ATOM      6  C   UNL     1      -3.655  14.788  22.930  0.00  0.00    +0.000 A 
ATOM      7  C   UNL     1      -2.415  14.184  23.161  0.00  0.00    +0.000 A 
ATOM      8  C   UNL     1      -1.974  13.199  22.265  0.00  0.00    +0.000 A 
ATOM      9  C   UNL     1      -2.753  12.927  21.128  0.00  0.00    +0.000 A 
ATOM     10  C   UNL     1      -2.276  11.986  20.029  0.00  0.00    +0.000 C 
ATOM     11  C   UNL     1      -1.565  14.556  24.350  0.00  0.00    +0.000 C 
ATOM     12  C   UNL     1      -1.916  15.904  25.009  0.00  0.00    +0.000 C 
ATOM     13  C   UNL     1      -1.397  17.082  24.158  0.00  0.00    +0.000 C 
ATOM     14  C   UNL     1      -1.210  15.959  26.375  0.00  0.00    +0.000 C 
ATOM     15  C   UNL     1      -3.443  15.965  25.187  0.00  0.00    +0.000 C 
ATOM     16  C   UNL     1      -4.191  15.855  23.854  0.00  0.00    +0.000 C 
ATOM     17  H   UNL     1      -5.662  13.796  19.842  0.00  0.00    +0.000 HD
ENDROOT
BRANCH  10  18
ATOM     18  C   UNL     1      -0.968  12.486  19.403  0.00  0.00    +0.000 A 
ATOM     19  C   UNL     1       0.067  11.591  19.077  0.00  0.00    +0.000 A 
ATOM     20  C   UNL     1       1.279  12.053  18.565  0.00  0.00    +0.000 A 
ATOM     21  C   UNL     1       1.473  13.421  18.357  0.00  0.00    +0.000 A 
ATOM     22  C   UNL     1       0.444  14.318  18.658  0.00  0.00    +0.000 A 
ATOM     23  C   UNL     1      -0.770  13.860  19.181  0.00  0.00    +0.000 A 
BRANCH  22  24
ATOM     24  N   UNL     1       0.629  15.754  18.417  0.00  0.00    +0.000 N 
ATOM     25  O   UNL     1       1.788  16.183  18.348  0.00  0.00    +0.000 OA
ATOM     26  O   UNL     1      -0.389  16.449  18.283  0.00  0.00    +0.000 OA
ENDBRANCH  22  24
ENDBRANCH  10  18
BRANCH   2  27
ATOM     27  C   UNL     1      -5.525  12.119  17.803  0.00  0.00    +0.000 C 
ATOM     28  F   UNL     1      -6.725  12.646  18.181  0.00  0.00    +0.000 F 
ATOM     29  F   UNL     1      -5.219  12.699  16.617  0.00  0.00    +0.000 F 
ATOM     30  F   UNL     1      -5.746  10.796  17.598  0.00  0.00    +0.000 F 
ENDBRANCH   2  27
BRANCH   8  31
ATOM     31  N   UNL     1      -0.913  12.350  22.634  0.00  0.00    +0.000 N 
ATOM     32  H   UNL     1      -0.371  12.645  23.439  0.00  0.00    +0.000 HD
ATOM     33  H   UNL     1      -0.310  12.021  21.895  0.00  0.00    +0.000 HD
ENDBRANCH   8  31
BRANCH   1  34
ATOM     34  C   UNL     1      -2.938  10.668  17.936  0.00  0.00    +0.000 C 
ATOM     35  O   UNL     1      -2.844   9.476  18.169  0.00  0.00    +0.000 OA
BRANCH  34  36
ATOM     36  O   UNL     1      -2.650  11.272  16.761  0.00  0.00    +0.000 OA
BRANCH  36  38
ATOM     37  C   UNL     1      -3.734  10.403  14.852  0.00  0.00    +0.000 C 
ATOM     38  C   UNL     1      -2.441  10.406  15.644  0.00  0.00    +0.000 C 
ENDBRANCH  36  38
ENDBRANCH  34  36
ENDBRANCH   1  34
TORSDOF 7
ENDMDL
