MODEL 1
REMARK VINA RESULT:      -7.3      0.000      0.000
REMARK  Name = 
REMARK  5 active torsions:
REMARK  status: ('A' for Active; 'I' for Inactive)
REMARK    1  A    between atoms: C_6  and  C_7
REMARK    2  A    between atoms: C_17  and  C_18
REMARK    3  A    between atoms: C_18  and  O_19
REMARK    4  A    between atoms: C_21  and  N_22
REMARK    5  A    between atoms: N_22  and  C_23
REMARK                            x       y       z     vdW  Elec       q    Type
REMARK                         _______ _______ _______ _____ _____    ______ ____
ROOT
ATOM      1  O   UNL     1       0.364   2.591  18.906  0.00  0.00    +0.000 OA
ATOM      2  C   UNL     1       1.513   2.480  18.520  0.00  0.00    +0.000 C 
ATOM      3  N   UNL     1       2.285   1.381  18.552  0.00  0.00    +0.000 N 
ATOM      4  C   UNL     1       3.526   1.660  18.101  0.00  0.00    +0.000 C 
ATOM      5  O   UNL     1       4.434   0.851  18.047  0.00  0.00    +0.000 OA
ATOM      6  C   UNL     1       3.559   3.096  17.706  0.00  0.00    +0.000 C 
ATOM      7  C   UNL     1       2.315   3.572  17.914  0.00  0.00    +0.000 C 
ATOM      8  H   UNL     1       1.994   0.486  18.903  0.00  0.00    +0.000 HD
ENDROOT
BRANCH   6   9
ATOM      9  C   UNL     1       4.709   3.783  17.212  0.00  0.00    +0.000 A 
ATOM     10  C   UNL     1       5.088   3.890  15.894  0.00  0.00    +0.000 A 
ATOM     11  N   UNL     1       6.221   4.643  15.838  0.00  0.00    +0.000 N 
ATOM     12  C   UNL     1       6.607   5.095  17.055  0.00  0.00    +0.000 A 
ATOM     13  C   UNL     1       7.662   5.931  17.438  0.00  0.00    +0.000 A 
ATOM     14  C   UNL     1       7.793   6.229  18.797  0.00  0.00    +0.000 A 
ATOM     15  C   UNL     1       6.929   5.681  19.737  0.00  0.00    +0.000 A 
ATOM     16  C   UNL     1       5.904   4.817  19.337  0.00  0.00    +0.000 A 
ATOM     17  C   UNL     1       5.700   4.532  17.967  0.00  0.00    +0.000 A 
ATOM     18  C   UNL     1       6.756   4.812  14.502  0.00  0.00    +0.000 C 
ATOM     19  C   UNL     1       5.627   4.256  13.607  0.00  0.00    +0.000 C 
ATOM     20  C   UNL     1       4.672   3.460  14.541  0.00  0.00    +0.000 C 
BRANCH  19  21
ATOM     21  C   UNL     1       6.174   3.390  12.482  0.00  0.00    +0.000 C 
BRANCH  21  22
ATOM     22  O   UNL     1       7.241   4.065  11.826  0.00  0.00    +0.000 OA
ATOM     23  H   UNL     1       8.063   3.844  12.295  0.00  0.00    +0.000 HD
ENDBRANCH  21  22
ENDBRANCH  19  21
ENDBRANCH   6   9
BRANCH   7  24
ATOM     24  N   UNL     1       1.719   4.798  17.704  0.00  0.00    +0.000 N 
ATOM     25  H   UNL     1       1.762   5.092  16.726  0.00  0.00    +0.000 HD
BRANCH  24  26
ATOM     26  C   UNL     1       1.820   5.909  18.575  0.00  0.00    +0.000 A 
ATOM     27  C   UNL     1       1.647   5.819  19.962  0.00  0.00    +0.000 A 
ATOM     28  C   UNL     1       1.715   6.955  20.772  0.00  0.00    +0.000 A 
ATOM     29  C   UNL     1       1.941   8.204  20.202  0.00  0.00    +0.000 A 
ATOM     30  C   UNL     1       2.092   8.317  18.823  0.00  0.00    +0.000 A 
ATOM     31  C   UNL     1       2.030   7.177  18.016  0.00  0.00    +0.000 A 
ENDBRANCH  24  26
ENDBRANCH   7  24
TORSDOF 5
ENDMDL
MODEL 2
REMARK VINA RESULT:      -7.3      0.456      1.015
REMARK  Name = 
REMARK  5 active torsions:
REMARK  status: ('A' for Active; 'I' for Inactive)
REMARK    1  A    between atoms: C_6  and  C_7
REMARK    2  A    between atoms: C_17  and  C_18
REMARK    3  A    between atoms: C_18  and  O_19
REMARK    4  A    between atoms: C_21  and  N_22
REMARK    5  A    between atoms: N_22  and  C_23
REMARK                            x       y       z     vdW  Elec       q    Type
REMARK                         _______ _______ _______ _____ _____    ______ ____
ROOT
ATOM      1  O   UNL     1       0.372   2.656  18.763  0.00  0.00    +0.000 OA
ATOM      2  C   UNL     1       1.532   2.538  18.412  0.00  0.00    +0.000 C 
ATOM      3  N   UNL     1       2.304   1.441  18.490  0.00  0.00    +0.000 N 
ATOM      4  C   UNL     1       3.557   1.713  18.069  0.00  0.00    +0.000 C 
ATOM      5  O   UNL     1       4.466   0.904  18.058  0.00  0.00    +0.000 OA
ATOM      6  C   UNL     1       3.599   3.139  17.643  0.00  0.00    +0.000 C 
ATOM      7  C   UNL     1       2.350   3.618  17.806  0.00  0.00    +0.000 C 
ATOM      8  H   UNL     1       2.003   0.554  18.852  0.00  0.00    +0.000 HD
ENDROOT
BRANCH   6   9
ATOM      9  C   UNL     1       4.763   3.817  17.168  0.00  0.00    +0.000 A 
ATOM     10  C   UNL     1       5.169   3.912  15.858  0.00  0.00    +0.000 A 
ATOM     11  N   UNL     1       6.306   4.659  15.819  0.00  0.00    +0.000 N 
ATOM     12  C   UNL     1       6.669   5.120  17.039  0.00  0.00    +0.000 A 
ATOM     13  C   UNL     1       7.720   5.955  17.437  0.00  0.00    +0.000 A 
ATOM     14  C   UNL     1       7.825   6.263  18.796  0.00  0.00    +0.000 A 
ATOM     15  C   UNL     1       6.938   5.727  19.723  0.00  0.00    +0.000 A 
ATOM     16  C   UNL     1       5.919   4.864  19.309  0.00  0.00    +0.000 A 
ATOM     17  C   UNL     1       5.742   4.569  17.937  0.00  0.00    +0.000 A 
ATOM     18  C   UNL     1       6.870   4.815  14.492  0.00  0.00    +0.000 C 
ATOM     19  C   UNL     1       5.756   4.256  13.579  0.00  0.00    +0.000 C 
ATOM     20  C   UNL     1       4.779   3.472  14.500  0.00  0.00    +0.000 C 
BRANCH  19  21
ATOM     21  C   UNL     1       6.323   3.379  12.472  0.00  0.00    +0.000 C 
BRANCH  21  22
ATOM     22  O   UNL     1       5.263   2.830  11.698  0.00  0.00    +0.000 OA
ATOM     23  H   UNL     1       4.690   2.325  12.299  0.00  0.00    +0.000 HD
ENDBRANCH  21  22
ENDBRANCH  19  21
ENDBRANCH   6   9
BRANCH   7  24
ATOM     24  N   UNL     1       1.759   4.838  17.552  0.00  0.00    +0.000 N 
ATOM     25  H   UNL     1       1.846   5.120  16.574  0.00  0.00    +0.000 HD
BRANCH  24  26
ATOM     26  C   UNL     1       1.814   5.961  18.413  0.00  0.00    +0.000 A 
ATOM     27  C   UNL     1       2.009   7.271  17.960  0.00  0.00    +0.000 A 
ATOM     28  C   UNL     1       2.097   8.338  18.857  0.00  0.00    +0.000 A 
ATOM     29  C   UNL     1       2.007   8.107  20.225  0.00  0.00    +0.000 A 
ATOM     30  C   UNL     1       1.837   6.809  20.697  0.00  0.00    +0.000 A 
ATOM     31  C   UNL     1       1.742   5.743  19.796  0.00  0.00    +0.000 A 
ENDBRANCH  24  26
ENDBRANCH   7  24
TORSDOF 5
ENDMDL
MODEL 3
REMARK VINA RESULT:      -7.2      7.036     11.619
REMARK  Name = 
REMARK  5 active torsions:
REMARK  status: ('A' for Active; 'I' for Inactive)
REMARK    1  A    between atoms: C_6  and  C_7
REMARK    2  A    between atoms: C_17  and  C_18
REMARK    3  A    between atoms: C_18  and  O_19
REMARK    4  A    between atoms: C_21  and  N_22
REMARK    5  A    between atoms: N_22  and  C_23
REMARK                            x       y       z     vdW  Elec       q    Type
REMARK                         _______ _______ _______ _____ _____    ______ ____
ROOT
ATOM      1  O   UNL     1       2.217  12.161  21.242  0.00  0.00    +0.000 OA
ATOM      2  C   UNL     1       1.228  12.578  20.667  0.00  0.00    +0.000 C 
ATOM      3  N   UNL     1       0.998  13.831  20.238  0.00  0.00    +0.000 N 
ATOM      4  C   UNL     1      -0.240  13.931  19.709  0.00  0.00    +0.000 C 
ATOM      5  O   UNL     1      -0.714  14.961  19.267  0.00  0.00    +0.000 OA
ATOM      6  C   UNL     1      -0.878  12.587  19.777  0.00  0.00    +0.000 C 
ATOM      7  C   UNL     1       0.042  11.760  20.312  0.00  0.00    +0.000 C 
ATOM      8  H   UNL     1       1.640  14.597  20.336  0.00  0.00    +0.000 HD
ENDROOT
BRANCH   6   9
ATOM      9  C   UNL     1      -2.207  12.289  19.348  0.00  0.00    +0.000 A 
ATOM     10  C   UNL     1      -3.365  12.581  20.031  0.00  0.00    +0.000 A 
ATOM     11  N   UNL     1      -4.419  12.160  19.279  0.00  0.00    +0.000 N 
ATOM     12  C   UNL     1      -4.035  11.638  18.090  0.00  0.00    +0.000 A 
ATOM     13  C   UNL     1      -4.780  11.148  17.012  0.00  0.00    +0.000 A 
ATOM     14  C   UNL     1      -4.079  10.677  15.898  0.00  0.00    +0.000 A 
ATOM     15  C   UNL     1      -2.690  10.661  15.881  0.00  0.00    +0.000 A 
ATOM     16  C   UNL     1      -1.964  11.119  16.985  0.00  0.00    +0.000 A 
ATOM     17  C   UNL     1      -2.631  11.655  18.110  0.00  0.00    +0.000 A 
ATOM     18  C   UNL     1      -5.713  12.375  19.896  0.00  0.00    +0.000 C 
ATOM     19  C   UNL     1      -5.370  13.270  21.107  0.00  0.00    +0.000 C 
ATOM     20  C   UNL     1      -3.829  13.190  21.297  0.00  0.00    +0.000 C 
BRANCH  19  21
ATOM     21  C   UNL     1      -6.121  12.838  22.358  0.00  0.00    +0.000 C 
BRANCH  21  22
ATOM     22  O   UNL     1      -5.197  12.488  23.381  0.00  0.00    +0.000 OA
ATOM     23  H   UNL     1      -5.609  11.796  23.926  0.00  0.00    +0.000 HD
ENDBRANCH  21  22
ENDBRANCH  19  21
ENDBRANCH   6   9
BRANCH   7  24
ATOM     24  N   UNL     1       0.060  10.408  20.586  0.00  0.00    +0.000 N 
ATOM     25  H   UNL     1       0.053  10.211  21.588  0.00  0.00    +0.000 HD
BRANCH  24  26
ATOM     26  C   UNL     1       0.826   9.448  19.882  0.00  0.00    +0.000 A 
ATOM     27  C   UNL     1       1.415   8.334  20.494  0.00  0.00    +0.000 A 
ATOM     28  C   UNL     1       2.197   7.439  19.760  0.00  0.00    +0.000 A 
ATOM     29  C   UNL     1       2.416   7.656  18.404  0.00  0.00    +0.000 A 
ATOM     30  C   UNL     1       1.859   8.770  17.783  0.00  0.00    +0.000 A 
ATOM     31  C   UNL     1       1.071   9.660  18.519  0.00  0.00    +0.000 A 
ENDBRANCH  24  26
ENDBRANCH   7  24
TORSDOF 5
ENDMDL
MODEL 4
REMARK VINA RESULT:      -7.1      6.978     11.114
REMARK  Name = 
REMARK  5 active torsions:
REMARK  status: ('A' for Active; 'I' for Inactive)
REMARK    1  A    between atoms: C_6  and  C_7
REMARK    2  A    between atoms: C_17  and  C_18
REMARK    3  A    between atoms: C_18  and  O_19
REMARK    4  A    between atoms: C_21  and  N_22
REMARK    5  A    between atoms: N_22  and  C_23
REMARK                            x       y       z     vdW  Elec       q    Type
REMARK                         _______ _______ _______ _____ _____    ______ ____
ROOT
ATOM      1  O   UNL     1       2.259  12.784  21.320  0.00  0.00    +0.000 OA
ATOM      2  C   UNL     1       1.226  13.109  20.764  0.00  0.00    +0.000 C 
ATOM      3  N   UNL     1       0.888  14.330  20.316  0.00  0.00    +0.000 N 
ATOM      4  C   UNL     1      -0.368  14.321  19.819  0.00  0.00    +0.000 C 
ATOM      5  O   UNL     1      -0.933  15.300  19.369  0.00  0.00    +0.000 OA
ATOM      6  C   UNL     1      -0.896  12.933  19.933  0.00  0.00    +0.000 C 
ATOM      7  C   UNL     1       0.100  12.193  20.460  0.00  0.00    +0.000 C 
ATOM      8  H   UNL     1       1.470  15.146  20.379  0.00  0.00    +0.000 HD
ENDROOT
BRANCH   6   9
ATOM      9  C   UNL     1      -2.208  12.523  19.548  0.00  0.00    +0.000 A 
ATOM     10  C   UNL     1      -2.541  11.833  18.405  0.00  0.00    +0.000 A 
ATOM     11  N   UNL     1      -3.884  11.612  18.419  0.00  0.00    +0.000 N 
ATOM     12  C   UNL     1      -4.477  12.077  19.543  0.00  0.00    +0.000 A 
ATOM     13  C   UNL     1      -5.805  12.011  19.984  0.00  0.00    +0.000 A 
ATOM     14  C   UNL     1      -6.108  12.588  21.220  0.00  0.00    +0.000 A 
ATOM     15  C   UNL     1      -5.132  13.237  21.966  0.00  0.00    +0.000 A 
ATOM     16  C   UNL     1      -3.820  13.325  21.490  0.00  0.00    +0.000 A 
ATOM     17  C   UNL     1      -3.456  12.709  20.271  0.00  0.00    +0.000 A 
ATOM     18  C   UNL     1      -4.384  10.918  17.249  0.00  0.00    +0.000 C 
ATOM     19  C   UNL     1      -3.089  10.461  16.542  0.00  0.00    +0.000 C 
ATOM     20  C   UNL     1      -1.925  11.265  17.186  0.00  0.00    +0.000 C 
BRANCH  19  21
ATOM     21  C   UNL     1      -3.164  10.674  15.037  0.00  0.00    +0.000 C 
BRANCH  21  22
ATOM     22  O   UNL     1      -4.247   9.927  14.495  0.00  0.00    +0.000 OA
ATOM     23  H   UNL     1      -5.071  10.317  14.829  0.00  0.00    +0.000 HD
ENDBRANCH  21  22
ENDBRANCH  19  21
ENDBRANCH   6   9
BRANCH   7  24
ATOM     24  N   UNL     1       0.231  10.854  20.761  0.00  0.00    +0.000 N 
ATOM     25  H   UNL     1       0.419  10.691  21.752  0.00  0.00    +0.000 HD
BRANCH  24  26
ATOM     26  C   UNL     1       0.898   9.901  19.953  0.00  0.00    +0.000 A 
ATOM     27  C   UNL     1       1.067  10.047  18.571  0.00  0.00    +0.000 A 
ATOM     28  C   UNL     1       1.696   9.056  17.814  0.00  0.00    +0.000 A 
ATOM     29  C   UNL     1       2.152   7.894  18.429  0.00  0.00    +0.000 A 
ATOM     30  C   UNL     1       1.972   7.720  19.798  0.00  0.00    +0.000 A 
ATOM     31  C   UNL     1       1.348   8.717  20.554  0.00  0.00    +0.000 A 
ENDBRANCH  24  26
ENDBRANCH   7  24
TORSDOF 5
ENDMDL
MODEL 5
REMARK VINA RESULT:      -7.1      2.765      6.012
REMARK  Name = 
REMARK  5 active torsions:
REMARK  status: ('A' for Active; 'I' for Inactive)
REMARK    1  A    between atoms: C_6  and  C_7
REMARK    2  A    between atoms: C_17  and  C_18
REMARK    3  A    between atoms: C_18  and  O_19
REMARK    4  A    between atoms: C_21  and  N_22
REMARK    5  A    between atoms: N_22  and  C_23
REMARK                            x       y       z     vdW  Elec       q    Type
REMARK                         _______ _______ _______ _____ _____    ______ ____
ROOT
ATOM      1  O   UNL     1       6.926   4.277  14.938  0.00  0.00    +0.000 OA
ATOM      2  C   UNL     1       6.517   5.070  15.766  0.00  0.00    +0.000 C 
ATOM      3  N   UNL     1       7.168   6.130  16.275  0.00  0.00    +0.000 N 
ATOM      4  C   UNL     1       6.420   6.735  17.223  0.00  0.00    +0.000 C 
ATOM      5  O   UNL     1       6.780   7.705  17.862  0.00  0.00    +0.000 OA
ATOM      6  C   UNL     1       5.127   6.003  17.323  0.00  0.00    +0.000 C 
ATOM      7  C   UNL     1       5.174   5.025  16.397  0.00  0.00    +0.000 C 
ATOM      8  H   UNL     1       8.098   6.409  16.018  0.00  0.00    +0.000 HD
ENDROOT
BRANCH   6   9
ATOM      9  C   UNL     1       4.079   6.315  18.242  0.00  0.00    +0.000 A 
ATOM     10  C   UNL     1       3.261   7.420  18.194  0.00  0.00    +0.000 A 
ATOM     11  N   UNL     1       2.378   7.338  19.228  0.00  0.00    +0.000 N 
ATOM     12  C   UNL     1       2.527   6.204  19.951  0.00  0.00    +0.000 A 
ATOM     13  C   UNL     1       1.807   5.703  21.042  0.00  0.00    +0.000 A 
ATOM     14  C   UNL     1       2.205   4.473  21.573  0.00  0.00    +0.000 A 
ATOM     15  C   UNL     1       3.302   3.792  21.059  0.00  0.00    +0.000 A 
ATOM     16  C   UNL     1       4.031   4.329  19.993  0.00  0.00    +0.000 A 
ATOM     17  C   UNL     1       3.630   5.544  19.389  0.00  0.00    +0.000 A 
ATOM     18  C   UNL     1       1.468   8.462  19.321  0.00  0.00    +0.000 C 
ATOM     19  C   UNL     1       1.710   9.212  17.993  0.00  0.00    +0.000 C 
ATOM     20  C   UNL     1       3.032   8.647  17.400  0.00  0.00    +0.000 C 
BRANCH  19  21
ATOM     21  C   UNL     1       1.778  10.718  18.200  0.00  0.00    +0.000 C 
BRANCH  21  22
ATOM     22  O   UNL     1       2.577  11.312  17.184  0.00  0.00    +0.000 OA
ATOM     23  H   UNL     1       3.355  11.705  17.613  0.00  0.00    +0.000 HD
ENDBRANCH  21  22
ENDBRANCH  19  21
ENDBRANCH   6   9
BRANCH   7  24
ATOM     24  N   UNL     1       4.279   4.060  15.987  0.00  0.00    +0.000 N 
ATOM     25  H   UNL     1       3.861   4.271  15.079  0.00  0.00    +0.000 HD
BRANCH  24  26
ATOM     26  C   UNL     1       3.353   3.401  16.832  0.00  0.00    +0.000 A 
ATOM     27  C   UNL     1       2.080   3.907  17.124  0.00  0.00    +0.000 A 
ATOM     28  C   UNL     1       1.222   3.237  17.999  0.00  0.00    +0.000 A 
ATOM     29  C   UNL     1       1.632   2.056  18.609  0.00  0.00    +0.000 A 
ATOM     30  C   UNL     1       2.902   1.549  18.350  0.00  0.00    +0.000 A 
ATOM     31  C   UNL     1       3.757   2.219  17.469  0.00  0.00    +0.000 A 
ENDBRANCH  24  26
ENDBRANCH   7  24
TORSDOF 5
ENDMDL
MODEL 6
REMARK VINA RESULT:      -7.0      2.522      5.963
REMARK  Name = 
REMARK  5 active torsions:
REMARK  status: ('A' for Active; 'I' for Inactive)
REMARK    1  A    between atoms: C_6  and  C_7
REMARK    2  A    between atoms: C_17  and  C_18
REMARK    3  A    between atoms: C_18  and  O_19
REMARK    4  A    between atoms: C_21  and  N_22
REMARK    5  A    between atoms: N_22  and  C_23
REMARK                            x       y       z     vdW  Elec       q    Type
REMARK                         _______ _______ _______ _____ _____    ______ ____
ROOT
ATOM      1  O   UNL     1       7.002   5.363  14.441  0.00  0.00    +0.000 OA
ATOM      2  C   UNL     1       6.215   4.967  15.281  0.00  0.00    +0.000 C 
ATOM      3  N   UNL     1       5.730   3.722  15.426  0.00  0.00    +0.000 N 
ATOM      4  C   UNL     1       4.824   3.680  16.426  0.00  0.00    +0.000 C 
ATOM      5  O   UNL     1       4.212   2.681  16.754  0.00  0.00    +0.000 OA
ATOM      6  C   UNL     1       4.728   5.045  17.015  0.00  0.00    +0.000 C 
ATOM      7  C   UNL     1       5.616   5.807  16.347  0.00  0.00    +0.000 C 
ATOM      8  H   UNL     1       5.975   2.940  14.844  0.00  0.00    +0.000 HD
ENDROOT
BRANCH   6   9
ATOM      9  C   UNL     1       3.847   5.417  18.076  0.00  0.00    +0.000 A 
ATOM     10  C   UNL     1       3.168   6.608  18.186  0.00  0.00    +0.000 A 
ATOM     11  N   UNL     1       2.417   6.564  19.321  0.00  0.00    +0.000 N 
ATOM     12  C   UNL     1       2.516   5.378  19.966  0.00  0.00    +0.000 A 
ATOM     13  C   UNL     1       1.882   4.896  21.117  0.00  0.00    +0.000 A 
ATOM     14  C   UNL     1       2.192   3.598  21.534  0.00  0.00    +0.000 A 
ATOM     15  C   UNL     1       3.127   2.830  20.850  0.00  0.00    +0.000 A 
ATOM     16  C   UNL     1       3.777   3.346  19.724  0.00  0.00    +0.000 A 
ATOM     17  C   UNL     1       3.454   4.633  19.235  0.00  0.00    +0.000 A 
ATOM     18  C   UNL     1       1.667   7.777  19.585  0.00  0.00    +0.000 C 
ATOM     19  C   UNL     1       1.832   8.574  18.272  0.00  0.00    +0.000 C 
ATOM     20  C   UNL     1       2.992   7.900  17.487  0.00  0.00    +0.000 C 
BRANCH  19  21
ATOM     21  C   UNL     1       2.105  10.047  18.538  0.00  0.00    +0.000 C 
BRANCH  21  22
ATOM     22  O   UNL     1       2.236  10.746  17.306  0.00  0.00    +0.000 OA
ATOM     23  H   UNL     1       2.032  10.122  16.590  0.00  0.00    +0.000 HD
ENDBRANCH  21  22
ENDBRANCH  19  21
ENDBRANCH   6   9
BRANCH   7  24
ATOM     24  N   UNL     1       6.010   7.124  16.458  0.00  0.00    +0.000 N 
ATOM     25  H   UNL     1       6.058   7.597  15.553  0.00  0.00    +0.000 HD
BRANCH  24  26
ATOM     26  C   UNL     1       7.016   7.599  17.334  0.00  0.00    +0.000 A 
ATOM     27  C   UNL     1       7.643   6.796  18.295  0.00  0.00    +0.000 A 
ATOM     28  C   UNL     1       8.599   7.327  19.164  0.00  0.00    +0.000 A 
ATOM     29  C   UNL     1       8.930   8.676  19.095  0.00  0.00    +0.000 A 
ATOM     30  C   UNL     1       8.301   9.496  18.162  0.00  0.00    +0.000 A 
ATOM     31  C   UNL     1       7.349   8.960  17.289  0.00  0.00    +0.000 A 
ENDBRANCH  24  26
ENDBRANCH   7  24
TORSDOF 5
ENDMDL
MODEL 7
REMARK VINA RESULT:      -6.9      6.822     10.828
REMARK  Name = 
REMARK  5 active torsions:
REMARK  status: ('A' for Active; 'I' for Inactive)
REMARK    1  A    between atoms: C_6  and  C_7
REMARK    2  A    between atoms: C_17  and  C_18
REMARK    3  A    between atoms: C_18  and  O_19
REMARK    4  A    between atoms: C_21  and  N_22
REMARK    5  A    between atoms: N_22  and  C_23
REMARK                            x       y       z     vdW  Elec       q    Type
REMARK                         _______ _______ _______ _____ _____    ______ ____
ROOT
ATOM      1  O   UNL     1       2.093  12.168  21.348  0.00  0.00    +0.000 OA
ATOM      2  C   UNL     1       1.121  12.562  20.730  0.00  0.00    +0.000 C 
ATOM      3  N   UNL     1       0.875  13.812  20.302  0.00  0.00    +0.000 N 
ATOM      4  C   UNL     1      -0.338  13.882  19.715  0.00  0.00    +0.000 C 
ATOM      5  O   UNL     1      -0.821  14.902  19.260  0.00  0.00    +0.000 OA
ATOM      6  C   UNL     1      -0.938  12.519  19.739  0.00  0.00    +0.000 C 
ATOM      7  C   UNL     1      -0.021  11.713  20.310  0.00  0.00    +0.000 C 
ATOM      8  H   UNL     1       1.489  14.596  20.438  0.00  0.00    +0.000 HD
ENDROOT
BRANCH   6   9
ATOM      9  C   UNL     1      -2.236  12.187  19.244  0.00  0.00    +0.000 A 
ATOM     10  C   UNL     1      -2.511  11.419  18.136  0.00  0.00    +0.000 A 
ATOM     11  N   UNL     1      -3.863  11.317  18.016  0.00  0.00    +0.000 N 
ATOM     12  C   UNL     1      -4.524  11.941  19.019  0.00  0.00    +0.000 A 
ATOM     13  C   UNL     1      -5.891  12.034  19.308  0.00  0.00    +0.000 A 
ATOM     14  C   UNL     1      -6.266  12.754  20.445  0.00  0.00    +0.000 A 
ATOM     15  C   UNL     1      -5.316  13.388  21.238  0.00  0.00    +0.000 A 
ATOM     16  C   UNL     1      -3.959  13.315  20.909  0.00  0.00    +0.000 A 
ATOM     17  C   UNL     1      -3.529  12.551  19.799  0.00  0.00    +0.000 A 
ATOM     18  C   UNL     1      -4.301  10.556  16.862  0.00  0.00    +0.000 C 
ATOM     19  C   UNL     1      -2.988   9.921  16.352  0.00  0.00    +0.000 C 
ATOM     20  C   UNL     1      -1.827  10.682  17.051  0.00  0.00    +0.000 C 
BRANCH  19  21
ATOM     21  C   UNL     1      -2.882   9.989  14.836  0.00  0.00    +0.000 C 
BRANCH  21  22
ATOM     22  O   UNL     1      -3.957  10.758  14.308  0.00  0.00    +0.000 OA
ATOM     23  H   UNL     1      -4.256  10.325  13.492  0.00  0.00    +0.000 HD
ENDBRANCH  21  22
ENDBRANCH  19  21
ENDBRANCH   6   9
BRANCH   7  24
ATOM     24  N   UNL     1       0.024  10.360  20.572  0.00  0.00    +0.000 N 
ATOM     25  H   UNL     1       0.004  10.153  21.572  0.00  0.00    +0.000 HD
BRANCH  24  26
ATOM     26  C   UNL     1       0.825   9.425  19.874  0.00  0.00    +0.000 A 
ATOM     27  C   UNL     1       1.373   8.283  20.471  0.00  0.00    +0.000 A 
ATOM     28  C   UNL     1       2.192   7.414  19.745  0.00  0.00    +0.000 A 
ATOM     29  C   UNL     1       2.489   7.685  18.414  0.00  0.00    +0.000 A 
ATOM     30  C   UNL     1       1.973   8.828  17.810  0.00  0.00    +0.000 A 
ATOM     31  C   UNL     1       1.148   9.692  18.536  0.00  0.00    +0.000 A 
ENDBRANCH  24  26
ENDBRANCH   7  24
TORSDOF 5
ENDMDL
MODEL 8
REMARK VINA RESULT:      -6.9      2.703      6.070
REMARK  Name = 
REMARK  5 active torsions:
REMARK  status: ('A' for Active; 'I' for Inactive)
REMARK    1  A    between atoms: C_6  and  C_7
REMARK    2  A    between atoms: C_17  and  C_18
REMARK    3  A    between atoms: C_18  and  O_19
REMARK    4  A    between atoms: C_21  and  N_22
REMARK    5  A    between atoms: N_22  and  C_23
REMARK                            x       y       z     vdW  Elec       q    Type
REMARK                         _______ _______ _______ _____ _____    ______ ____
ROOT
ATOM      1  O   UNL     1       6.935   4.179  14.969  0.00  0.00    +0.000 OA
ATOM      2  C   UNL     1       6.518   5.003  15.762  0.00  0.00    +0.000 C 
ATOM      3  N   UNL     1       7.153   6.098  16.215  0.00  0.00    +0.000 N 
ATOM      4  C   UNL     1       6.402   6.733  17.139  0.00  0.00    +0.000 C 
ATOM      5  O   UNL     1       6.748   7.739  17.729  0.00  0.00    +0.000 OA
ATOM      6  C   UNL     1       5.123   5.983  17.285  0.00  0.00    +0.000 C 
ATOM      7  C   UNL     1       5.181   4.964  16.406  0.00  0.00    +0.000 C 
ATOM      8  H   UNL     1       8.076   6.381  15.937  0.00  0.00    +0.000 HD
ENDROOT
BRANCH   6   9
ATOM      9  C   UNL     1       4.077   6.319  18.197  0.00  0.00    +0.000 A 
ATOM     10  C   UNL     1       3.268   7.430  18.131  0.00  0.00    +0.000 A 
ATOM     11  N   UNL     1       2.384   7.373  19.165  0.00  0.00    +0.000 N 
ATOM     12  C   UNL     1       2.521   6.248  19.906  0.00  0.00    +0.000 A 
ATOM     13  C   UNL     1       1.796   5.771  21.004  0.00  0.00    +0.000 A 
ATOM     14  C   UNL     1       2.182   4.546  21.555  0.00  0.00    +0.000 A 
ATOM     15  C   UNL     1       3.274   3.848  21.053  0.00  0.00    +0.000 A 
ATOM     16  C   UNL     1       4.009   4.361  19.979  0.00  0.00    +0.000 A 
ATOM     17  C   UNL     1       3.620   5.570  19.356  0.00  0.00    +0.000 A 
ATOM     18  C   UNL     1       1.483   8.506  19.239  0.00  0.00    +0.000 C 
ATOM     19  C   UNL     1       1.735   9.232  17.899  0.00  0.00    +0.000 C 
ATOM     20  C   UNL     1       3.051   8.646  17.317  0.00  0.00    +0.000 C 
BRANCH  19  21
ATOM     21  C   UNL     1       1.815  10.741  18.083  0.00  0.00    +0.000 C 
BRANCH  21  22
ATOM     22  O   UNL     1       0.509  11.280  18.244  0.00  0.00    +0.000 OA
ATOM     23  H   UNL     1      -0.027  10.619  18.713  0.00  0.00    +0.000 HD
ENDBRANCH  21  22
ENDBRANCH  19  21
ENDBRANCH   6   9
BRANCH   7  24
ATOM     24  N   UNL     1       4.301   3.964  16.050  0.00  0.00    +0.000 N 
ATOM     25  H   UNL     1       3.878   4.120  15.134  0.00  0.00    +0.000 HD
BRANCH  24  26
ATOM     26  C   UNL     1       3.388   3.335  16.931  0.00  0.00    +0.000 A 
ATOM     27  C   UNL     1       3.656   2.125  17.584  0.00  0.00    +0.000 A 
ATOM     28  C   UNL     1       2.702   1.527  18.411  0.00  0.00    +0.000 A 
ATOM     29  C   UNL     1       1.458   2.123  18.584  0.00  0.00    +0.000 A 
ATOM     30  C   UNL     1       1.164   3.313  17.925  0.00  0.00    +0.000 A 
ATOM     31  C   UNL     1       2.123   3.914  17.103  0.00  0.00    +0.000 A 
ENDBRANCH  24  26
ENDBRANCH   7  24
TORSDOF 5
ENDMDL
MODEL 9
REMARK VINA RESULT:      -6.8      2.544      6.651
REMARK  Name = 
REMARK  5 active torsions:
REMARK  status: ('A' for Active; 'I' for Inactive)
REMARK    1  A    between atoms: C_6  and  C_7
REMARK    2  A    between atoms: C_17  and  C_18
REMARK    3  A    between atoms: C_18  and  O_19
REMARK    4  A    between atoms: C_21  and  N_22
REMARK    5  A    between atoms: N_22  and  C_23
REMARK                            x       y       z     vdW  Elec       q    Type
REMARK                         _______ _______ _______ _____ _____    ______ ____
ROOT
ATOM      1  O   UNL     1       8.004   4.216  15.881  0.00  0.00    +0.000 OA
ATOM      2  C   UNL     1       7.369   4.562  16.860  0.00  0.00    +0.000 C 
ATOM      3  N   UNL     1       7.821   4.720  18.115  0.00  0.00    +0.000 N 
ATOM      4  C   UNL     1       6.808   5.044  18.947  0.00  0.00    +0.000 C 
ATOM      5  O   UNL     1       6.935   5.221  20.144  0.00  0.00    +0.000 OA
ATOM      6  C   UNL     1       5.561   5.132  18.138  0.00  0.00    +0.000 C 
ATOM      7  C   UNL     1       5.921   4.890  16.862  0.00  0.00    +0.000 C 
ATOM      8  H   UNL     1       8.772   4.576  18.404  0.00  0.00    +0.000 HD
ENDROOT
BRANCH   6   9
ATOM      9  C   UNL     1       4.263   5.417  18.662  0.00  0.00    +0.000 A 
ATOM     10  C   UNL     1       3.506   6.533  18.393  0.00  0.00    +0.000 A 
ATOM     11  N   UNL     1       2.327   6.417  19.064  0.00  0.00    +0.000 N 
ATOM     12  C   UNL     1       2.225   5.249  19.740  0.00  0.00    +0.000 A 
ATOM     13  C   UNL     1       1.180   4.708  20.500  0.00  0.00    +0.000 A 
ATOM     14  C   UNL     1       1.379   3.450  21.075  0.00  0.00    +0.000 A 
ATOM     15  C   UNL     1       2.587   2.779  20.929  0.00  0.00    +0.000 A 
ATOM     16  C   UNL     1       3.632   3.354  20.198  0.00  0.00    +0.000 A 
ATOM     17  C   UNL     1       3.455   4.600  19.553  0.00  0.00    +0.000 A 
ATOM     18  C   UNL     1       1.435   7.548  18.897  0.00  0.00    +0.000 C 
ATOM     19  C   UNL     1       2.110   8.353  17.766  0.00  0.00    +0.000 C 
ATOM     20  C   UNL     1       3.556   7.798  17.627  0.00  0.00    +0.000 C 
BRANCH  19  21
ATOM     21  C   UNL     1       2.100   9.847  18.054  0.00  0.00    +0.000 C 
BRANCH  21  22
ATOM     22  O   UNL     1       0.840  10.402  17.694  0.00  0.00    +0.000 OA
ATOM     23  H   UNL     1       0.857  11.346  17.923  0.00  0.00    +0.000 HD
ENDBRANCH  21  22
ENDBRANCH  19  21
ENDBRANCH   6   9
BRANCH   7  24
ATOM     24  N   UNL     1       5.233   4.871  15.667  0.00  0.00    +0.000 N 
ATOM     25  H   UNL     1       4.312   4.437  15.752  0.00  0.00    +0.000 HD
BRANCH  24  26
ATOM     26  C   UNL     1       5.809   4.599  14.403  0.00  0.00    +0.000 A 
ATOM     27  C   UNL     1       5.437   3.512  13.603  0.00  0.00    +0.000 A 
ATOM     28  C   UNL     1       6.068   3.266  12.381  0.00  0.00    +0.000 A 
ATOM     29  C   UNL     1       7.096   4.097  11.949  0.00  0.00    +0.000 A 
ATOM     30  C   UNL     1       7.497   5.170  12.741  0.00  0.00    +0.000 A 
ATOM     31  C   UNL     1       6.858   5.417  13.960  0.00  0.00    +0.000 A 
ENDBRANCH  24  26
ENDBRANCH   7  24
TORSDOF 5
ENDMDL
