MODEL 1
REMARK VINA RESULT:      -7.5      0.000      0.000
REMARK  Name = 
REMARK  12 active torsions:
REMARK  status: ('A' for Active; 'I' for Inactive)
REMARK    1  A    between atoms: C_1  and  O_2
REMARK    2  A    between atoms: O_2  and  C_3
REMARK    3  A    between atoms: C_3  and  C_4
REMARK    4  A    between atoms: C_5  and  C_6
REMARK    5  A    between atoms: C_8  and  O_9
REMARK    6  A    between atoms: O_9  and  C_10
REMARK    7  A    between atoms: C_10  and  C_11
REMARK    8  A    between atoms: C_10  and  C_12
REMARK    9  A    between atoms: C_12  and  O_13
REMARK   10  A    between atoms: O_13  and  C_14
REMARK   11  A    between atoms: C_16  and  C_17
REMARK   12  A    between atoms: N_23  and  C_24
REMARK                            x       y       z     vdW  Elec       q    Type
REMARK                         _______ _______ _______ _____ _____    ______ ____
ROOT
ATOM      1  C   UNL     1       4.083   5.909  17.515  0.00  0.00    +0.000 A 
ATOM      2  C   UNL     1       3.891   5.095  18.639  0.00  0.00    +0.000 A 
ATOM      3  C   UNL     1       3.066   5.511  19.686  0.00  0.00    +0.000 A 
ATOM      4  C   UNL     1       2.492   6.777  19.650  0.00  0.00    +0.000 A 
ATOM      5  C   UNL     1       2.657   7.582  18.517  0.00  0.00    +0.000 A 
ATOM      6  C   UNL     1       3.440   7.145  17.440  0.00  0.00    +0.000 A 
ENDROOT
BRANCH   5   7
ATOM      7  C   UNL     1       1.887   8.844  18.409  0.00  0.00    +0.000 C 
ATOM      8  O   UNL     1       1.977   9.500  17.376  0.00  0.00    +0.000 OA
ATOM      9  N   UNL     1       1.158   9.183  19.530  0.00  0.00    +0.000 N 
ATOM     10  C   UNL     1       0.417  10.340  19.569  0.00  0.00    +0.000 A 
ATOM     11  C   UNL     1      -0.429  10.873  18.571  0.00  0.00    +0.000 A 
ATOM     12  C   UNL     1      -0.847  12.085  19.068  0.00  0.00    +0.000 A 
ATOM     13  N   UNL     1      -0.200  12.228  20.259  0.00  0.00    +0.000 N 
ATOM     14  C   UNL     1      -0.043  13.447  21.013  0.00  0.00    +0.000 C 
ATOM     15  N   UNL     1       0.438  11.110  20.659  0.00  0.00    +0.000 NA
ATOM     16  H   UNL     1       1.495   8.881  20.434  0.00  0.00    +0.000 HD
ENDBRANCH   5   7
BRANCH   1  18
ATOM     17  C   UNL     1       5.670   5.099  15.575  0.00  0.00    +0.000 C 
ATOM     18  C   UNL     1       4.917   5.436  16.451  0.00  0.00    +0.000 C 
BRANCH  17  19
ATOM     19  C   UNL     1       6.613   4.740  14.519  0.00  0.00    +0.000 C 
BRANCH  19  21
ATOM     20  C   UNL     1       6.517   3.647  12.429  0.00  0.00    +0.000 C 
ATOM     21  O   UNL     1       6.080   3.637  13.781  0.00  0.00    +0.000 OA
ENDBRANCH  19  21
ENDBRANCH  17  19
ENDBRANCH   1  18
BRANCH   3  22
ATOM     22  O   UNL     1       2.866   4.577  20.665  0.00  0.00    +0.000 OA
BRANCH  22  23
ATOM     23  C   UNL     1       2.257   3.323  20.294  0.00  0.00    +0.000 C 
ATOM     24  C   UNL     1       1.749   2.575  21.530  0.00  0.00    +0.000 C 
BRANCH  23  25
ATOM     25  C   UNL     1       1.057   3.645  19.389  0.00  0.00    +0.000 C 
BRANCH  25  26
ATOM     26  O   UNL     1       0.921   2.638  18.379  0.00  0.00    +0.000 OA
ATOM     27  C   UNL     1       2.189   2.222  17.890  0.00  0.00    +0.000 C 
ENDBRANCH  25  26
ENDBRANCH  23  25
ENDBRANCH  22  23
ENDBRANCH   3  22
TORSDOF 8
ENDMDL
MODEL 2
REMARK VINA RESULT:      -7.4      0.989      1.241
REMARK  Name = 
REMARK  12 active torsions:
REMARK  status: ('A' for Active; 'I' for Inactive)
REMARK    1  A    between atoms: C_1  and  O_2
REMARK    2  A    between atoms: O_2  and  C_3
REMARK    3  A    between atoms: C_3  and  C_4
REMARK    4  A    between atoms: C_5  and  C_6
REMARK    5  A    between atoms: C_8  and  O_9
REMARK    6  A    between atoms: O_9  and  C_10
REMARK    7  A    between atoms: C_10  and  C_11
REMARK    8  A    between atoms: C_10  and  C_12
REMARK    9  A    between atoms: C_12  and  O_13
REMARK   10  A    between atoms: O_13  and  C_14
REMARK   11  A    between atoms: C_16  and  C_17
REMARK   12  A    between atoms: N_23  and  C_24
REMARK                            x       y       z     vdW  Elec       q    Type
REMARK                         _______ _______ _______ _____ _____    ______ ____
ROOT
ATOM      1  C   UNL     1       3.789   6.386  17.785  0.00  0.00    +0.000 A 
ATOM      2  C   UNL     1       3.525   5.569  18.892  0.00  0.00    +0.000 A 
ATOM      3  C   UNL     1       2.622   5.974  19.876  0.00  0.00    +0.000 A 
ATOM      4  C   UNL     1       2.037   7.234  19.799  0.00  0.00    +0.000 A 
ATOM      5  C   UNL     1       2.275   8.042  18.681  0.00  0.00    +0.000 A 
ATOM      6  C   UNL     1       3.139   7.614  17.664  0.00  0.00    +0.000 A 
ENDROOT
BRANCH   5   7
ATOM      7  C   UNL     1       1.501   9.296  18.517  0.00  0.00    +0.000 C 
ATOM      8  O   UNL     1       1.721   9.997  17.535  0.00  0.00    +0.000 OA
ATOM      9  N   UNL     1       0.614   9.574  19.537  0.00  0.00    +0.000 N 
ATOM     10  C   UNL     1      -0.149  10.716  19.518  0.00  0.00    +0.000 A 
ATOM     11  C   UNL     1      -0.858  11.279  18.433  0.00  0.00    +0.000 A 
ATOM     12  C   UNL     1      -1.368  12.461  18.916  0.00  0.00    +0.000 A 
ATOM     13  N   UNL     1      -0.898  12.562  20.191  0.00  0.00    +0.000 N 
ATOM     14  C   UNL     1      -0.875  13.749  21.009  0.00  0.00    +0.000 C 
ATOM     15  N   UNL     1      -0.299  11.438  20.631  0.00  0.00    +0.000 NA
ATOM     16  H   UNL     1       0.827   9.237  20.466  0.00  0.00    +0.000 HD
ENDBRANCH   5   7
BRANCH   1  18
ATOM     17  C   UNL     1       5.456   5.459  15.968  0.00  0.00    +0.000 C 
ATOM     18  C   UNL     1       4.704   5.924  16.785  0.00  0.00    +0.000 C 
BRANCH  17  19
ATOM     19  C   UNL     1       6.366   4.843  15.005  0.00  0.00    +0.000 C 
BRANCH  19  21
ATOM     20  C   UNL     1       7.600   4.517  16.991  0.00  0.00    +0.000 C 
ATOM     21  O   UNL     1       7.668   4.757  15.592  0.00  0.00    +0.000 OA
ENDBRANCH  19  21
ENDBRANCH  17  19
ENDBRANCH   1  18
BRANCH   3  22
ATOM     22  O   UNL     1       2.360   5.037  20.838  0.00  0.00    +0.000 OA
BRANCH  22  23
ATOM     23  C   UNL     1       2.228   3.661  20.428  0.00  0.00    +0.000 C 
ATOM     24  C   UNL     1       2.526   2.713  21.592  0.00  0.00    +0.000 C 
BRANCH  23  25
ATOM     25  C   UNL     1       0.769   3.452  19.988  0.00  0.00    +0.000 C 
BRANCH  25  26
ATOM     26  O   UNL     1       0.709   2.476  18.941  0.00  0.00    +0.000 OA
ATOM     27  C   UNL     1       1.916   2.451  18.189  0.00  0.00    +0.000 C 
ENDBRANCH  25  26
ENDBRANCH  23  25
ENDBRANCH  22  23
ENDBRANCH   3  22
TORSDOF 8
ENDMDL
MODEL 3
REMARK VINA RESULT:      -7.2      1.640      2.454
REMARK  Name = 
REMARK  12 active torsions:
REMARK  status: ('A' for Active; 'I' for Inactive)
REMARK    1  A    between atoms: C_1  and  O_2
REMARK    2  A    between atoms: O_2  and  C_3
REMARK    3  A    between atoms: C_3  and  C_4
REMARK    4  A    between atoms: C_5  and  C_6
REMARK    5  A    between atoms: C_8  and  O_9
REMARK    6  A    between atoms: O_9  and  C_10
REMARK    7  A    between atoms: C_10  and  C_11
REMARK    8  A    between atoms: C_10  and  C_12
REMARK    9  A    between atoms: C_12  and  O_13
REMARK   10  A    between atoms: O_13  and  C_14
REMARK   11  A    between atoms: C_16  and  C_17
REMARK   12  A    between atoms: N_23  and  C_24
REMARK                            x       y       z     vdW  Elec       q    Type
REMARK                         _______ _______ _______ _____ _____    ______ ____
ROOT
ATOM      1  C   UNL     1       5.278   4.877  16.167  0.00  0.00    +0.000 A 
ATOM      2  C   UNL     1       5.395   4.001  17.254  0.00  0.00    +0.000 A 
ATOM      3  C   UNL     1       4.836   4.324  18.492  0.00  0.00    +0.000 A 
ATOM      4  C   UNL     1       4.226   5.562  18.671  0.00  0.00    +0.000 A 
ATOM      5  C   UNL     1       4.080   6.428  17.581  0.00  0.00    +0.000 A 
ATOM      6  C   UNL     1       4.592   6.082  16.323  0.00  0.00    +0.000 A 
ENDROOT
BRANCH   5   7
ATOM      7  C   UNL     1       3.264   7.655  17.737  0.00  0.00    +0.000 C 
ATOM      8  O   UNL     1       3.494   8.610  17.003  0.00  0.00    +0.000 OA
ATOM      9  N   UNL     1       2.325   7.609  18.748  0.00  0.00    +0.000 N 
ATOM     10  C   UNL     1       1.517   8.689  19.012  0.00  0.00    +0.000 A 
ATOM     11  C   UNL     1       0.830   9.515  18.094  0.00  0.00    +0.000 A 
ATOM     12  C   UNL     1       0.253  10.498  18.862  0.00  0.00    +0.000 A 
ATOM     13  N   UNL     1       0.666  10.248  20.137  0.00  0.00    +0.000 N 
ATOM     14  C   UNL     1       0.608  11.157  21.255  0.00  0.00    +0.000 C 
ATOM     15  N   UNL     1       1.293   9.062  20.273  0.00  0.00    +0.000 NA
ATOM     16  H   UNL     1       2.514   7.030  19.554  0.00  0.00    +0.000 HD
ENDBRANCH   5   7
BRANCH   1  18
ATOM     17  C   UNL     1       6.252   4.209  13.813  0.00  0.00    +0.000 C 
ATOM     18  C   UNL     1       5.844   4.498  14.907  0.00  0.00    +0.000 C 
BRANCH  17  19
ATOM     19  C   UNL     1       6.693   3.867  12.463  0.00  0.00    +0.000 C 
BRANCH  19  21
ATOM     20  C   UNL     1       4.580   3.191  11.655  0.00  0.00    +0.000 C 
ATOM     21  O   UNL     1       5.899   2.778  11.982  0.00  0.00    +0.000 OA
ENDBRANCH  19  21
ENDBRANCH  17  19
ENDBRANCH   1  18
BRANCH   3  22
ATOM     22  O   UNL     1       4.913   3.335  19.434  0.00  0.00    +0.000 OA
BRANCH  22  23
ATOM     23  C   UNL     1       3.716   2.590  19.735  0.00  0.00    +0.000 C 
ATOM     24  C   UNL     1       3.530   1.432  18.751  0.00  0.00    +0.000 C 
BRANCH  23  25
ATOM     25  C   UNL     1       3.881   2.008  21.149  0.00  0.00    +0.000 C 
BRANCH  25  26
ATOM     26  O   UNL     1       2.802   2.442  21.986  0.00  0.00    +0.000 OA
ATOM     27  C   UNL     1       2.125   3.556  21.419  0.00  0.00    +0.000 C 
ENDBRANCH  25  26
ENDBRANCH  23  25
ENDBRANCH  22  23
ENDBRANCH   3  22
TORSDOF 8
ENDMDL
MODEL 4
REMARK VINA RESULT:      -7.2      4.725      7.441
REMARK  Name = 
REMARK  12 active torsions:
REMARK  status: ('A' for Active; 'I' for Inactive)
REMARK    1  A    between atoms: C_1  and  O_2
REMARK    2  A    between atoms: O_2  and  C_3
REMARK    3  A    between atoms: C_3  and  C_4
REMARK    4  A    between atoms: C_5  and  C_6
REMARK    5  A    between atoms: C_8  and  O_9
REMARK    6  A    between atoms: O_9  and  C_10
REMARK    7  A    between atoms: C_10  and  C_11
REMARK    8  A    between atoms: C_10  and  C_12
REMARK    9  A    between atoms: C_12  and  O_13
REMARK   10  A    between atoms: O_13  and  C_14
REMARK   11  A    between atoms: C_16  and  C_17
REMARK   12  A    between atoms: N_23  and  C_24
REMARK                            x       y       z     vdW  Elec       q    Type
REMARK                         _______ _______ _______ _____ _____    ______ ____
ROOT
ATOM      1  C   UNL     1       7.005   6.735  17.181  0.00  0.00    +0.000 A 
ATOM      2  C   UNL     1       7.500   6.012  16.089  0.00  0.00    +0.000 A 
ATOM      3  C   UNL     1       6.825   4.885  15.616  0.00  0.00    +0.000 A 
ATOM      4  C   UNL     1       5.694   4.429  16.284  0.00  0.00    +0.000 A 
ATOM      5  C   UNL     1       5.178   5.164  17.357  0.00  0.00    +0.000 A 
ATOM      6  C   UNL     1       5.823   6.326  17.800  0.00  0.00    +0.000 A 
ENDROOT
BRANCH   5   7
ATOM      7  C   UNL     1       3.870   4.776  17.937  0.00  0.00    +0.000 C 
ATOM      8  O   UNL     1       2.909   5.518  17.767  0.00  0.00    +0.000 OA
ATOM      9  N   UNL     1       3.877   3.603  18.665  0.00  0.00    +0.000 N 
ATOM     10  C   UNL     1       2.735   3.141  19.273  0.00  0.00    +0.000 A 
ATOM     11  C   UNL     1       1.425   3.081  18.747  0.00  0.00    +0.000 A 
ATOM     12  C   UNL     1       0.643   2.636  19.787  0.00  0.00    +0.000 A 
ATOM     13  N   UNL     1       1.490   2.522  20.850  0.00  0.00    +0.000 N 
ATOM     14  C   UNL     1       1.117   2.406  22.238  0.00  0.00    +0.000 C 
ATOM     15  N   UNL     1       2.788   2.661  20.517  0.00  0.00    +0.000 NA
ATOM     16  H   UNL     1       4.731   3.332  19.133  0.00  0.00    +0.000 HD
ENDBRANCH   5   7
BRANCH   1  18
ATOM     17  C   UNL     1       8.251   8.924  17.954  0.00  0.00    +0.000 C 
ATOM     18  C   UNL     1       7.713   7.899  17.621  0.00  0.00    +0.000 C 
BRANCH  17  19
ATOM     19  C   UNL     1       8.869  10.195  18.320  0.00  0.00    +0.000 C 
BRANCH  19  21
ATOM     20  C   UNL     1       9.725  11.372  20.178  0.00  0.00    +0.000 C 
ATOM     21  O   UNL     1       9.357  10.101  19.661  0.00  0.00    +0.000 OA
ENDBRANCH  19  21
ENDBRANCH  17  19
ENDBRANCH   1  18
BRANCH   3  22
ATOM     22  O   UNL     1       7.344   4.342  14.472  0.00  0.00    +0.000 OA
BRANCH  22  23
ATOM     23  C   UNL     1       6.765   4.734  13.211  0.00  0.00    +0.000 C 
ATOM     24  C   UNL     1       7.836   5.288  12.267  0.00  0.00    +0.000 C 
BRANCH  23  25
ATOM     25  C   UNL     1       6.154   3.475  12.574  0.00  0.00    +0.000 C 
BRANCH  25  26
ATOM     26  O   UNL     1       4.741   3.643  12.414  0.00  0.00    +0.000 OA
ATOM     27  C   UNL     1       4.270   2.972  11.252  0.00  0.00    +0.000 C 
ENDBRANCH  25  26
ENDBRANCH  23  25
ENDBRANCH  22  23
ENDBRANCH   3  22
TORSDOF 8
ENDMDL
MODEL 5
REMARK VINA RESULT:      -7.2      0.842      1.299
REMARK  Name = 
REMARK  12 active torsions:
REMARK  status: ('A' for Active; 'I' for Inactive)
REMARK    1  A    between atoms: C_1  and  O_2
REMARK    2  A    between atoms: O_2  and  C_3
REMARK    3  A    between atoms: C_3  and  C_4
REMARK    4  A    between atoms: C_5  and  C_6
REMARK    5  A    between atoms: C_8  and  O_9
REMARK    6  A    between atoms: O_9  and  C_10
REMARK    7  A    between atoms: C_10  and  C_11
REMARK    8  A    between atoms: C_10  and  C_12
REMARK    9  A    between atoms: C_12  and  O_13
REMARK   10  A    between atoms: O_13  and  C_14
REMARK   11  A    between atoms: C_16  and  C_17
REMARK   12  A    between atoms: N_23  and  C_24
REMARK                            x       y       z     vdW  Elec       q    Type
REMARK                         _______ _______ _______ _____ _____    ______ ____
ROOT
ATOM      1  C   UNL     1       4.050   6.107  17.487  0.00  0.00    +0.000 A 
ATOM      2  C   UNL     1       3.814   5.239  18.560  0.00  0.00    +0.000 A 
ATOM      3  C   UNL     1       2.945   5.602  19.590  0.00  0.00    +0.000 A 
ATOM      4  C   UNL     1       2.370   6.868  19.593  0.00  0.00    +0.000 A 
ATOM      5  C   UNL     1       2.580   7.728  18.509  0.00  0.00    +0.000 A 
ATOM      6  C   UNL     1       3.408   7.345  17.446  0.00  0.00    +0.000 A 
ENDROOT
BRANCH   5   7
ATOM      7  C   UNL     1       1.812   8.994  18.432  0.00  0.00    +0.000 C 
ATOM      8  O   UNL     1       1.918   9.684  17.423  0.00  0.00    +0.000 OA
ATOM      9  N   UNL     1       1.065   9.296  19.553  0.00  0.00    +0.000 N 
ATOM     10  C   UNL     1       0.324  10.451  19.619  0.00  0.00    +0.000 A 
ATOM     11  C   UNL     1      -0.506  11.018  18.626  0.00  0.00    +0.000 A 
ATOM     12  C   UNL     1      -0.932  12.213  19.157  0.00  0.00    +0.000 A 
ATOM     13  N   UNL     1      -0.304  12.315  20.362  0.00  0.00    +0.000 N 
ATOM     14  C   UNL     1      -0.158  13.508  21.159  0.00  0.00    +0.000 C 
ATOM     15  N   UNL     1       0.328  11.184  20.735  0.00  0.00    +0.000 NA
ATOM     16  H   UNL     1       1.388   8.962  20.450  0.00  0.00    +0.000 HD
ENDBRANCH   5   7
BRANCH   1  18
ATOM     17  C   UNL     1       5.726   5.326  15.610  0.00  0.00    +0.000 C 
ATOM     18  C   UNL     1       4.930   5.689  16.436  0.00  0.00    +0.000 C 
BRANCH  17  19
ATOM     19  C   UNL     1       6.736   4.892  14.648  0.00  0.00    +0.000 C 
BRANCH  19  21
ATOM     20  C   UNL     1       6.346   3.644  12.683  0.00  0.00    +0.000 C 
ATOM     21  O   UNL     1       6.340   3.630  14.103  0.00  0.00    +0.000 OA
ENDBRANCH  19  21
ENDBRANCH  17  19
ENDBRANCH   1  18
BRANCH   3  22
ATOM     22  O   UNL     1       2.706   4.620  20.513  0.00  0.00    +0.000 OA
BRANCH  22  23
ATOM     23  C   UNL     1       1.408   3.991  20.514  0.00  0.00    +0.000 C 
ATOM     24  C   UNL     1       1.053   3.469  19.119  0.00  0.00    +0.000 C 
BRANCH  23  25
ATOM     25  C   UNL     1       1.477   2.797  21.481  0.00  0.00    +0.000 C 
BRANCH  25  26
ATOM     26  O   UNL     1       2.804   2.668  22.006  0.00  0.00    +0.000 OA
ATOM     27  C   UNL     1       3.638   1.928  21.124  0.00  0.00    +0.000 C 
ENDBRANCH  25  26
ENDBRANCH  23  25
ENDBRANCH  22  23
ENDBRANCH   3  22
TORSDOF 8
ENDMDL
MODEL 6
REMARK VINA RESULT:      -7.1      1.347      1.636
REMARK  Name = 
REMARK  12 active torsions:
REMARK  status: ('A' for Active; 'I' for Inactive)
REMARK    1  A    between atoms: C_1  and  O_2
REMARK    2  A    between atoms: O_2  and  C_3
REMARK    3  A    between atoms: C_3  and  C_4
REMARK    4  A    between atoms: C_5  and  C_6
REMARK    5  A    between atoms: C_8  and  O_9
REMARK    6  A    between atoms: O_9  and  C_10
REMARK    7  A    between atoms: C_10  and  C_11
REMARK    8  A    between atoms: C_10  and  C_12
REMARK    9  A    between atoms: C_12  and  O_13
REMARK   10  A    between atoms: O_13  and  C_14
REMARK   11  A    between atoms: C_16  and  C_17
REMARK   12  A    between atoms: N_23  and  C_24
REMARK                            x       y       z     vdW  Elec       q    Type
REMARK                         _______ _______ _______ _____ _____    ______ ____
ROOT
ATOM      1  C   UNL     1       3.683   6.628  17.859  0.00  0.00    +0.000 A 
ATOM      2  C   UNL     1       3.396   5.773  18.931  0.00  0.00    +0.000 A 
ATOM      3  C   UNL     1       2.434   6.120  19.881  0.00  0.00    +0.000 A 
ATOM      4  C   UNL     1       1.811   7.362  19.809  0.00  0.00    +0.000 A 
ATOM      5  C   UNL     1       2.072   8.207  18.725  0.00  0.00    +0.000 A 
ATOM      6  C   UNL     1       2.997   7.837  17.739  0.00  0.00    +0.000 A 
ENDROOT
BRANCH   5   7
ATOM      7  C   UNL     1       1.264   9.439  18.557  0.00  0.00    +0.000 C 
ATOM      8  O   UNL     1       0.470   9.498  17.625  0.00  0.00    +0.000 OA
ATOM      9  N   UNL     1       1.524  10.439  19.473  0.00  0.00    +0.000 N 
ATOM     10  C   UNL     1       0.859  11.640  19.416  0.00  0.00    +0.000 A 
ATOM     11  C   UNL     1      -0.519  11.870  19.205  0.00  0.00    +0.000 A 
ATOM     12  C   UNL     1      -0.646  13.237  19.139  0.00  0.00    +0.000 A 
ATOM     13  N   UNL     1       0.624  13.722  19.245  0.00  0.00    +0.000 N 
ATOM     14  C   UNL     1       1.067  15.054  18.915  0.00  0.00    +0.000 C 
ATOM     15  N   UNL     1       1.529  12.783  19.582  0.00  0.00    +0.000 NA
ATOM     16  H   UNL     1       2.453  10.501  19.867  0.00  0.00    +0.000 HD
ENDBRANCH   5   7
BRANCH   1  18
ATOM     17  C   UNL     1       5.469   5.809  16.106  0.00  0.00    +0.000 C 
ATOM     18  C   UNL     1       4.658   6.224  16.892  0.00  0.00    +0.000 C 
BRANCH  17  19
ATOM     19  C   UNL     1       6.456   5.254  15.183  0.00  0.00    +0.000 C 
BRANCH  19  21
ATOM     20  C   UNL     1       7.402   4.555  17.229  0.00  0.00    +0.000 C 
ATOM     21  O   UNL     1       7.664   4.990  15.903  0.00  0.00    +0.000 OA
ENDBRANCH  19  21
ENDBRANCH  17  19
ENDBRANCH   1  18
BRANCH   3  22
ATOM     22  O   UNL     1       2.161   5.149  20.805  0.00  0.00    +0.000 OA
BRANCH  22  23
ATOM     23  C   UNL     1       2.199   3.773  20.376  0.00  0.00    +0.000 C 
ATOM     24  C   UNL     1       2.350   2.831  21.573  0.00  0.00    +0.000 C 
BRANCH  23  25
ATOM     25  C   UNL     1       0.861   3.472  19.681  0.00  0.00    +0.000 C 
BRANCH  25  26
ATOM     26  O   UNL     1       1.072   3.268  18.278  0.00  0.00    +0.000 OA
ATOM     27  C   UNL     1       2.149   2.369  18.044  0.00  0.00    +0.000 C 
ENDBRANCH  25  26
ENDBRANCH  23  25
ENDBRANCH  22  23
ENDBRANCH   3  22
TORSDOF 8
ENDMDL
MODEL 7
REMARK VINA RESULT:      -7.1      3.191      7.403
REMARK  Name = 
REMARK  12 active torsions:
REMARK  status: ('A' for Active; 'I' for Inactive)
REMARK    1  A    between atoms: C_1  and  O_2
REMARK    2  A    between atoms: O_2  and  C_3
REMARK    3  A    between atoms: C_3  and  C_4
REMARK    4  A    between atoms: C_5  and  C_6
REMARK    5  A    between atoms: C_8  and  O_9
REMARK    6  A    between atoms: O_9  and  C_10
REMARK    7  A    between atoms: C_10  and  C_11
REMARK    8  A    between atoms: C_10  and  C_12
REMARK    9  A    between atoms: C_12  and  O_13
REMARK   10  A    between atoms: O_13  and  C_14
REMARK   11  A    between atoms: C_16  and  C_17
REMARK   12  A    between atoms: N_23  and  C_24
REMARK                            x       y       z     vdW  Elec       q    Type
REMARK                         _______ _______ _______ _____ _____    ______ ____
ROOT
ATOM      1  C   UNL     1       2.211   8.101  18.802  0.00  0.00    +0.000 A 
ATOM      2  C   UNL     1       1.978   7.110  19.764  0.00  0.00    +0.000 A 
ATOM      3  C   UNL     1       2.618   5.872  19.681  0.00  0.00    +0.000 A 
ATOM      4  C   UNL     1       3.433   5.590  18.590  0.00  0.00    +0.000 A 
ATOM      5  C   UNL     1       3.693   6.586  17.642  0.00  0.00    +0.000 A 
ATOM      6  C   UNL     1       3.095   7.848  17.752  0.00  0.00    +0.000 A 
ENDROOT
BRANCH   5   7
ATOM      7  C   UNL     1       4.710   6.337  16.592  0.00  0.00    +0.000 C 
ATOM      8  O   UNL     1       5.319   7.294  16.127  0.00  0.00    +0.000 OA
ATOM      9  N   UNL     1       4.842   5.019  16.206  0.00  0.00    +0.000 N 
ATOM     10  C   UNL     1       5.735   4.655  15.227  0.00  0.00    +0.000 A 
ATOM     11  C   UNL     1       7.071   5.083  15.055  0.00  0.00    +0.000 A 
ATOM     12  C   UNL     1       7.482   4.504  13.879  0.00  0.00    +0.000 A 
ATOM     13  N   UNL     1       6.390   3.841  13.403  0.00  0.00    +0.000 N 
ATOM     14  C   UNL     1       6.200   3.347  12.061  0.00  0.00    +0.000 C 
ATOM     15  N   UNL     1       5.374   3.780  14.286  0.00  0.00    +0.000 NA
ATOM     16  H   UNL     1       4.035   4.414  16.272  0.00  0.00    +0.000 HD
ENDBRANCH   5   7
BRANCH   1  18
ATOM     17  C   UNL     1       1.033  10.435  19.124  0.00  0.00    +0.000 C 
ATOM     18  C   UNL     1       1.554   9.366  18.936  0.00  0.00    +0.000 C 
BRANCH  17  19
ATOM     19  C   UNL     1       0.412  11.726  19.410  0.00  0.00    +0.000 C 
BRANCH  19  21
ATOM     20  C   UNL     1       2.165  12.900  18.353  0.00  0.00    +0.000 C 
ATOM     21  O   UNL     1       1.441  12.709  19.560  0.00  0.00    +0.000 OA
ENDBRANCH  19  21
ENDBRANCH  17  19
ENDBRANCH   1  18
BRANCH   3  22
ATOM     22  O   UNL     1       2.400   5.040  20.745  0.00  0.00    +0.000 OA
BRANCH  22  23
ATOM     23  C   UNL     1       2.277   3.626  20.487  0.00  0.00    +0.000 C 
ATOM     24  C   UNL     1       2.426   2.820  21.780  0.00  0.00    +0.000 C 
BRANCH  23  25
ATOM     25  C   UNL     1       0.870   3.384  19.918  0.00  0.00    +0.000 C 
BRANCH  25  26
ATOM     26  O   UNL     1       0.955   3.034  18.531  0.00  0.00    +0.000 OA
ATOM     27  C   UNL     1       2.019   2.121  18.294  0.00  0.00    +0.000 C 
ENDBRANCH  25  26
ENDBRANCH  23  25
ENDBRANCH  22  23
ENDBRANCH   3  22
TORSDOF 8
ENDMDL
MODEL 8
REMARK VINA RESULT:      -7.1      1.673      2.084
REMARK  Name = 
REMARK  12 active torsions:
REMARK  status: ('A' for Active; 'I' for Inactive)
REMARK    1  A    between atoms: C_1  and  O_2
REMARK    2  A    between atoms: O_2  and  C_3
REMARK    3  A    between atoms: C_3  and  C_4
REMARK    4  A    between atoms: C_5  and  C_6
REMARK    5  A    between atoms: C_8  and  O_9
REMARK    6  A    between atoms: O_9  and  C_10
REMARK    7  A    between atoms: C_10  and  C_11
REMARK    8  A    between atoms: C_10  and  C_12
REMARK    9  A    between atoms: C_12  and  O_13
REMARK   10  A    between atoms: O_13  and  C_14
REMARK   11  A    between atoms: C_16  and  C_17
REMARK   12  A    between atoms: N_23  and  C_24
REMARK                            x       y       z     vdW  Elec       q    Type
REMARK                         _______ _______ _______ _____ _____    ______ ____
ROOT
ATOM      1  C   UNL     1       3.486   6.552  18.280  0.00  0.00    +0.000 A 
ATOM      2  C   UNL     1       3.324   5.600  19.294  0.00  0.00    +0.000 A 
ATOM      3  C   UNL     1       2.443   5.830  20.352  0.00  0.00    +0.000 A 
ATOM      4  C   UNL     1       1.780   7.049  20.444  0.00  0.00    +0.000 A 
ATOM      5  C   UNL     1       1.916   7.992  19.419  0.00  0.00    +0.000 A 
ATOM      6  C   UNL     1       2.757   7.741  18.327  0.00  0.00    +0.000 A 
ENDROOT
BRANCH   5   7
ATOM      7  C   UNL     1       1.061   9.202  19.432  0.00  0.00    +0.000 C 
ATOM      8  O   UNL     1       0.995   9.865  20.462  0.00  0.00    +0.000 OA
ATOM      9  N   UNL     1       0.374   9.446  18.259  0.00  0.00    +0.000 N 
ATOM     10  C   UNL     1      -0.471  10.524  18.146  0.00  0.00    +0.000 A 
ATOM     11  C   UNL     1      -0.256  11.855  18.571  0.00  0.00    +0.000 A 
ATOM     12  C   UNL     1      -1.439  12.507  18.313  0.00  0.00    +0.000 A 
ATOM     13  N   UNL     1      -2.279  11.549  17.828  0.00  0.00    +0.000 N 
ATOM     14  C   UNL     1      -3.713  11.641  17.712  0.00  0.00    +0.000 C 
ATOM     15  N   UNL     1      -1.662  10.381  17.561  0.00  0.00    +0.000 NA
ATOM     16  H   UNL     1       0.116   8.660  17.680  0.00  0.00    +0.000 HD
ENDBRANCH   5   7
BRANCH   1  18
ATOM     17  C   UNL     1       5.068   6.002  16.246  0.00  0.00    +0.000 C 
ATOM     18  C   UNL     1       4.381   6.268  17.198  0.00  0.00    +0.000 C 
BRANCH  17  19
ATOM     19  C   UNL     1       5.857   5.649  15.069  0.00  0.00    +0.000 C 
BRANCH  19  21
ATOM     20  C   UNL     1       7.374   4.541  16.498  0.00  0.00    +0.000 C 
ATOM     21  O   UNL     1       7.225   5.498  15.460  0.00  0.00    +0.000 OA
ENDBRANCH  19  21
ENDBRANCH  17  19
ENDBRANCH   1  18
BRANCH   3  22
ATOM     22  O   UNL     1       2.285   4.775  21.209  0.00  0.00    +0.000 OA
BRANCH  22  23
ATOM     23  C   UNL     1       2.183   3.452  20.645  0.00  0.00    +0.000 C 
ATOM     24  C   UNL     1       2.246   2.384  21.740  0.00  0.00    +0.000 C 
BRANCH  23  25
ATOM     25  C   UNL     1       0.817   3.354  19.944  0.00  0.00    +0.000 C 
BRANCH  25  26
ATOM     26  O   UNL     1       1.001   3.214  18.531  0.00  0.00    +0.000 OA
ATOM     27  C   UNL     1       2.049   2.300  18.234  0.00  0.00    +0.000 C 
ENDBRANCH  25  26
ENDBRANCH  23  25
ENDBRANCH  22  23
ENDBRANCH   3  22
TORSDOF 8
ENDMDL
MODEL 9
REMARK VINA RESULT:      -7.1      0.863      1.087
REMARK  Name = 
REMARK  12 active torsions:
REMARK  status: ('A' for Active; 'I' for Inactive)
REMARK    1  A    between atoms: C_1  and  O_2
REMARK    2  A    between atoms: O_2  and  C_3
REMARK    3  A    between atoms: C_3  and  C_4
REMARK    4  A    between atoms: C_5  and  C_6
REMARK    5  A    between atoms: C_8  and  O_9
REMARK    6  A    between atoms: O_9  and  C_10
REMARK    7  A    between atoms: C_10  and  C_11
REMARK    8  A    between atoms: C_10  and  C_12
REMARK    9  A    between atoms: C_12  and  O_13
REMARK   10  A    between atoms: O_13  and  C_14
REMARK   11  A    between atoms: C_16  and  C_17
REMARK   12  A    between atoms: N_23  and  C_24
REMARK                            x       y       z     vdW  Elec       q    Type
REMARK                         _______ _______ _______ _____ _____    ______ ____
ROOT
ATOM      1  C   UNL     1       4.176   5.871  17.409  0.00  0.00    +0.000 A 
ATOM      2  C   UNL     1       4.061   5.078  18.558  0.00  0.00    +0.000 A 
ATOM      3  C   UNL     1       3.283   5.497  19.638  0.00  0.00    +0.000 A 
ATOM      4  C   UNL     1       2.680   6.750  19.607  0.00  0.00    +0.000 A 
ATOM      5  C   UNL     1       2.767   7.534  18.452  0.00  0.00    +0.000 A 
ATOM      6  C   UNL     1       3.502   7.092  17.344  0.00  0.00    +0.000 A 
ENDROOT
BRANCH   5   7
ATOM      7  C   UNL     1       1.965   8.778  18.359  0.00  0.00    +0.000 C 
ATOM      8  O   UNL     1       1.998   9.421  17.316  0.00  0.00    +0.000 OA
ATOM      9  N   UNL     1       1.274   9.115  19.505  0.00  0.00    +0.000 N 
ATOM     10  C   UNL     1       0.509  10.256  19.560  0.00  0.00    +0.000 A 
ATOM     11  C   UNL     1      -0.389  10.756  18.591  0.00  0.00    +0.000 A 
ATOM     12  C   UNL     1      -0.814  11.965  19.089  0.00  0.00    +0.000 A 
ATOM     13  N   UNL     1      -0.122  12.138  20.252  0.00  0.00    +0.000 N 
ATOM     14  C   UNL     1       0.037  13.371  20.983  0.00  0.00    +0.000 C 
ATOM     15  N   UNL     1       0.557  11.040  20.639  0.00  0.00    +0.000 NA
ATOM     16  H   UNL     1       1.654   8.832  20.398  0.00  0.00    +0.000 HD
ENDBRANCH   5   7
BRANCH   1  18
ATOM     17  C   UNL     1       5.689   4.991  15.441  0.00  0.00    +0.000 C 
ATOM     18  C   UNL     1       4.963   5.395  16.312  0.00  0.00    +0.000 C 
BRANCH  17  19
ATOM     19  C   UNL     1       6.616   4.513  14.418  0.00  0.00    +0.000 C 
BRANCH  19  21
ATOM     20  C   UNL     1       8.087   5.530  12.878  0.00  0.00    +0.000 C 
ATOM     21  O   UNL     1       7.635   5.497  14.224  0.00  0.00    +0.000 OA
ENDBRANCH  19  21
ENDBRANCH  17  19
ENDBRANCH   1  18
BRANCH   3  22
ATOM     22  O   UNL     1       3.154   4.580  20.645  0.00  0.00    +0.000 OA
BRANCH  22  23
ATOM     23  C   UNL     1       1.996   3.722  20.638  0.00  0.00    +0.000 C 
ATOM     24  C   UNL     1       1.057   4.081  19.483  0.00  0.00    +0.000 C 
BRANCH  23  25
ATOM     25  C   UNL     1       2.492   2.281  20.435  0.00  0.00    +0.000 C 
BRANCH  25  26
ATOM     26  O   UNL     1       2.288   1.879  19.075  0.00  0.00    +0.000 OA
ATOM     27  C   UNL     1       3.504   1.452  18.474  0.00  0.00    +0.000 C 
ENDBRANCH  25  26
ENDBRANCH  23  25
ENDBRANCH  22  23
ENDBRANCH   3  22
TORSDOF 8
ENDMDL
