MODEL 1
REMARK VINA RESULT:      -8.6      0.000      0.000
REMARK  Name = 
REMARK  12 active torsions:
REMARK  status: ('A' for Active; 'I' for Inactive)
REMARK    1  A    between atoms: C_1  and  C_2
REMARK    2  A    between atoms: C_2  and  C_3
REMARK    3  A    between atoms: C_2  and  N_4
REMARK    4  A    between atoms: N_4  and  S_5
REMARK    5  A    between atoms: S_5  and  C_8
REMARK    6  A    between atoms: C_10  and  C_11
REMARK    7  A    between atoms: C_11  and  O_13
REMARK    8  A    between atoms: C_15  and  C_16
REMARK    9  A    between atoms: C_19  and  C_20
REMARK   10  A    between atoms: C_20  and  N_21
REMARK   11  A    between atoms: N_21  and  C_22
REMARK   12  A    between atoms: N_21  and  C_23
REMARK                            x       y       z     vdW  Elec       q    Type
REMARK                         _______ _______ _______ _____ _____    ______ ____
ROOT
ATOM      1  C   UNL     1       4.588   5.030  16.970  0.00  0.00    +0.000 A 
ATOM      2  C   UNL     1       3.956   3.805  17.202  0.00  0.00    +0.000 A 
ATOM      3  C   UNL     1       2.803   3.776  17.987  0.00  0.00    +0.000 A 
ATOM      4  C   UNL     1       2.310   4.953  18.557  0.00  0.00    +0.000 A 
ATOM      5  C   UNL     1       2.898   6.200  18.279  0.00  0.00    +0.000 A 
ATOM      6  C   UNL     1       4.062   6.219  17.493  0.00  0.00    +0.000 A 
ENDROOT
BRANCH   5   7
ATOM      7  C   UNL     1       2.233   7.446  18.704  0.00  0.00    +0.000 A 
ATOM      8  C   UNL     1       1.823   7.671  20.026  0.00  0.00    +0.000 A 
ATOM      9  C   UNL     1       1.260   8.894  20.407  0.00  0.00    +0.000 A 
ATOM     10  C   UNL     1       1.091   9.925  19.473  0.00  0.00    +0.000 A 
ATOM     11  C   UNL     1       1.478   9.706  18.150  0.00  0.00    +0.000 A 
ATOM     12  C   UNL     1       2.045   8.490  17.777  0.00  0.00    +0.000 A 
BRANCH  10  13
ATOM     13  C   UNL     1       0.523  11.268  19.876  0.00  0.00    +0.000 C 
BRANCH  13  14
ATOM     14  N   UNL     1      -0.823  11.189  20.468  0.00  0.00    +0.000 NA
ATOM     15  C   UNL     1      -0.856  11.709  21.839  0.00  0.00    +0.000 C 
ATOM     16  C   UNL     1      -1.763  11.945  19.635  0.00  0.00    +0.000 C 
ENDBRANCH  13  14
ENDBRANCH  10  13
ENDBRANCH   5   7
BRANCH   1  17
ATOM     17  S   UNL     1       5.961   5.089  15.836  0.00  0.00    +0.000 S 
ATOM     18  O   UNL     1       5.781   6.222  14.953  0.00  0.00    +0.000 OA
ATOM     19  O   UNL     1       6.106   3.742  15.337  0.00  0.00    +0.000 OA
BRANCH  17  20
ATOM     20  N   UNL     1       7.277   5.391  16.844  0.00  0.00    +0.000 NA
ATOM     21  H   UNL     1       7.875   4.578  16.986  0.00  0.00    +0.000 HD
BRANCH  20  23
ATOM     22  C   UNL     1       7.856   5.770  19.227  0.00  0.00    +0.000 C 
ATOM     23  C   UNL     1       7.135   6.299  17.997  0.00  0.00    +0.000 C 
ATOM     24  C   UNL     1       7.705   7.659  17.592  0.00  0.00    +0.000 C 
ENDBRANCH  20  23
ENDBRANCH  17  20
ENDBRANCH   1  17
BRANCH   3  25
ATOM     25  C   UNL     1       2.099   2.489  18.169  0.00  0.00    +0.000 C 
ATOM     26  O   UNL     1       0.887   2.418  18.250  0.00  0.00    +0.000 OA
BRANCH  25  27
ATOM     27  O   UNL     1       2.922   1.425  18.276  0.00  0.00    +0.000 OA
ATOM     28  H   UNL     1       3.875   1.622  18.224  0.00  0.00    +0.000 HD
ENDBRANCH  25  27
ENDBRANCH   3  25
TORSDOF 8
ENDMDL
MODEL 2
REMARK VINA RESULT:      -8.6      1.909      2.396
REMARK  Name = 
REMARK  12 active torsions:
REMARK  status: ('A' for Active; 'I' for Inactive)
REMARK    1  A    between atoms: C_1  and  C_2
REMARK    2  A    between atoms: C_2  and  C_3
REMARK    3  A    between atoms: C_2  and  N_4
REMARK    4  A    between atoms: N_4  and  S_5
REMARK    5  A    between atoms: S_5  and  C_8
REMARK    6  A    between atoms: C_10  and  C_11
REMARK    7  A    between atoms: C_11  and  O_13
REMARK    8  A    between atoms: C_15  and  C_16
REMARK    9  A    between atoms: C_19  and  C_20
REMARK   10  A    between atoms: C_20  and  N_21
REMARK   11  A    between atoms: N_21  and  C_22
REMARK   12  A    between atoms: N_21  and  C_23
REMARK                            x       y       z     vdW  Elec       q    Type
REMARK                         _______ _______ _______ _____ _____    ______ ____
ROOT
ATOM      1  C   UNL     1       5.411   5.326  17.291  0.00  0.00    +0.000 A 
ATOM      2  C   UNL     1       4.897   4.028  17.357  0.00  0.00    +0.000 A 
ATOM      3  C   UNL     1       3.642   3.825  17.932  0.00  0.00    +0.000 A 
ATOM      4  C   UNL     1       2.928   4.902  18.463  0.00  0.00    +0.000 A 
ATOM      5  C   UNL     1       3.404   6.221  18.345  0.00  0.00    +0.000 A 
ATOM      6  C   UNL     1       4.671   6.415  17.770  0.00  0.00    +0.000 A 
ENDROOT
BRANCH   5   7
ATOM      7  C   UNL     1       2.538   7.359  18.706  0.00  0.00    +0.000 A 
ATOM      8  C   UNL     1       1.983   7.510  19.985  0.00  0.00    +0.000 A 
ATOM      9  C   UNL     1       1.224   8.639  20.312  0.00  0.00    +0.000 A 
ATOM     10  C   UNL     1       0.999   9.647  19.365  0.00  0.00    +0.000 A 
ATOM     11  C   UNL     1       1.531   9.499  18.083  0.00  0.00    +0.000 A 
ATOM     12  C   UNL     1       2.292   8.377  17.764  0.00  0.00    +0.000 A 
BRANCH  10  13
ATOM     13  C   UNL     1       0.217  10.894  19.713  0.00  0.00    +0.000 C 
BRANCH  13  14
ATOM     14  N   UNL     1       0.801  11.674  20.817  0.00  0.00    +0.000 NA
ATOM     15  C   UNL     1       1.641  12.775  20.334  0.00  0.00    +0.000 C 
ATOM     16  C   UNL     1      -0.276  12.210  21.654  0.00  0.00    +0.000 C 
ENDBRANCH  13  14
ENDBRANCH  10  13
ENDBRANCH   5   7
BRANCH   1  17
ATOM     17  S   UNL     1       6.935   5.605  16.411  0.00  0.00    +0.000 S 
ATOM     18  O   UNL     1       7.829   4.499  16.676  0.00  0.00    +0.000 OA
ATOM     19  O   UNL     1       7.299   6.973  16.697  0.00  0.00    +0.000 OA
BRANCH  17  20
ATOM     20  N   UNL     1       6.460   5.544  14.796  0.00  0.00    +0.000 NA
ATOM     21  H   UNL     1       5.468   5.733  14.655  0.00  0.00    +0.000 HD
BRANCH  20  23
ATOM     22  C   UNL     1       6.012   3.702  13.193  0.00  0.00    +0.000 C 
ATOM     23  C   UNL     1       7.064   4.557  13.881  0.00  0.00    +0.000 C 
ATOM     24  C   UNL     1       7.884   5.325  12.843  0.00  0.00    +0.000 C 
ENDBRANCH  20  23
ENDBRANCH  17  20
ENDBRANCH   1  17
BRANCH   3  25
ATOM     25  C   UNL     1       3.073   2.460  17.935  0.00  0.00    +0.000 C 
ATOM     26  O   UNL     1       1.890   2.251  18.123  0.00  0.00    +0.000 OA
BRANCH  25  27
ATOM     27  O   UNL     1       3.987   1.485  17.751  0.00  0.00    +0.000 OA
ATOM     28  H   UNL     1       3.731   0.779  17.128  0.00  0.00    +0.000 HD
ENDBRANCH  25  27
ENDBRANCH   3  25
TORSDOF 8
ENDMDL
MODEL 3
REMARK VINA RESULT:      -8.5      1.906      2.397
REMARK  Name = 
REMARK  12 active torsions:
REMARK  status: ('A' for Active; 'I' for Inactive)
REMARK    1  A    between atoms: C_1  and  C_2
REMARK    2  A    between atoms: C_2  and  C_3
REMARK    3  A    between atoms: C_2  and  N_4
REMARK    4  A    between atoms: N_4  and  S_5
REMARK    5  A    between atoms: S_5  and  C_8
REMARK    6  A    between atoms: C_10  and  C_11
REMARK    7  A    between atoms: C_11  and  O_13
REMARK    8  A    between atoms: C_15  and  C_16
REMARK    9  A    between atoms: C_19  and  C_20
REMARK   10  A    between atoms: C_20  and  N_21
REMARK   11  A    between atoms: N_21  and  C_22
REMARK   12  A    between atoms: N_21  and  C_23
REMARK                            x       y       z     vdW  Elec       q    Type
REMARK                         _______ _______ _______ _____ _____    ______ ____
ROOT
ATOM      1  C   UNL     1       5.485   5.419  17.250  0.00  0.00    +0.000 A 
ATOM      2  C   UNL     1       4.937   4.133  17.263  0.00  0.00    +0.000 A 
ATOM      3  C   UNL     1       3.651   3.950  17.772  0.00  0.00    +0.000 A 
ATOM      4  C   UNL     1       2.938   5.035  18.290  0.00  0.00    +0.000 A 
ATOM      5  C   UNL     1       3.451   6.343  18.224  0.00  0.00    +0.000 A 
ATOM      6  C   UNL     1       4.749   6.517  17.715  0.00  0.00    +0.000 A 
ENDROOT
BRANCH   5   7
ATOM      7  C   UNL     1       2.596   7.495  18.567  0.00  0.00    +0.000 A 
ATOM      8  C   UNL     1       2.020   7.657  19.835  0.00  0.00    +0.000 A 
ATOM      9  C   UNL     1       1.272   8.799  20.145  0.00  0.00    +0.000 A 
ATOM     10  C   UNL     1       1.081   9.808  19.192  0.00  0.00    +0.000 A 
ATOM     11  C   UNL     1       1.634   9.649  17.921  0.00  0.00    +0.000 A 
ATOM     12  C   UNL     1       2.384   8.515  17.619  0.00  0.00    +0.000 A 
BRANCH  10  13
ATOM     13  C   UNL     1       0.311  11.068  19.523  0.00  0.00    +0.000 C 
BRANCH  13  14
ATOM     14  N   UNL     1      -0.777  11.366  18.576  0.00  0.00    +0.000 NA
ATOM     15  C   UNL     1      -1.718  10.249  18.446  0.00  0.00    +0.000 C 
ATOM     16  C   UNL     1      -1.495  12.562  19.026  0.00  0.00    +0.000 C 
ENDBRANCH  13  14
ENDBRANCH  10  13
ENDBRANCH   5   7
BRANCH   1  17
ATOM     17  S   UNL     1       7.057   5.677  16.451  0.00  0.00    +0.000 S 
ATOM     18  O   UNL     1       7.892   4.520  16.692  0.00  0.00    +0.000 OA
ATOM     19  O   UNL     1       7.464   7.011  16.826  0.00  0.00    +0.000 OA
BRANCH  17  20
ATOM     20  N   UNL     1       6.651   5.722  14.816  0.00  0.00    +0.000 NA
ATOM     21  H   UNL     1       5.745   6.150  14.633  0.00  0.00    +0.000 HD
BRANCH  20  23
ATOM     22  C   UNL     1       5.838   3.740  13.563  0.00  0.00    +0.000 C 
ATOM     23  C   UNL     1       7.031   4.610  13.926  0.00  0.00    +0.000 C 
ATOM     24  C   UNL     1       7.651   5.213  12.664  0.00  0.00    +0.000 C 
ENDBRANCH  20  23
ENDBRANCH  17  20
ENDBRANCH   1  17
BRANCH   3  25
ATOM     25  C   UNL     1       3.050   2.601  17.718  0.00  0.00    +0.000 C 
ATOM     26  O   UNL     1       1.849   2.429  17.624  0.00  0.00    +0.000 OA
BRANCH  25  27
ATOM     27  O   UNL     1       3.946   1.597  17.822  0.00  0.00    +0.000 OA
ATOM     28  H   UNL     1       4.627   1.567  17.124  0.00  0.00    +0.000 HD
ENDBRANCH  25  27
ENDBRANCH   3  25
TORSDOF 8
ENDMDL
MODEL 4
REMARK VINA RESULT:      -8.5      0.851      1.468
REMARK  Name = 
REMARK  12 active torsions:
REMARK  status: ('A' for Active; 'I' for Inactive)
REMARK    1  A    between atoms: C_1  and  C_2
REMARK    2  A    between atoms: C_2  and  C_3
REMARK    3  A    between atoms: C_2  and  N_4
REMARK    4  A    between atoms: N_4  and  S_5
REMARK    5  A    between atoms: S_5  and  C_8
REMARK    6  A    between atoms: C_10  and  C_11
REMARK    7  A    between atoms: C_11  and  O_13
REMARK    8  A    between atoms: C_15  and  C_16
REMARK    9  A    between atoms: C_19  and  C_20
REMARK   10  A    between atoms: C_20  and  N_21
REMARK   11  A    between atoms: N_21  and  C_22
REMARK   12  A    between atoms: N_21  and  C_23
REMARK                            x       y       z     vdW  Elec       q    Type
REMARK                         _______ _______ _______ _____ _____    ______ ____
ROOT
ATOM      1  C   UNL     1       4.683   5.112  17.091  0.00  0.00    +0.000 A 
ATOM      2  C   UNL     1       4.136   3.887  17.481  0.00  0.00    +0.000 A 
ATOM      3  C   UNL     1       3.033   3.878  18.336  0.00  0.00    +0.000 A 
ATOM      4  C   UNL     1       2.508   5.079  18.819  0.00  0.00    +0.000 A 
ATOM      5  C   UNL     1       3.007   6.321  18.384  0.00  0.00    +0.000 A 
ATOM      6  C   UNL     1       4.121   6.319  17.528  0.00  0.00    +0.000 A 
ENDROOT
BRANCH   5   7
ATOM      7  C   UNL     1       2.298   7.568  18.727  0.00  0.00    +0.000 A 
ATOM      8  C   UNL     1       2.003   8.555  17.775  0.00  0.00    +0.000 A 
ATOM      9  C   UNL     1       1.266   9.693  18.123  0.00  0.00    +0.000 A 
ATOM     10  C   UNL     1       0.807   9.873  19.435  0.00  0.00    +0.000 A 
ATOM     11  C   UNL     1       1.111   8.906  20.394  0.00  0.00    +0.000 A 
ATOM     12  C   UNL     1       1.837   7.772  20.042  0.00  0.00    +0.000 A 
BRANCH  10  13
ATOM     13  C   UNL     1      -0.026  11.076  19.818  0.00  0.00    +0.000 C 
BRANCH  13  14
ATOM     14  N   UNL     1       0.482  12.348  19.277  0.00  0.00    +0.000 NA
ATOM     15  C   UNL     1      -0.502  13.018  18.422  0.00  0.00    +0.000 C 
ATOM     16  C   UNL     1       0.851  13.232  20.386  0.00  0.00    +0.000 C 
ENDBRANCH  13  14
ENDBRANCH  10  13
ENDBRANCH   5   7
BRANCH   1  17
ATOM     17  S   UNL     1       5.982   5.127  15.872  0.00  0.00    +0.000 S 
ATOM     18  O   UNL     1       5.715   6.190  14.927  0.00  0.00    +0.000 OA
ATOM     19  O   UNL     1       6.137   3.752  15.459  0.00  0.00    +0.000 OA
BRANCH  17  20
ATOM     20  N   UNL     1       7.347   5.532  16.773  0.00  0.00    +0.000 NA
ATOM     21  H   UNL     1       8.035   4.783  16.828  0.00  0.00    +0.000 HD
BRANCH  20  23
ATOM     22  C   UNL     1       7.953   5.790  19.166  0.00  0.00    +0.000 C 
ATOM     23  C   UNL     1       7.219   6.380  17.973  0.00  0.00    +0.000 C 
ATOM     24  C   UNL     1       7.787   7.759  17.631  0.00  0.00    +0.000 C 
ENDBRANCH  20  23
ENDBRANCH  17  20
ENDBRANCH   1  17
BRANCH   3  25
ATOM     25  C   UNL     1       2.416   2.581  18.688  0.00  0.00    +0.000 C 
ATOM     26  O   UNL     1       1.989   2.348  19.802  0.00  0.00    +0.000 OA
BRANCH  25  27
ATOM     27  O   UNL     1       2.411   1.685  17.679  0.00  0.00    +0.000 OA
ATOM     28  H   UNL     1       1.785   1.870  16.955  0.00  0.00    +0.000 HD
ENDBRANCH  25  27
ENDBRANCH   3  25
TORSDOF 8
ENDMDL
MODEL 5
REMARK VINA RESULT:      -8.4      0.683      1.115
REMARK  Name = 
REMARK  12 active torsions:
REMARK  status: ('A' for Active; 'I' for Inactive)
REMARK    1  A    between atoms: C_1  and  C_2
REMARK    2  A    between atoms: C_2  and  C_3
REMARK    3  A    between atoms: C_2  and  N_4
REMARK    4  A    between atoms: N_4  and  S_5
REMARK    5  A    between atoms: S_5  and  C_8
REMARK    6  A    between atoms: C_10  and  C_11
REMARK    7  A    between atoms: C_11  and  O_13
REMARK    8  A    between atoms: C_15  and  C_16
REMARK    9  A    between atoms: C_19  and  C_20
REMARK   10  A    between atoms: C_20  and  N_21
REMARK   11  A    between atoms: N_21  and  C_22
REMARK   12  A    between atoms: N_21  and  C_23
REMARK                            x       y       z     vdW  Elec       q    Type
REMARK                         _______ _______ _______ _____ _____    ______ ____
ROOT
ATOM      1  C   UNL     1       4.672   5.140  16.961  0.00  0.00    +0.000 A 
ATOM      2  C   UNL     1       4.111   3.895  17.261  0.00  0.00    +0.000 A 
ATOM      3  C   UNL     1       2.985   3.839  18.083  0.00  0.00    +0.000 A 
ATOM      4  C   UNL     1       2.449   5.012  18.623  0.00  0.00    +0.000 A 
ATOM      5  C   UNL     1       2.963   6.275  18.278  0.00  0.00    +0.000 A 
ATOM      6  C   UNL     1       4.101   6.321  17.454  0.00  0.00    +0.000 A 
ENDROOT
BRANCH   5   7
ATOM      7  C   UNL     1       2.248   7.502  18.675  0.00  0.00    +0.000 A 
ATOM      8  C   UNL     1       1.825   7.738  19.991  0.00  0.00    +0.000 A 
ATOM      9  C   UNL     1       1.213   8.946  20.345  0.00  0.00    +0.000 A 
ATOM     10  C   UNL     1       1.005   9.948  19.388  0.00  0.00    +0.000 A 
ATOM     11  C   UNL     1       1.404   9.717  18.071  0.00  0.00    +0.000 A 
ATOM     12  C   UNL     1       2.021   8.518  17.725  0.00  0.00    +0.000 A 
BRANCH  10  13
ATOM     13  C   UNL     1       0.382  11.276  19.762  0.00  0.00    +0.000 C 
BRANCH  13  14
ATOM     14  N   UNL     1      -0.265  11.967  18.634  0.00  0.00    +0.000 NA
ATOM     15  C   UNL     1      -1.712  11.737  18.600  0.00  0.00    +0.000 C 
ATOM     16  C   UNL     1       0.001  13.405  18.732  0.00  0.00    +0.000 C 
ENDBRANCH  13  14
ENDBRANCH  10  13
ENDBRANCH   5   7
BRANCH   1  17
ATOM     17  S   UNL     1       6.005   5.222  15.782  0.00  0.00    +0.000 S 
ATOM     18  O   UNL     1       5.753   6.324  14.879  0.00  0.00    +0.000 OA
ATOM     19  O   UNL     1       6.187   3.869  15.312  0.00  0.00    +0.000 OA
BRANCH  17  20
ATOM     20  N   UNL     1       7.339   5.600  16.740  0.00  0.00    +0.000 NA
ATOM     21  H   UNL     1       8.017   4.842  16.809  0.00  0.00    +0.000 HD
BRANCH  20  23
ATOM     22  C   UNL     1       7.842   5.807  19.161  0.00  0.00    +0.000 C 
ATOM     23  C   UNL     1       7.175   6.432  17.946  0.00  0.00    +0.000 C 
ATOM     24  C   UNL     1       7.785   7.803  17.653  0.00  0.00    +0.000 C 
ENDBRANCH  20  23
ENDBRANCH  17  20
ENDBRANCH   1  17
BRANCH   3  25
ATOM     25  C   UNL     1       2.354   2.526  18.338  0.00  0.00    +0.000 C 
ATOM     26  O   UNL     1       3.007   1.534  18.597  0.00  0.00    +0.000 OA
BRANCH  25  27
ATOM     27  O   UNL     1       1.011   2.531  18.216  0.00  0.00    +0.000 OA
ATOM     28  H   UNL     1       0.642   1.875  17.596  0.00  0.00    +0.000 HD
ENDBRANCH  25  27
ENDBRANCH   3  25
TORSDOF 8
ENDMDL
MODEL 6
REMARK VINA RESULT:      -8.4      0.798      1.031
REMARK  Name = 
REMARK  12 active torsions:
REMARK  status: ('A' for Active; 'I' for Inactive)
REMARK    1  A    between atoms: C_1  and  C_2
REMARK    2  A    between atoms: C_2  and  C_3
REMARK    3  A    between atoms: C_2  and  N_4
REMARK    4  A    between atoms: N_4  and  S_5
REMARK    5  A    between atoms: S_5  and  C_8
REMARK    6  A    between atoms: C_10  and  C_11
REMARK    7  A    between atoms: C_11  and  O_13
REMARK    8  A    between atoms: C_15  and  C_16
REMARK    9  A    between atoms: C_19  and  C_20
REMARK   10  A    between atoms: C_20  and  N_21
REMARK   11  A    between atoms: N_21  and  C_22
REMARK   12  A    between atoms: N_21  and  C_23
REMARK                            x       y       z     vdW  Elec       q    Type
REMARK                         _______ _______ _______ _____ _____    ______ ____
ROOT
ATOM      1  C   UNL     1       4.654   5.121  17.107  0.00  0.00    +0.000 A 
ATOM      2  C   UNL     1       4.083   3.893  17.452  0.00  0.00    +0.000 A 
ATOM      3  C   UNL     1       2.960   3.877  18.280  0.00  0.00    +0.000 A 
ATOM      4  C   UNL     1       2.437   5.073  18.780  0.00  0.00    +0.000 A 
ATOM      5  C   UNL     1       2.962   6.318  18.389  0.00  0.00    +0.000 A 
ATOM      6  C   UNL     1       4.096   6.324  17.560  0.00  0.00    +0.000 A 
ENDROOT
BRANCH   5   7
ATOM      7  C   UNL     1       2.260   7.565  18.745  0.00  0.00    +0.000 A 
ATOM      8  C   UNL     1       1.754   7.806  20.031  0.00  0.00    +0.000 A 
ATOM      9  C   UNL     1       1.156   9.031  20.351  0.00  0.00    +0.000 A 
ATOM     10  C   UNL     1       1.049  10.046  19.391  0.00  0.00    +0.000 A 
ATOM     11  C   UNL     1       1.532   9.810  18.104  0.00  0.00    +0.000 A 
ATOM     12  C   UNL     1       2.133   8.594  17.791  0.00  0.00    +0.000 A 
BRANCH  10  13
ATOM     13  C   UNL     1       0.444  11.390  19.732  0.00  0.00    +0.000 C 
BRANCH  13  14
ATOM     14  N   UNL     1       0.951  11.969  20.987  0.00  0.00    +0.000 NA
ATOM     15  C   UNL     1       1.886  13.073  20.750  0.00  0.00    +0.000 C 
ATOM     16  C   UNL     1      -0.178  12.448  21.790  0.00  0.00    +0.000 C 
ENDBRANCH  13  14
ENDBRANCH  10  13
ENDBRANCH   5   7
BRANCH   1  17
ATOM     17  S   UNL     1       5.983   5.150  15.920  0.00  0.00    +0.000 S 
ATOM     18  O   UNL     1       5.768   6.257  15.014  0.00  0.00    +0.000 OA
ATOM     19  O   UNL     1       6.112   3.788  15.455  0.00  0.00    +0.000 OA
BRANCH  17  20
ATOM     20  N   UNL     1       7.335   5.480  16.869  0.00  0.00    +0.000 NA
ATOM     21  H   UNL     1       7.962   4.684  16.977  0.00  0.00    +0.000 HD
BRANCH  20  23
ATOM     22  C   UNL     1       7.927   5.806  19.258  0.00  0.00    +0.000 C 
ATOM     23  C   UNL     1       7.222   6.375  18.036  0.00  0.00    +0.000 C 
ATOM     24  C   UNL     1       7.834   7.723  17.651  0.00  0.00    +0.000 C 
ENDBRANCH  20  23
ENDBRANCH  17  20
ENDBRANCH   1  17
BRANCH   3  25
ATOM     25  C   UNL     1       2.318   2.580  18.583  0.00  0.00    +0.000 C 
ATOM     26  O   UNL     1       2.019   2.254  19.716  0.00  0.00    +0.000 OA
BRANCH  25  27
ATOM     27  O   UNL     1       2.138   1.792  17.503  0.00  0.00    +0.000 OA
ATOM     28  H   UNL     1       2.922   1.291  17.212  0.00  0.00    +0.000 HD
ENDBRANCH  25  27
ENDBRANCH   3  25
TORSDOF 8
ENDMDL
MODEL 7
REMARK VINA RESULT:      -8.4      1.748      2.525
REMARK  Name = 
REMARK  12 active torsions:
REMARK  status: ('A' for Active; 'I' for Inactive)
REMARK    1  A    between atoms: C_1  and  C_2
REMARK    2  A    between atoms: C_2  and  C_3
REMARK    3  A    between atoms: C_2  and  N_4
REMARK    4  A    between atoms: N_4  and  S_5
REMARK    5  A    between atoms: S_5  and  C_8
REMARK    6  A    between atoms: C_10  and  C_11
REMARK    7  A    between atoms: C_11  and  O_13
REMARK    8  A    between atoms: C_15  and  C_16
REMARK    9  A    between atoms: C_19  and  C_20
REMARK   10  A    between atoms: C_20  and  N_21
REMARK   11  A    between atoms: N_21  and  C_22
REMARK   12  A    between atoms: N_21  and  C_23
REMARK                            x       y       z     vdW  Elec       q    Type
REMARK                         _______ _______ _______ _____ _____    ______ ____
ROOT
ATOM      1  C   UNL     1       5.258   5.014  17.731  0.00  0.00    +0.000 A 
ATOM      2  C   UNL     1       4.576   3.795  17.691  0.00  0.00    +0.000 A 
ATOM      3  C   UNL     1       3.232   3.758  18.066  0.00  0.00    +0.000 A 
ATOM      4  C   UNL     1       2.592   4.919  18.506  0.00  0.00    +0.000 A 
ATOM      5  C   UNL     1       3.247   6.164  18.489  0.00  0.00    +0.000 A 
ATOM      6  C   UNL     1       4.602   6.191  18.116  0.00  0.00    +0.000 A 
ENDROOT
BRANCH   5   7
ATOM      7  C   UNL     1       2.491   7.405  18.740  0.00  0.00    +0.000 A 
ATOM      8  C   UNL     1       2.214   8.338  17.730  0.00  0.00    +0.000 A 
ATOM      9  C   UNL     1       1.432   9.470  17.991  0.00  0.00    +0.000 A 
ATOM     10  C   UNL     1       0.910   9.698  19.271  0.00  0.00    +0.000 A 
ATOM     11  C   UNL     1       1.196   8.787  20.288  0.00  0.00    +0.000 A 
ATOM     12  C   UNL     1       1.967   7.658  20.023  0.00  0.00    +0.000 A 
BRANCH  10  13
ATOM     13  C   UNL     1       0.029  10.894  19.560  0.00  0.00    +0.000 C 
BRANCH  13  14
ATOM     14  N   UNL     1      -0.704  11.390  18.383  0.00  0.00    +0.000 NA
ATOM     15  C   UNL     1      -2.100  10.942  18.371  0.00  0.00    +0.000 C 
ATOM     16  C   UNL     1      -0.659  12.855  18.367  0.00  0.00    +0.000 C 
ENDBRANCH  13  14
ENDBRANCH  10  13
ENDBRANCH   5   7
BRANCH   1  17
ATOM     17  S   UNL     1       6.921   5.091  17.097  0.00  0.00    +0.000 S 
ATOM     18  O   UNL     1       7.800   4.417  18.028  0.00  0.00    +0.000 OA
ATOM     19  O   UNL     1       7.121   6.469  16.711  0.00  0.00    +0.000 OA
BRANCH  17  20
ATOM     20  N   UNL     1       6.833   4.185  15.680  0.00  0.00    +0.000 NA
ATOM     21  H   UNL     1       7.563   3.479  15.603  0.00  0.00    +0.000 HD
BRANCH  20  23
ATOM     22  C   UNL     1       7.587   5.054  13.481  0.00  0.00    +0.000 C 
ATOM     23  C   UNL     1       6.412   4.820  14.418  0.00  0.00    +0.000 C 
ATOM     24  C   UNL     1       5.381   3.905  13.756  0.00  0.00    +0.000 C 
ENDBRANCH  20  23
ENDBRANCH  17  20
ENDBRANCH   1  17
BRANCH   3  25
ATOM     25  C   UNL     1       2.497   2.480  17.952  0.00  0.00    +0.000 C 
ATOM     26  O   UNL     1       1.282   2.431  17.924  0.00  0.00    +0.000 OA
BRANCH  25  27
ATOM     27  O   UNL     1       3.292   1.390  17.925  0.00  0.00    +0.000 OA
ATOM     28  H   UNL     1       4.251   1.569  17.919  0.00  0.00    +0.000 HD
ENDBRANCH  25  27
ENDBRANCH   3  25
TORSDOF 8
ENDMDL
MODEL 8
REMARK VINA RESULT:      -8.3      1.139      1.602
REMARK  Name = 
REMARK  12 active torsions:
REMARK  status: ('A' for Active; 'I' for Inactive)
REMARK    1  A    between atoms: C_1  and  C_2
REMARK    2  A    between atoms: C_2  and  C_3
REMARK    3  A    between atoms: C_2  and  N_4
REMARK    4  A    between atoms: N_4  and  S_5
REMARK    5  A    between atoms: S_5  and  C_8
REMARK    6  A    between atoms: C_10  and  C_11
REMARK    7  A    between atoms: C_11  and  O_13
REMARK    8  A    between atoms: C_15  and  C_16
REMARK    9  A    between atoms: C_19  and  C_20
REMARK   10  A    between atoms: C_20  and  N_21
REMARK   11  A    between atoms: N_21  and  C_22
REMARK   12  A    between atoms: N_21  and  C_23
REMARK                            x       y       z     vdW  Elec       q    Type
REMARK                         _______ _______ _______ _____ _____    ______ ____
ROOT
ATOM      1  C   UNL     1       4.953   5.394  17.269  0.00  0.00    +0.000 A 
ATOM      2  C   UNL     1       4.674   4.175  17.893  0.00  0.00    +0.000 A 
ATOM      3  C   UNL     1       3.684   4.127  18.875  0.00  0.00    +0.000 A 
ATOM      4  C   UNL     1       3.006   5.290  19.248  0.00  0.00    +0.000 A 
ATOM      5  C   UNL     1       3.231   6.510  18.584  0.00  0.00    +0.000 A 
ATOM      6  C   UNL     1       4.234   6.550  17.601  0.00  0.00    +0.000 A 
ENDROOT
BRANCH   5   7
ATOM      7  C   UNL     1       2.351   7.666  18.836  0.00  0.00    +0.000 A 
ATOM      8  C   UNL     1       1.911   8.518  17.812  0.00  0.00    +0.000 A 
ATOM      9  C   UNL     1       1.019   9.564  18.080  0.00  0.00    +0.000 A 
ATOM     10  C   UNL     1       0.546   9.784  19.380  0.00  0.00    +0.000 A 
ATOM     11  C   UNL     1       0.992   8.954  20.410  0.00  0.00    +0.000 A 
ATOM     12  C   UNL     1       1.873   7.911  20.138  0.00  0.00    +0.000 A 
BRANCH  10  13
ATOM     13  C   UNL     1      -0.450  10.883  19.680  0.00  0.00    +0.000 C 
BRANCH  13  14
ATOM     14  N   UNL     1      -1.036  11.497  18.477  0.00  0.00    +0.000 NA
ATOM     15  C   UNL     1      -2.481  11.266  18.385  0.00  0.00    +0.000 C 
ATOM     16  C   UNL     1      -0.771  12.939  18.492  0.00  0.00    +0.000 C 
ENDBRANCH  13  14
ENDBRANCH  10  13
ENDBRANCH   5   7
BRANCH   1  17
ATOM     17  S   UNL     1       6.098   5.421  15.904  0.00  0.00    +0.000 S 
ATOM     18  O   UNL     1       5.489   6.142  14.807  0.00  0.00    +0.000 OA
ATOM     19  O   UNL     1       6.563   4.060  15.766  0.00  0.00    +0.000 OA
BRANCH  17  20
ATOM     20  N   UNL     1       7.384   6.328  16.503  0.00  0.00    +0.000 NA
ATOM     21  H   UNL     1       8.298   5.970  16.227  0.00  0.00    +0.000 HD
BRANCH  20  23
ATOM     22  C   UNL     1       7.909   6.027  18.910  0.00  0.00    +0.000 C 
ATOM     23  C   UNL     1       7.306   6.931  17.846  0.00  0.00    +0.000 C 
ATOM     24  C   UNL     1       8.050   8.267  17.802  0.00  0.00    +0.000 C 
ENDBRANCH  20  23
ENDBRANCH  17  20
ENDBRANCH   1  17
BRANCH   3  25
ATOM     25  C   UNL     1       3.345   2.821  19.480  0.00  0.00    +0.000 C 
ATOM     26  O   UNL     1       2.312   2.641  20.097  0.00  0.00    +0.000 OA
BRANCH  25  27
ATOM     27  O   UNL     1       4.296   1.878  19.318  0.00  0.00    +0.000 OA
ATOM     28  H   UNL     1       4.610   1.749  18.404  0.00  0.00    +0.000 HD
ENDBRANCH  25  27
ENDBRANCH   3  25
TORSDOF 8
ENDMDL
MODEL 9
REMARK VINA RESULT:      -8.3      1.113      1.360
REMARK  Name = 
REMARK  12 active torsions:
REMARK  status: ('A' for Active; 'I' for Inactive)
REMARK    1  A    between atoms: C_1  and  C_2
REMARK    2  A    between atoms: C_2  and  C_3
REMARK    3  A    between atoms: C_2  and  N_4
REMARK    4  A    between atoms: N_4  and  S_5
REMARK    5  A    between atoms: S_5  and  C_8
REMARK    6  A    between atoms: C_10  and  C_11
REMARK    7  A    between atoms: C_11  and  O_13
REMARK    8  A    between atoms: C_15  and  C_16
REMARK    9  A    between atoms: C_19  and  C_20
REMARK   10  A    between atoms: C_20  and  N_21
REMARK   11  A    between atoms: N_21  and  C_22
REMARK   12  A    between atoms: N_21  and  C_23
REMARK                            x       y       z     vdW  Elec       q    Type
REMARK                         _______ _______ _______ _____ _____    ______ ____
ROOT
ATOM      1  C   UNL     1       4.827   5.360  17.292  0.00  0.00    +0.000 A 
ATOM      2  C   UNL     1       4.564   4.136  17.913  0.00  0.00    +0.000 A 
ATOM      3  C   UNL     1       3.584   4.075  18.905  0.00  0.00    +0.000 A 
ATOM      4  C   UNL     1       2.901   5.231  19.291  0.00  0.00    +0.000 A 
ATOM      5  C   UNL     1       3.109   6.456  18.630  0.00  0.00    +0.000 A 
ATOM      6  C   UNL     1       4.102   6.508  17.637  0.00  0.00    +0.000 A 
ENDROOT
BRANCH   5   7
ATOM      7  C   UNL     1       2.223   7.604  18.897  0.00  0.00    +0.000 A 
ATOM      8  C   UNL     1       1.746   7.908  20.180  0.00  0.00    +0.000 A 
ATOM      9  C   UNL     1       0.964   9.046  20.407  0.00  0.00    +0.000 A 
ATOM     10  C   UNL     1       0.638   9.910  19.353  0.00  0.00    +0.000 A 
ATOM     11  C   UNL     1       1.091   9.608  18.068  0.00  0.00    +0.000 A 
ATOM     12  C   UNL     1       1.875   8.478  17.848  0.00  0.00    +0.000 A 
BRANCH  10  13
ATOM     13  C   UNL     1      -0.170  11.167  19.587  0.00  0.00    +0.000 C 
BRANCH  13  14
ATOM     14  N   UNL     1       0.504  12.399  19.143  0.00  0.00    +0.000 NA
ATOM     15  C   UNL     1      -0.446  13.417  18.685  0.00  0.00    +0.000 C 
ATOM     16  C   UNL     1       1.303  12.937  20.248  0.00  0.00    +0.000 C 
ENDBRANCH  13  14
ENDBRANCH  10  13
ENDBRANCH   5   7
BRANCH   1  17
ATOM     17  S   UNL     1       5.957   5.403  15.916  0.00  0.00    +0.000 S 
ATOM     18  O   UNL     1       5.455   6.342  14.937  0.00  0.00    +0.000 OA
ATOM     19  O   UNL     1       6.220   4.020  15.591  0.00  0.00    +0.000 OA
BRANCH  17  20
ATOM     20  N   UNL     1       7.365   6.030  16.597  0.00  0.00    +0.000 NA
ATOM     21  H   UNL     1       8.180   5.431  16.470  0.00  0.00    +0.000 HD
BRANCH  20  23
ATOM     22  C   UNL     1       8.035   6.056  18.987  0.00  0.00    +0.000 C 
ATOM     23  C   UNL     1       7.305   6.779  17.866  0.00  0.00    +0.000 C 
ATOM     24  C   UNL     1       7.932   8.154  17.625  0.00  0.00    +0.000 C 
ENDBRANCH  20  23
ENDBRANCH  17  20
ENDBRANCH   1  17
BRANCH   3  25
ATOM     25  C   UNL     1       3.262   2.763  19.507  0.00  0.00    +0.000 C 
ATOM     26  O   UNL     1       2.161   2.256  19.404  0.00  0.00    +0.000 OA
BRANCH  25  27
ATOM     27  O   UNL     1       4.279   2.215  20.204  0.00  0.00    +0.000 OA
ATOM     28  H   UNL     1       4.720   1.456  19.779  0.00  0.00    +0.000 HD
ENDBRANCH  25  27
ENDBRANCH   3  25
TORSDOF 8
ENDMDL
