MODEL 1
REMARK VINA RESULT:      -8.2      0.000      0.000
REMARK  Name = 
REMARK  4 active torsions:
REMARK  status: ('A' for Active; 'I' for Inactive)
REMARK    1  A    between atoms: C_1  and  C_2
REMARK    2  A    between atoms: C_12  and  O_13
REMARK    3  A    between atoms: O_13  and  C_14
REMARK    4  A    between atoms: C_14  and  C_16
REMARK                            x       y       z     vdW  Elec       q    Type
REMARK                         _______ _______ _______ _____ _____    ______ ____
ROOT
ATOM      1  C   UNL     1       3.938   3.318  19.094  0.00  0.00    +0.000 C 
ATOM      2  C   UNL     1       3.407   4.718  18.991  0.00  0.00    +0.000 A 
ATOM      3  C   UNL     1       2.659   5.233  20.055  0.00  0.00    +0.000 A 
ATOM      4  C   UNL     1       2.168   6.537  20.004  0.00  0.00    +0.000 A 
ATOM      5  O   UNL     1       1.438   6.959  21.126  0.00  0.00    +0.000 OA
ATOM      6  C   UNL     1       0.903   8.231  21.203  0.00  0.00    +0.000 A 
ATOM      7  O   UNL     1       0.278   8.599  22.193  0.00  0.00    +0.000 OA
ATOM      8  C   UNL     1       1.124   9.125  20.040  0.00  0.00    +0.000 A 
ATOM      9  C   UNL     1       1.842   8.744  18.963  0.00  0.00    +0.000 A 
ATOM     10  C   UNL     1       2.393   7.378  18.918  0.00  0.00    +0.000 A 
ATOM     11  C   UNL     1       3.139   6.862  17.847  0.00  0.00    +0.000 A 
ATOM     12  C   UNL     1       3.625   5.541  17.874  0.00  0.00    +0.000 A 
ATOM     13  C   UNL     1       2.090   9.685  17.805  0.00  0.00    +0.000 C 
ATOM     14  C   UNL     1       1.741  11.145  18.109  0.00  0.00    +0.000 C 
ATOM     15  C   UNL     1       0.412  11.244  18.842  0.00  0.00    +0.000 C 
ATOM     16  C   UNL     1       0.476  10.482  20.163  0.00  0.00    +0.000 C 
ENDROOT
BRANCH  12  17
ATOM     17  O   UNL     1       4.443   5.037  16.826  0.00  0.00    +0.000 OA
BRANCH  17  18
ATOM     18  C   UNL     1       5.493   5.782  16.256  0.00  0.00    +0.000 C 
ATOM     19  O   UNL     1       5.532   6.164  15.093  0.00  0.00    +0.000 OA
BRANCH  18  20
ATOM     20  C   UNL     1       6.518   6.055  17.242  0.00  0.00    +0.000 A 
ATOM     21  C   UNL     1       7.225   7.220  17.507  0.00  0.00    +0.000 A 
ATOM     22  C   UNL     1       8.077   6.951  18.605  0.00  0.00    +0.000 A 
ATOM     23  C   UNL     1       7.846   5.640  18.948  0.00  0.00    +0.000 A 
ATOM     24  O   UNL     1       6.912   5.088  18.132  0.00  0.00    +0.000 OA
ENDBRANCH  18  20
ENDBRANCH  17  18
ENDBRANCH  12  17
TORSDOF 3
ENDMDL
MODEL 2
REMARK VINA RESULT:      -8.2      2.666      4.532
REMARK  Name = 
REMARK  4 active torsions:
REMARK  status: ('A' for Active; 'I' for Inactive)
REMARK    1  A    between atoms: C_1  and  C_2
REMARK    2  A    between atoms: C_12  and  O_13
REMARK    3  A    between atoms: O_13  and  C_14
REMARK    4  A    between atoms: C_14  and  C_16
REMARK                            x       y       z     vdW  Elec       q    Type
REMARK                         _______ _______ _______ _____ _____    ______ ____
ROOT
ATOM      1  C   UNL     1       3.604   6.551  17.261  0.00  0.00    +0.000 C 
ATOM      2  C   UNL     1       2.803   7.320  18.271  0.00  0.00    +0.000 A 
ATOM      3  C   UNL     1       2.130   8.475  17.857  0.00  0.00    +0.000 A 
ATOM      4  C   UNL     1       1.359   9.202  18.763  0.00  0.00    +0.000 A 
ATOM      5  O   UNL     1       0.718  10.338  18.244  0.00  0.00    +0.000 OA
ATOM      6  C   UNL     1      -0.081  11.140  19.036  0.00  0.00    +0.000 A 
ATOM      7  O   UNL     1      -0.651  12.124  18.574  0.00  0.00    +0.000 OA
ATOM      8  C   UNL     1      -0.219  10.755  20.463  0.00  0.00    +0.000 A 
ATOM      9  C   UNL     1       0.373   9.655  20.973  0.00  0.00    +0.000 A 
ATOM     10  C   UNL     1       1.218   8.826  20.095  0.00  0.00    +0.000 A 
ATOM     11  C   UNL     1       1.898   7.671  20.514  0.00  0.00    +0.000 A 
ATOM     12  C   UNL     1       2.696   6.937  19.618  0.00  0.00    +0.000 A 
ATOM     13  C   UNL     1       0.187   9.256  22.420  0.00  0.00    +0.000 C 
ATOM     14  C   UNL     1      -0.946  10.007  23.127  0.00  0.00    +0.000 C 
ATOM     15  C   UNL     1      -0.909  11.489  22.790  0.00  0.00    +0.000 C 
ATOM     16  C   UNL     1      -1.063  11.696  21.285  0.00  0.00    +0.000 C 
ENDROOT
BRANCH  12  17
ATOM     17  O   UNL     1       3.326   5.726  20.016  0.00  0.00    +0.000 OA
BRANCH  17  18
ATOM     18  C   UNL     1       2.601   4.586  20.410  0.00  0.00    +0.000 C 
ATOM     19  O   UNL     1       1.984   4.475  21.463  0.00  0.00    +0.000 OA
BRANCH  18  20
ATOM     20  C   UNL     1       2.666   3.562  19.389  0.00  0.00    +0.000 A 
ATOM     21  C   UNL     1       1.943   3.416  18.213  0.00  0.00    +0.000 A 
ATOM     22  C   UNL     1       2.436   2.260  17.560  0.00  0.00    +0.000 A 
ATOM     23  C   UNL     1       3.429   1.764  18.371  0.00  0.00    +0.000 A 
ATOM     24  O   UNL     1       3.574   2.537  19.479  0.00  0.00    +0.000 OA
ENDBRANCH  18  20
ENDBRANCH  17  18
ENDBRANCH  12  17
TORSDOF 3
ENDMDL
MODEL 3
REMARK VINA RESULT:      -7.9      1.491      2.125
REMARK  Name = 
REMARK  4 active torsions:
REMARK  status: ('A' for Active; 'I' for Inactive)
REMARK    1  A    between atoms: C_1  and  C_2
REMARK    2  A    between atoms: C_12  and  O_13
REMARK    3  A    between atoms: O_13  and  C_14
REMARK    4  A    between atoms: C_14  and  C_16
REMARK                            x       y       z     vdW  Elec       q    Type
REMARK                         _______ _______ _______ _____ _____    ______ ____
ROOT
ATOM      1  C   UNL     1       3.400   2.836  20.121  0.00  0.00    +0.000 C 
ATOM      2  C   UNL     1       3.025   4.249  19.785  0.00  0.00    +0.000 A 
ATOM      3  C   UNL     1       2.267   4.981  20.706  0.00  0.00    +0.000 A 
ATOM      4  C   UNL     1       1.919   6.304  20.437  0.00  0.00    +0.000 A 
ATOM      5  O   UNL     1       1.167   6.951  21.429  0.00  0.00    +0.000 OA
ATOM      6  C   UNL     1       0.763   8.266  21.288  0.00  0.00    +0.000 A 
ATOM      7  O   UNL     1       0.119   8.831  22.166  0.00  0.00    +0.000 OA
ATOM      8  C   UNL     1       1.149   8.957  20.033  0.00  0.00    +0.000 A 
ATOM      9  C   UNL     1       1.890   8.357  19.078  0.00  0.00    +0.000 A 
ATOM     10  C   UNL     1       2.299   6.954  19.266  0.00  0.00    +0.000 A 
ATOM     11  C   UNL     1       3.054   6.220  18.337  0.00  0.00    +0.000 A 
ATOM     12  C   UNL     1       3.397   4.877  18.584  0.00  0.00    +0.000 A 
ATOM     13  C   UNL     1       2.308   9.092  17.824  0.00  0.00    +0.000 C 
ATOM     14  C   UNL     1       2.093  10.607  17.895  0.00  0.00    +0.000 C 
ATOM     15  C   UNL     1       0.739  10.936  18.502  0.00  0.00    +0.000 C 
ATOM     16  C   UNL     1       0.639  10.371  19.917  0.00  0.00    +0.000 C 
ENDROOT
BRANCH  12  17
ATOM     17  O   UNL     1       4.223   4.152  17.684  0.00  0.00    +0.000 OA
BRANCH  17  18
ATOM     18  C   UNL     1       5.617   4.338  17.613  0.00  0.00    +0.000 C 
ATOM     19  O   UNL     1       6.365   4.412  18.580  0.00  0.00    +0.000 OA
BRANCH  18  20
ATOM     20  C   UNL     1       6.052   4.412  16.234  0.00  0.00    +0.000 A 
ATOM     21  C   UNL     1       5.407   4.033  15.065  0.00  0.00    +0.000 A 
ATOM     22  C   UNL     1       6.265   4.366  13.988  0.00  0.00    +0.000 A 
ATOM     23  C   UNL     1       7.383   4.927  14.558  0.00  0.00    +0.000 A 
ATOM     24  O   UNL     1       7.269   4.957  15.911  0.00  0.00    +0.000 OA
ENDBRANCH  18  20
ENDBRANCH  17  18
ENDBRANCH  12  17
TORSDOF 3
ENDMDL
MODEL 4
REMARK VINA RESULT:      -7.8      2.296      4.285
REMARK  Name = 
REMARK  4 active torsions:
REMARK  status: ('A' for Active; 'I' for Inactive)
REMARK    1  A    between atoms: C_1  and  C_2
REMARK    2  A    between atoms: C_12  and  O_13
REMARK    3  A    between atoms: O_13  and  C_14
REMARK    4  A    between atoms: C_14  and  C_16
REMARK                            x       y       z     vdW  Elec       q    Type
REMARK                         _______ _______ _______ _____ _____    ______ ____
ROOT
ATOM      1  C   UNL     1       4.961   6.150  16.380  0.00  0.00    +0.000 C 
ATOM      2  C   UNL     1       4.028   6.731  17.402  0.00  0.00    +0.000 A 
ATOM      3  C   UNL     1       3.445   7.978  17.148  0.00  0.00    +0.000 A 
ATOM      4  C   UNL     1       2.556   8.539  18.064  0.00  0.00    +0.000 A 
ATOM      5  O   UNL     1       2.022   9.787  17.710  0.00  0.00    +0.000 OA
ATOM      6  C   UNL     1       1.124  10.447  18.528  0.00  0.00    +0.000 A 
ATOM      7  O   UNL     1       0.649  11.531  18.207  0.00  0.00    +0.000 OA
ATOM      8  C   UNL     1       0.762   9.781  19.804  0.00  0.00    +0.000 A 
ATOM      9  C   UNL     1       1.250   8.571  20.151  0.00  0.00    +0.000 A 
ATOM     10  C   UNL     1       2.206   7.902  19.251  0.00  0.00    +0.000 A 
ATOM     11  C   UNL     1       2.794   6.654  19.511  0.00  0.00    +0.000 A 
ATOM     12  C   UNL     1       3.708   6.083  18.606  0.00  0.00    +0.000 A 
ATOM     13  C   UNL     1       0.837   7.891  21.437  0.00  0.00    +0.000 C 
ATOM     14  C   UNL     1      -0.378   8.534  22.113  0.00  0.00    +0.000 C 
ATOM     15  C   UNL     1      -0.265  10.050  22.107  0.00  0.00    +0.000 C 
ATOM     16  C   UNL     1      -0.183  10.572  20.675  0.00  0.00    +0.000 C 
ENDROOT
BRANCH  12  17
ATOM     17  O   UNL     1       4.249   4.786  18.827  0.00  0.00    +0.000 OA
BRANCH  17  18
ATOM     18  C   UNL     1       3.521   3.608  18.578  0.00  0.00    +0.000 C 
ATOM     19  O   UNL     1       3.584   2.947  17.548  0.00  0.00    +0.000 OA
BRANCH  18  20
ATOM     20  C   UNL     1       2.697   3.267  19.719  0.00  0.00    +0.000 A 
ATOM     21  C   UNL     1       1.319   3.324  19.883  0.00  0.00    +0.000 A 
ATOM     22  C   UNL     1       1.033   2.834  21.180  0.00  0.00    +0.000 A 
ATOM     23  C   UNL     1       2.248   2.508  21.736  0.00  0.00    +0.000 A 
ATOM     24  O   UNL     1       3.258   2.768  20.867  0.00  0.00    +0.000 OA
ENDBRANCH  18  20
ENDBRANCH  17  18
ENDBRANCH  12  17
TORSDOF 3
ENDMDL
MODEL 5
REMARK VINA RESULT:      -7.8      2.424      4.472
REMARK  Name = 
REMARK  4 active torsions:
REMARK  status: ('A' for Active; 'I' for Inactive)
REMARK    1  A    between atoms: C_1  and  C_2
REMARK    2  A    between atoms: C_12  and  O_13
REMARK    3  A    between atoms: O_13  and  C_14
REMARK    4  A    between atoms: C_14  and  C_16
REMARK                            x       y       z     vdW  Elec       q    Type
REMARK                         _______ _______ _______ _____ _____    ______ ____
ROOT
ATOM      1  C   UNL     1       5.600   4.402  16.311  0.00  0.00    +0.000 C 
ATOM      2  C   UNL     1       4.706   5.182  17.230  0.00  0.00    +0.000 A 
ATOM      3  C   UNL     1       4.276   6.452  16.831  0.00  0.00    +0.000 A 
ATOM      4  C   UNL     1       3.427   7.196  17.649  0.00  0.00    +0.000 A 
ATOM      5  O   UNL     1       3.047   8.453  17.153  0.00  0.00    +0.000 OA
ATOM      6  C   UNL     1       2.204   9.285  17.863  0.00  0.00    +0.000 A 
ATOM      7  O   UNL     1       1.864  10.377  17.418  0.00  0.00    +0.000 OA
ATOM      8  C   UNL     1       1.728   8.796  19.181  0.00  0.00    +0.000 A 
ATOM      9  C   UNL     1       2.065   7.582  19.664  0.00  0.00    +0.000 A 
ATOM     10  C   UNL     1       2.969   6.725  18.876  0.00  0.00    +0.000 A 
ATOM     11  C   UNL     1       3.404   5.453  19.281  0.00  0.00    +0.000 A 
ATOM     12  C   UNL     1       4.277   4.697  18.477  0.00  0.00    +0.000 A 
ATOM     13  C   UNL     1       1.537   7.085  20.991  0.00  0.00    +0.000 C 
ATOM     14  C   UNL     1       0.381   7.920  21.549  0.00  0.00    +0.000 C 
ATOM     15  C   UNL     1       0.665   9.407  21.401  0.00  0.00    +0.000 C 
ATOM     16  C   UNL     1       0.851   9.768  19.929  0.00  0.00    +0.000 C 
ENDROOT
BRANCH  12  17
ATOM     17  O   UNL     1       4.662   3.379  18.845  0.00  0.00    +0.000 OA
BRANCH  17  18
ATOM     18  C   UNL     1       3.752   2.306  18.884  0.00  0.00    +0.000 C 
ATOM     19  O   UNL     1       3.817   1.303  18.183  0.00  0.00    +0.000 OA
BRANCH  18  20
ATOM     20  C   UNL     1       2.732   2.538  19.886  0.00  0.00    +0.000 A 
ATOM     21  C   UNL     1       1.357   2.677  19.755  0.00  0.00    +0.000 A 
ATOM     22  C   UNL     1       0.828   2.845  21.058  0.00  0.00    +0.000 A 
ATOM     23  C   UNL     1       1.906   2.801  21.910  0.00  0.00    +0.000 A 
ATOM     24  O   UNL     1       3.060   2.621  21.216  0.00  0.00    +0.000 OA
ENDBRANCH  18  20
ENDBRANCH  17  18
ENDBRANCH  12  17
TORSDOF 3
ENDMDL
MODEL 6
REMARK VINA RESULT:      -7.8      2.383      4.582
REMARK  Name = 
REMARK  4 active torsions:
REMARK  status: ('A' for Active; 'I' for Inactive)
REMARK    1  A    between atoms: C_1  and  C_2
REMARK    2  A    between atoms: C_12  and  O_13
REMARK    3  A    between atoms: O_13  and  C_14
REMARK    4  A    between atoms: C_14  and  C_16
REMARK                            x       y       z     vdW  Elec       q    Type
REMARK                         _______ _______ _______ _____ _____    ______ ____
ROOT
ATOM      1  C   UNL     1       5.966   4.326  16.523  0.00  0.00    +0.000 C 
ATOM      2  C   UNL     1       5.009   5.086  17.394  0.00  0.00    +0.000 A 
ATOM      3  C   UNL     1       4.523   6.319  16.943  0.00  0.00    +0.000 A 
ATOM      4  C   UNL     1       3.616   7.043  17.715  0.00  0.00    +0.000 A 
ATOM      5  O   UNL     1       3.184   8.261  17.167  0.00  0.00    +0.000 OA
ATOM      6  C   UNL     1       2.280   9.070  17.829  0.00  0.00    +0.000 A 
ATOM      7  O   UNL     1       1.896  10.127  17.339  0.00  0.00    +0.000 OA
ATOM      8  C   UNL     1       1.798   8.599  19.151  0.00  0.00    +0.000 A 
ATOM      9  C   UNL     1       2.186   7.421  19.683  0.00  0.00    +0.000 A 
ATOM     10  C   UNL     1       3.152   6.588  18.946  0.00  0.00    +0.000 A 
ATOM     11  C   UNL     1       3.643   5.354  19.403  0.00  0.00    +0.000 A 
ATOM     12  C   UNL     1       4.574   4.621  18.646  0.00  0.00    +0.000 A 
ATOM     13  C   UNL     1       1.651   6.940  21.013  0.00  0.00    +0.000 C 
ATOM     14  C   UNL     1       0.439   7.731  21.514  0.00  0.00    +0.000 C 
ATOM     15  C   UNL     1       0.648   9.225  21.323  0.00  0.00    +0.000 C 
ATOM     16  C   UNL     1       0.852   9.548  19.845  0.00  0.00    +0.000 C 
ENDROOT
BRANCH  12  17
ATOM     17  O   UNL     1       5.017   3.337  19.068  0.00  0.00    +0.000 OA
BRANCH  17  18
ATOM     18  C   UNL     1       4.344   2.586  20.049  0.00  0.00    +0.000 C 
ATOM     19  O   UNL     1       4.878   2.047  21.011  0.00  0.00    +0.000 OA
BRANCH  18  20
ATOM     20  C   UNL     1       2.922   2.551  19.778  0.00  0.00    +0.000 A 
ATOM     21  C   UNL     1       1.846   2.941  20.563  0.00  0.00    +0.000 A 
ATOM     22  C   UNL     1       0.673   2.732  19.798  0.00  0.00    +0.000 A 
ATOM     23  C   UNL     1       1.096   2.227  18.591  0.00  0.00    +0.000 A 
ATOM     24  O   UNL     1       2.449   2.109  18.568  0.00  0.00    +0.000 OA
ENDBRANCH  18  20
ENDBRANCH  17  18
ENDBRANCH  12  17
TORSDOF 3
ENDMDL
MODEL 7
REMARK VINA RESULT:      -7.7      0.915      1.108
REMARK  Name = 
REMARK  4 active torsions:
REMARK  status: ('A' for Active; 'I' for Inactive)
REMARK    1  A    between atoms: C_1  and  C_2
REMARK    2  A    between atoms: C_12  and  O_13
REMARK    3  A    between atoms: O_13  and  C_14
REMARK    4  A    between atoms: C_14  and  C_16
REMARK                            x       y       z     vdW  Elec       q    Type
REMARK                         _______ _______ _______ _____ _____    ______ ____
ROOT
ATOM      1  C   UNL     1       3.811   2.475  19.081  0.00  0.00    +0.000 C 
ATOM      2  C   UNL     1       3.386   3.907  18.937  0.00  0.00    +0.000 A 
ATOM      3  C   UNL     1       2.683   4.509  19.987  0.00  0.00    +0.000 A 
ATOM      4  C   UNL     1       2.292   5.844  19.898  0.00  0.00    +0.000 A 
ATOM      5  O   UNL     1       1.601   6.353  21.008  0.00  0.00    +0.000 OA
ATOM      6  C   UNL     1       1.164   7.663  21.048  0.00  0.00    +0.000 A 
ATOM      7  O   UNL     1       0.573   8.107  22.028  0.00  0.00    +0.000 OA
ATOM      8  C   UNL     1       1.447   8.504  19.858  0.00  0.00    +0.000 A 
ATOM      9  C   UNL     1       2.129   8.037  18.791  0.00  0.00    +0.000 A 
ATOM     10  C   UNL     1       2.575   6.633  18.787  0.00  0.00    +0.000 A 
ATOM     11  C   UNL     1       3.276   6.030  17.730  0.00  0.00    +0.000 A 
ATOM     12  C   UNL     1       3.660   4.678  17.795  0.00  0.00    +0.000 A 
ATOM     13  C   UNL     1       2.442   8.922  17.605  0.00  0.00    +0.000 C 
ATOM     14  C   UNL     1       2.205  10.412  17.867  0.00  0.00    +0.000 C 
ATOM     15  C   UNL     1       0.891  10.634  18.599  0.00  0.00    +0.000 C 
ATOM     16  C   UNL     1       0.903   9.908  19.942  0.00  0.00    +0.000 C 
ENDROOT
BRANCH  12  17
ATOM     17  O   UNL     1       4.434   4.083  16.762  0.00  0.00    +0.000 OA
BRANCH  17  18
ATOM     18  C   UNL     1       5.388   4.801  16.017  0.00  0.00    +0.000 C 
ATOM     19  O   UNL     1       5.469   4.803  14.794  0.00  0.00    +0.000 OA
BRANCH  18  20
ATOM     20  C   UNL     1       6.255   5.558  16.895  0.00  0.00    +0.000 A 
ATOM     21  C   UNL     1       6.956   5.164  18.027  0.00  0.00    +0.000 A 
ATOM     22  C   UNL     1       7.685   6.291  18.480  0.00  0.00    +0.000 A 
ATOM     23  C   UNL     1       7.389   7.308  17.603  0.00  0.00    +0.000 A 
ATOM     24  O   UNL     1       6.525   6.880  16.646  0.00  0.00    +0.000 OA
ENDBRANCH  18  20
ENDBRANCH  17  18
ENDBRANCH  12  17
TORSDOF 3
ENDMDL
MODEL 8
REMARK VINA RESULT:      -7.7      1.301      2.099
REMARK  Name = 
REMARK  4 active torsions:
REMARK  status: ('A' for Active; 'I' for Inactive)
REMARK    1  A    between atoms: C_1  and  C_2
REMARK    2  A    between atoms: C_12  and  O_13
REMARK    3  A    between atoms: O_13  and  C_14
REMARK    4  A    between atoms: C_14  and  C_16
REMARK                            x       y       z     vdW  Elec       q    Type
REMARK                         _______ _______ _______ _____ _____    ______ ____
ROOT
ATOM      1  C   UNL     1       3.490   3.730  19.139  0.00  0.00    +0.000 C 
ATOM      2  C   UNL     1       3.008   5.150  19.087  0.00  0.00    +0.000 A 
ATOM      3  C   UNL     1       2.274   5.651  20.168  0.00  0.00    +0.000 A 
ATOM      4  C   UNL     1       1.829   6.973  20.164  0.00  0.00    +0.000 A 
ATOM      5  O   UNL     1       1.110   7.378  21.299  0.00  0.00    +0.000 OA
ATOM      6  C   UNL     1       0.620   8.664  21.422  0.00  0.00    +0.000 A 
ATOM      7  O   UNL     1       0.005   9.017  22.423  0.00  0.00    +0.000 OA
ATOM      8  C   UNL     1       0.877   9.593  20.294  0.00  0.00    +0.000 A 
ATOM      9  C   UNL     1       1.585   9.227  19.205  0.00  0.00    +0.000 A 
ATOM     10  C   UNL     1       2.089   7.845  19.111  0.00  0.00    +0.000 A 
ATOM     11  C   UNL     1       2.820   7.343  18.023  0.00  0.00    +0.000 A 
ATOM     12  C   UNL     1       3.259   6.006  18.002  0.00  0.00    +0.000 A 
ATOM     13  C   UNL     1       1.871  10.201  18.084  0.00  0.00    +0.000 C 
ATOM     14  C   UNL     1       1.572  11.660  18.442  0.00  0.00    +0.000 C 
ATOM     15  C   UNL     1       0.245  11.779  19.174  0.00  0.00    +0.000 C 
ATOM     16  C   UNL     1       0.276  10.966  20.466  0.00  0.00    +0.000 C 
ENDROOT
BRANCH  12  17
ATOM     17  O   UNL     1       4.064   5.513  16.939  0.00  0.00    +0.000 OA
BRANCH  17  18
ATOM     18  C   UNL     1       5.450   5.746  16.864  0.00  0.00    +0.000 C 
ATOM     19  O   UNL     1       6.111   6.328  17.714  0.00  0.00    +0.000 OA
BRANCH  18  20
ATOM     20  C   UNL     1       5.996   5.184  15.646  0.00  0.00    +0.000 A 
ATOM     21  C   UNL     1       5.461   4.255  14.764  0.00  0.00    +0.000 A 
ATOM     22  C   UNL     1       6.396   4.090  13.714  0.00  0.00    +0.000 A 
ATOM     23  C   UNL     1       7.448   4.923  14.011  0.00  0.00    +0.000 A 
ATOM     24  O   UNL     1       7.221   5.584  15.176  0.00  0.00    +0.000 OA
ENDBRANCH  18  20
ENDBRANCH  17  18
ENDBRANCH  12  17
TORSDOF 3
ENDMDL
MODEL 9
REMARK VINA RESULT:      -7.4      2.379      7.418
REMARK  Name = 
REMARK  4 active torsions:
REMARK  status: ('A' for Active; 'I' for Inactive)
REMARK    1  A    between atoms: C_1  and  C_2
REMARK    2  A    between atoms: C_12  and  O_13
REMARK    3  A    between atoms: O_13  and  C_14
REMARK    4  A    between atoms: C_14  and  C_16
REMARK                            x       y       z     vdW  Elec       q    Type
REMARK                         _______ _______ _______ _____ _____    ______ ____
ROOT
ATOM      1  C   UNL     1       2.234  10.327  17.910  0.00  0.00    +0.000 C 
ATOM      2  C   UNL     1       2.245   8.926  18.447  0.00  0.00    +0.000 A 
ATOM      3  C   UNL     1       2.819   7.913  17.670  0.00  0.00    +0.000 A 
ATOM      4  C   UNL     1       2.866   6.603  18.146  0.00  0.00    +0.000 A 
ATOM      5  O   UNL     1       3.471   5.666  17.294  0.00  0.00    +0.000 OA
ATOM      6  C   UNL     1       3.587   4.336  17.650  0.00  0.00    +0.000 A 
ATOM      7  O   UNL     1       4.130   3.524  16.907  0.00  0.00    +0.000 OA
ATOM      8  C   UNL     1       3.031   3.941  18.968  0.00  0.00    +0.000 A 
ATOM      9  C   UNL     1       2.465   4.832  19.808  0.00  0.00    +0.000 A 
ATOM     10  C   UNL     1       2.359   6.241  19.390  0.00  0.00    +0.000 A 
ATOM     11  C   UNL     1       1.777   7.254  20.169  0.00  0.00    +0.000 A 
ATOM     12  C   UNL     1       1.703   8.577  19.695  0.00  0.00    +0.000 A 
ATOM     13  C   UNL     1       1.940   4.416  21.165  0.00  0.00    +0.000 C 
ATOM     14  C   UNL     1       2.389   3.018  21.599  0.00  0.00    +0.000 C 
ATOM     15  C   UNL     1       2.271   2.028  20.450  0.00  0.00    +0.000 C 
ATOM     16  C   UNL     1       3.144   2.469  19.278  0.00  0.00    +0.000 C 
ENDROOT
BRANCH  12  17
ATOM     17  O   UNL     1       1.183   9.622  20.508  0.00  0.00    +0.000 OA
BRANCH  17  18
ATOM     18  C   UNL     1      -0.180   9.711  20.850  0.00  0.00    +0.000 C 
ATOM     19  O   UNL     1      -0.701   9.155  21.809  0.00  0.00    +0.000 OA
BRANCH  18  20
ATOM     20  C   UNL     1      -0.883  10.569  19.920  0.00  0.00    +0.000 A 
ATOM     21  C   UNL     1      -1.420  10.293  18.669  0.00  0.00    +0.000 A 
ATOM     22  C   UNL     1      -2.038  11.481  18.209  0.00  0.00    +0.000 A 
ATOM     23  C   UNL     1      -1.845  12.414  19.200  0.00  0.00    +0.000 A 
ATOM     24  O   UNL     1      -1.147  11.879  20.234  0.00  0.00    +0.000 OA
ENDBRANCH  18  20
ENDBRANCH  17  18
ENDBRANCH  12  17
TORSDOF 3
ENDMDL
