MODEL 1
REMARK VINA RESULT:      -6.7      0.000      0.000
REMARK  Name = 
REMARK  7 active torsions:
REMARK  status: ('A' for Active; 'I' for Inactive)
REMARK    1  A    between atoms: C_2  and  C_3
REMARK    2  A    between atoms: C_3  and  C_4
REMARK    3  A    between atoms: C_4  and  N_5
REMARK    4  A    between atoms: N_8  and  C_9
REMARK    5  A    between atoms: C_9  and  C_10
REMARK    6  A    between atoms: C_10  and  O_11
REMARK    7  A    between atoms: N_14  and  C_15
REMARK                            x       y       z     vdW  Elec       q    Type
REMARK                         _______ _______ _______ _____ _____    ______ ____
ROOT
ATOM      1  C   UNL     1       6.426   6.113  17.914  0.00  0.00    +0.000 C 
ENDROOT
BRANCH   1   3
ATOM      2  O   UNL     1       8.066   4.606  16.926  0.00  0.00    +0.000 OA
ATOM      3  C   UNL     1       7.011   5.221  16.811  0.00  0.00    +0.000 C 
ATOM      4  N   UNL     1       6.291   5.377  15.623  0.00  0.00    +0.000 N 
ATOM      5  H   UNL     1       5.476   5.974  15.669  0.00  0.00    +0.000 HD
BRANCH   4   6
ATOM      6  C   UNL     1       6.586   4.903  14.325  0.00  0.00    +0.000 A 
ATOM      7  C   UNL     1       7.605   5.402  13.510  0.00  0.00    +0.000 A 
ATOM      8  C   UNL     1       7.788   4.904  12.212  0.00  0.00    +0.000 A 
ATOM      9  C   UNL     1       6.967   3.892  11.721  0.00  0.00    +0.000 A 
ATOM     10  C   UNL     1       5.964   3.373  12.524  0.00  0.00    +0.000 A 
ATOM     11  C   UNL     1       5.777   3.874  13.821  0.00  0.00    +0.000 A 
ENDBRANCH   4   6
ENDBRANCH   1   3
BRANCH   1  12
ATOM     12  C   UNL     1       4.896   6.161  18.118  0.00  0.00    +0.000 C 
BRANCH  12  13
ATOM     13  N   UNL     1       4.492   5.341  19.293  0.00  0.00    +0.000 NA
ATOM     14  C   UNL     1       3.075   5.519  19.703  0.00  0.00    +0.000 C 
ATOM     15  C   UNL     1       2.011   4.674  18.941  0.00  0.00    +0.000 C 
ATOM     16  N   UNL     1       2.331   3.245  18.716  0.00  0.00    +0.000 NA
ATOM     17  C   UNL     1       3.732   3.157  18.250  0.00  0.00    +0.000 C 
ATOM     18  C   UNL     1       4.745   3.895  19.157  0.00  0.00    +0.000 C 
BRANCH  16  19
ATOM     19  C   UNL     1       2.131   2.376  19.900  0.00  0.00    +0.000 C 
BRANCH  19  20
ATOM     20  C   UNL     1       1.296   2.999  21.031  0.00  0.00    +0.000 C 
BRANCH  20  21
ATOM     21  O   UNL     1       1.538   2.340  22.269  0.00  0.00    +0.000 OA
ATOM     22  H   UNL     1       2.399   2.680  22.581  0.00  0.00    +0.000 HD
ENDBRANCH  20  21
ENDBRANCH  19  20
ENDBRANCH  16  19
ENDBRANCH  12  13
ENDBRANCH   1  12
TORSDOF 7
ENDMDL
MODEL 2
REMARK VINA RESULT:      -6.7      1.021      1.599
REMARK  Name = 
REMARK  7 active torsions:
REMARK  status: ('A' for Active; 'I' for Inactive)
REMARK    1  A    between atoms: C_2  and  C_3
REMARK    2  A    between atoms: C_3  and  C_4
REMARK    3  A    between atoms: C_4  and  N_5
REMARK    4  A    between atoms: N_8  and  C_9
REMARK    5  A    between atoms: C_9  and  C_10
REMARK    6  A    between atoms: C_10  and  O_11
REMARK    7  A    between atoms: N_14  and  C_15
REMARK                            x       y       z     vdW  Elec       q    Type
REMARK                         _______ _______ _______ _____ _____    ______ ____
ROOT
ATOM      1  C   UNL     1       6.037   5.593  17.956  0.00  0.00    +0.000 C 
ENDROOT
BRANCH   1   3
ATOM      2  O   UNL     1       7.972   4.546  16.910  0.00  0.00    +0.000 OA
ATOM      3  C   UNL     1       6.807   4.917  16.814  0.00  0.00    +0.000 C 
ATOM      4  N   UNL     1       6.072   4.976  15.627  0.00  0.00    +0.000 N 
ATOM      5  H   UNL     1       5.144   5.374  15.694  0.00  0.00    +0.000 HD
BRANCH   4   6
ATOM      6  C   UNL     1       6.467   4.654  14.308  0.00  0.00    +0.000 A 
ATOM      7  C   UNL     1       7.471   5.314  13.597  0.00  0.00    +0.000 A 
ATOM      8  C   UNL     1       7.756   4.957  12.271  0.00  0.00    +0.000 A 
ATOM      9  C   UNL     1       7.054   3.929  11.648  0.00  0.00    +0.000 A 
ATOM     10  C   UNL     1       6.069   3.252  12.348  0.00  0.00    +0.000 A 
ATOM     11  C   UNL     1       5.779   3.610  13.673  0.00  0.00    +0.000 A 
ENDBRANCH   4   6
ENDBRANCH   1   3
BRANCH   1  12
ATOM     12  C   UNL     1       4.790   6.444  17.630  0.00  0.00    +0.000 C 
BRANCH  12  13
ATOM     13  N   UNL     1       3.553   5.618  17.698  0.00  0.00    +0.000 NA
ATOM     14  C   UNL     1       3.730   4.308  18.375  0.00  0.00    +0.000 C 
ATOM     15  C   UNL     1       3.637   4.300  19.930  0.00  0.00    +0.000 C 
ATOM     16  N   UNL     1       2.526   5.073  20.534  0.00  0.00    +0.000 NA
ATOM     17  C   UNL     1       2.456   6.384  19.854  0.00  0.00    +0.000 C 
ATOM     18  C   UNL     1       2.392   6.290  18.311  0.00  0.00    +0.000 C 
BRANCH  16  19
ATOM     19  C   UNL     1       1.207   4.398  20.481  0.00  0.00    +0.000 C 
BRANCH  19  20
ATOM     20  C   UNL     1       1.247   2.874  20.680  0.00  0.00    +0.000 C 
BRANCH  20  21
ATOM     21  O   UNL     1       1.448   2.541  22.049  0.00  0.00    +0.000 OA
ATOM     22  H   UNL     1       1.548   3.395  22.513  0.00  0.00    +0.000 HD
ENDBRANCH  20  21
ENDBRANCH  19  20
ENDBRANCH  16  19
ENDBRANCH  12  13
ENDBRANCH   1  12
TORSDOF 7
ENDMDL
MODEL 3
REMARK VINA RESULT:      -6.7      1.249      1.670
REMARK  Name = 
REMARK  7 active torsions:
REMARK  status: ('A' for Active; 'I' for Inactive)
REMARK    1  A    between atoms: C_2  and  C_3
REMARK    2  A    between atoms: C_3  and  C_4
REMARK    3  A    between atoms: C_4  and  N_5
REMARK    4  A    between atoms: N_8  and  C_9
REMARK    5  A    between atoms: C_9  and  C_10
REMARK    6  A    between atoms: C_10  and  O_11
REMARK    7  A    between atoms: N_14  and  C_15
REMARK                            x       y       z     vdW  Elec       q    Type
REMARK                         _______ _______ _______ _____ _____    ______ ____
ROOT
ATOM      1  C   UNL     1       7.386   6.080  18.297  0.00  0.00    +0.000 C 
ENDROOT
BRANCH   1   3
ATOM      2  O   UNL     1       6.466   7.217  16.348  0.00  0.00    +0.000 OA
ATOM      3  C   UNL     1       7.089   6.263  16.802  0.00  0.00    +0.000 C 
ATOM      4  N   UNL     1       7.443   5.115  16.090  0.00  0.00    +0.000 N 
ATOM      5  H   UNL     1       7.893   4.380  16.620  0.00  0.00    +0.000 HD
BRANCH   4   6
ATOM      6  C   UNL     1       7.177   4.775  14.744  0.00  0.00    +0.000 A 
ATOM      7  C   UNL     1       7.890   5.260  13.646  0.00  0.00    +0.000 A 
ATOM      8  C   UNL     1       7.517   4.907  12.341  0.00  0.00    +0.000 A 
ATOM      9  C   UNL     1       6.439   4.054  12.120  0.00  0.00    +0.000 A 
ATOM     10  C   UNL     1       5.734   3.548  13.200  0.00  0.00    +0.000 A 
ATOM     11  C   UNL     1       6.103   3.904  14.506  0.00  0.00    +0.000 A 
ENDBRANCH   4   6
ENDBRANCH   1   3
BRANCH   1  12
ATOM     12  C   UNL     1       6.310   5.455  19.212  0.00  0.00    +0.000 C 
BRANCH  12  13
ATOM     13  N   UNL     1       5.074   5.146  18.442  0.00  0.00    +0.000 NA
ATOM     14  C   UNL     1       4.882   3.701  18.152  0.00  0.00    +0.000 C 
ATOM     15  C   UNL     1       4.218   2.842  19.269  0.00  0.00    +0.000 C 
ATOM     16  N   UNL     1       3.028   3.421  19.936  0.00  0.00    +0.000 NA
ATOM     17  C   UNL     1       3.321   4.836  20.250  0.00  0.00    +0.000 C 
ATOM     18  C   UNL     1       3.827   5.657  19.040  0.00  0.00    +0.000 C 
BRANCH  16  19
ATOM     19  C   UNL     1       1.773   3.320  19.153  0.00  0.00    +0.000 C 
BRANCH  19  20
ATOM     20  C   UNL     1       0.498   3.131  19.990  0.00  0.00    +0.000 C 
BRANCH  20  21
ATOM     21  O   UNL     1       0.813   2.778  21.332  0.00  0.00    +0.000 OA
ATOM     22  H   UNL     1       1.787   2.807  21.388  0.00  0.00    +0.000 HD
ENDBRANCH  20  21
ENDBRANCH  19  20
ENDBRANCH  16  19
ENDBRANCH  12  13
ENDBRANCH   1  12
TORSDOF 7
ENDMDL
MODEL 4
REMARK VINA RESULT:      -6.5      4.811      6.843
REMARK  Name = 
REMARK  7 active torsions:
REMARK  status: ('A' for Active; 'I' for Inactive)
REMARK    1  A    between atoms: C_2  and  C_3
REMARK    2  A    between atoms: C_3  and  C_4
REMARK    3  A    between atoms: C_4  and  N_5
REMARK    4  A    between atoms: N_8  and  C_9
REMARK    5  A    between atoms: C_9  and  C_10
REMARK    6  A    between atoms: C_10  and  O_11
REMARK    7  A    between atoms: N_14  and  C_15
REMARK                            x       y       z     vdW  Elec       q    Type
REMARK                         _______ _______ _______ _____ _____    ______ ____
ROOT
ATOM      1  C   UNL     1       8.225   7.593  18.321  0.00  0.00    +0.000 C 
ENDROOT
BRANCH   1   3
ATOM      2  O   UNL     1       7.852   9.867  17.529  0.00  0.00    +0.000 OA
ATOM      3  C   UNL     1       8.342   9.122  18.372  0.00  0.00    +0.000 C 
ATOM      4  N   UNL     1       9.234   9.511  19.374  0.00  0.00    +0.000 N 
ATOM      5  H   UNL     1       9.610   8.769  19.951  0.00  0.00    +0.000 HD
BRANCH   4   6
ATOM      6  C   UNL     1       9.779  10.786  19.647  0.00  0.00    +0.000 A 
ATOM      7  C   UNL     1      10.723  11.433  18.848  0.00  0.00    +0.000 A 
ATOM      8  C   UNL     1      11.247  12.677  19.229  0.00  0.00    +0.000 A 
ATOM      9  C   UNL     1      10.822  13.293  20.403  0.00  0.00    +0.000 A 
ATOM     10  C   UNL     1       9.872  12.673  21.197  0.00  0.00    +0.000 A 
ATOM     11  C   UNL     1       9.350  11.427  20.819  0.00  0.00    +0.000 A 
ENDBRANCH   4   6
ENDBRANCH   1   3
BRANCH   1  12
ATOM     12  C   UNL     1       7.332   6.937  17.244  0.00  0.00    +0.000 C 
BRANCH  12  13
ATOM     13  N   UNL     1       7.144   5.486  17.523  0.00  0.00    +0.000 NA
ATOM     14  C   UNL     1       6.715   5.183  18.913  0.00  0.00    +0.000 C 
ATOM     15  C   UNL     1       5.190   5.282  19.215  0.00  0.00    +0.000 C 
ATOM     16  N   UNL     1       4.273   4.674  18.223  0.00  0.00    +0.000 NA
ATOM     17  C   UNL     1       4.727   5.074  16.874  0.00  0.00    +0.000 C 
ATOM     18  C   UNL     1       6.224   4.793  16.604  0.00  0.00    +0.000 C 
BRANCH  16  19
ATOM     19  C   UNL     1       4.165   3.198  18.309  0.00  0.00    +0.000 C 
BRANCH  19  20
ATOM     20  C   UNL     1       4.096   2.633  19.737  0.00  0.00    +0.000 C 
BRANCH  20  21
ATOM     21  O   UNL     1       5.129   1.680  19.961  0.00  0.00    +0.000 OA
ATOM     22  H   UNL     1       4.904   0.914  19.400  0.00  0.00    +0.000 HD
ENDBRANCH  20  21
ENDBRANCH  19  20
ENDBRANCH  16  19
ENDBRANCH  12  13
ENDBRANCH   1  12
TORSDOF 7
ENDMDL
MODEL 5
REMARK VINA RESULT:      -6.5      4.837      6.873
REMARK  Name = 
REMARK  7 active torsions:
REMARK  status: ('A' for Active; 'I' for Inactive)
REMARK    1  A    between atoms: C_2  and  C_3
REMARK    2  A    between atoms: C_3  and  C_4
REMARK    3  A    between atoms: C_4  and  N_5
REMARK    4  A    between atoms: N_8  and  C_9
REMARK    5  A    between atoms: C_9  and  C_10
REMARK    6  A    between atoms: C_10  and  O_11
REMARK    7  A    between atoms: N_14  and  C_15
REMARK                            x       y       z     vdW  Elec       q    Type
REMARK                         _______ _______ _______ _____ _____    ______ ____
ROOT
ATOM      1  C   UNL     1       8.258   7.676  18.212  0.00  0.00    +0.000 C 
ENDROOT
BRANCH   1   3
ATOM      2  O   UNL     1       7.889  10.002  17.588  0.00  0.00    +0.000 OA
ATOM      3  C   UNL     1       8.366   9.198  18.382  0.00  0.00    +0.000 C 
ATOM      4  N   UNL     1       9.237   9.513  19.428  0.00  0.00    +0.000 N 
ATOM      5  H   UNL     1       9.606   8.731  19.954  0.00  0.00    +0.000 HD
BRANCH   4   6
ATOM      6  C   UNL     1       9.769  10.766  19.807  0.00  0.00    +0.000 A 
ATOM      7  C   UNL     1       9.368  11.491  20.931  0.00  0.00    +0.000 A 
ATOM      8  C   UNL     1       9.917  12.754  21.197  0.00  0.00    +0.000 A 
ATOM      9  C   UNL     1      10.882  13.298  20.354  0.00  0.00    +0.000 A 
ATOM     10  C   UNL     1      11.305  12.581  19.247  0.00  0.00    +0.000 A 
ATOM     11  C   UNL     1      10.754  11.320  18.976  0.00  0.00    +0.000 A 
ENDBRANCH   4   6
ENDBRANCH   1   3
BRANCH   1  12
ATOM     12  C   UNL     1       7.046   7.081  17.463  0.00  0.00    +0.000 C 
BRANCH  12  13
ATOM     13  N   UNL     1       6.916   5.624  17.739  0.00  0.00    +0.000 NA
ATOM     14  C   UNL     1       6.377   5.303  19.085  0.00  0.00    +0.000 C 
ATOM     15  C   UNL     1       4.827   5.315  19.243  0.00  0.00    +0.000 C 
ATOM     16  N   UNL     1       4.043   4.650  18.176  0.00  0.00    +0.000 NA
ATOM     17  C   UNL     1       4.598   5.068  16.871  0.00  0.00    +0.000 C 
ATOM     18  C   UNL     1       6.127   4.873  16.745  0.00  0.00    +0.000 C 
BRANCH  16  19
ATOM     19  C   UNL     1       4.012   3.170  18.267  0.00  0.00    +0.000 C 
BRANCH  19  20
ATOM     20  C   UNL     1       3.972   2.607  19.697  0.00  0.00    +0.000 C 
BRANCH  20  21
ATOM     21  O   UNL     1       5.123   1.815  19.968  0.00  0.00    +0.000 OA
ATOM     22  H   UNL     1       5.565   1.694  19.106  0.00  0.00    +0.000 HD
ENDBRANCH  20  21
ENDBRANCH  19  20
ENDBRANCH  16  19
ENDBRANCH  12  13
ENDBRANCH   1  12
TORSDOF 7
ENDMDL
MODEL 6
REMARK VINA RESULT:      -6.5      6.099      9.030
REMARK  Name = 
REMARK  7 active torsions:
REMARK  status: ('A' for Active; 'I' for Inactive)
REMARK    1  A    between atoms: C_2  and  C_3
REMARK    2  A    between atoms: C_3  and  C_4
REMARK    3  A    between atoms: C_4  and  N_5
REMARK    4  A    between atoms: N_8  and  C_9
REMARK    5  A    between atoms: C_9  and  C_10
REMARK    6  A    between atoms: C_10  and  O_11
REMARK    7  A    between atoms: N_14  and  C_15
REMARK                            x       y       z     vdW  Elec       q    Type
REMARK                         _______ _______ _______ _____ _____    ______ ____
ROOT
ATOM      1  C   UNL     1       8.307   9.144  17.991  0.00  0.00    +0.000 C 
ENDROOT
BRANCH   1   3
ATOM      2  O   UNL     1       8.234   6.868  18.857  0.00  0.00    +0.000 OA
ATOM      3  C   UNL     1       7.778   7.707  18.087  0.00  0.00    +0.000 C 
ATOM      4  N   UNL     1       6.872   7.450  17.055  0.00  0.00    +0.000 N 
ATOM      5  H   UNL     1       6.644   8.232  16.455  0.00  0.00    +0.000 HD
BRANCH   4   6
ATOM      6  C   UNL     1       6.294   6.225  16.651  0.00  0.00    +0.000 A 
ATOM      7  C   UNL     1       5.085   5.721  17.135  0.00  0.00    +0.000 A 
ATOM      8  C   UNL     1       4.616   4.468  16.714  0.00  0.00    +0.000 A 
ATOM      9  C   UNL     1       5.341   3.713  15.796  0.00  0.00    +0.000 A 
ATOM     10  C   UNL     1       6.532   4.209  15.292  0.00  0.00    +0.000 A 
ATOM     11  C   UNL     1       7.005   5.460  15.714  0.00  0.00    +0.000 A 
ENDBRANCH   4   6
ENDBRANCH   1   3
BRANCH   1  12
ATOM     12  C   UNL     1       9.199   9.700  19.123  0.00  0.00    +0.000 C 
BRANCH  12  13
ATOM     13  N   UNL     1       9.139  11.187  19.164  0.00  0.00    +0.000 NA
ATOM     14  C   UNL     1       9.962  11.802  20.237  0.00  0.00    +0.000 C 
ATOM     15  C   UNL     1      11.472  12.024  19.926  0.00  0.00    +0.000 C 
ATOM     16  N   UNL     1      11.802  12.597  18.600  0.00  0.00    +0.000 NA
ATOM     17  C   UNL     1      10.993  11.892  17.582  0.00  0.00    +0.000 C 
ATOM     18  C   UNL     1       9.479  11.856  17.894  0.00  0.00    +0.000 C 
BRANCH  16  19
ATOM     19  C   UNL     1      11.594  14.061  18.493  0.00  0.00    +0.000 C 
BRANCH  19  20
ATOM     20  C   UNL     1      12.160  14.707  17.218  0.00  0.00    +0.000 C 
BRANCH  20  21
ATOM     21  O   UNL     1      11.115  15.122  16.346  0.00  0.00    +0.000 OA
ATOM     22  H   UNL     1      10.317  15.185  16.906  0.00  0.00    +0.000 HD
ENDBRANCH  20  21
ENDBRANCH  19  20
ENDBRANCH  16  19
ENDBRANCH  12  13
ENDBRANCH   1  12
TORSDOF 7
ENDMDL
MODEL 7
REMARK VINA RESULT:      -6.5      0.869      1.380
REMARK  Name = 
REMARK  7 active torsions:
REMARK  status: ('A' for Active; 'I' for Inactive)
REMARK    1  A    between atoms: C_2  and  C_3
REMARK    2  A    between atoms: C_3  and  C_4
REMARK    3  A    between atoms: C_4  and  N_5
REMARK    4  A    between atoms: N_8  and  C_9
REMARK    5  A    between atoms: C_9  and  C_10
REMARK    6  A    between atoms: C_10  and  O_11
REMARK    7  A    between atoms: N_14  and  C_15
REMARK                            x       y       z     vdW  Elec       q    Type
REMARK                         _______ _______ _______ _____ _____    ______ ____
ROOT
ATOM      1  C   UNL     1       6.537   5.892  18.034  0.00  0.00    +0.000 C 
ENDROOT
BRANCH   1   3
ATOM      2  O   UNL     1       8.084   4.386  16.905  0.00  0.00    +0.000 OA
ATOM      3  C   UNL     1       7.032   5.016  16.875  0.00  0.00    +0.000 C 
ATOM      4  N   UNL     1       6.233   5.205  15.745  0.00  0.00    +0.000 N 
ATOM      5  H   UNL     1       5.431   5.811  15.859  0.00  0.00    +0.000 HD
BRANCH   4   6
ATOM      6  C   UNL     1       6.431   4.754  14.419  0.00  0.00    +0.000 A 
ATOM      7  C   UNL     1       5.658   3.776  13.791  0.00  0.00    +0.000 A 
ATOM      8  C   UNL     1       5.964   3.355  12.489  0.00  0.00    +0.000 A 
ATOM      9  C   UNL     1       7.033   3.916  11.796  0.00  0.00    +0.000 A 
ATOM     10  C   UNL     1       7.797   4.902  12.400  0.00  0.00    +0.000 A 
ATOM     11  C   UNL     1       7.496   5.322  13.703  0.00  0.00    +0.000 A 
ENDBRANCH   4   6
ENDBRANCH   1   3
BRANCH   1  12
ATOM     12  C   UNL     1       5.029   6.201  18.161  0.00  0.00    +0.000 C 
BRANCH  12  13
ATOM     13  N   UNL     1       4.378   5.274  19.127  0.00  0.00    +0.000 NA
ATOM     14  C   UNL     1       2.897   5.385  19.176  0.00  0.00    +0.000 C 
ATOM     15  C   UNL     1       2.097   4.587  18.105  0.00  0.00    +0.000 C 
ATOM     16  N   UNL     1       2.524   3.189  17.858  0.00  0.00    +0.000 NA
ATOM     17  C   UNL     1       3.999   3.172  17.758  0.00  0.00    +0.000 C 
ATOM     18  C   UNL     1       4.719   3.851  18.947  0.00  0.00    +0.000 C 
BRANCH  16  19
ATOM     19  C   UNL     1       2.070   2.217  18.880  0.00  0.00    +0.000 C 
BRANCH  19  20
ATOM     20  C   UNL     1       1.160   2.800  19.974  0.00  0.00    +0.000 C 
BRANCH  20  21
ATOM     21  O   UNL     1      -0.212   2.679  19.616  0.00  0.00    +0.000 OA
ATOM     22  H   UNL     1      -0.525   1.863  20.052  0.00  0.00    +0.000 HD
ENDBRANCH  20  21
ENDBRANCH  19  20
ENDBRANCH  16  19
ENDBRANCH  12  13
ENDBRANCH   1  12
TORSDOF 7
ENDMDL
MODEL 8
REMARK VINA RESULT:      -6.4      2.502      7.257
REMARK  Name = 
REMARK  7 active torsions:
REMARK  status: ('A' for Active; 'I' for Inactive)
REMARK    1  A    between atoms: C_2  and  C_3
REMARK    2  A    between atoms: C_3  and  C_4
REMARK    3  A    between atoms: C_4  and  N_5
REMARK    4  A    between atoms: N_8  and  C_9
REMARK    5  A    between atoms: C_9  and  C_10
REMARK    6  A    between atoms: C_10  and  O_11
REMARK    7  A    between atoms: N_14  and  C_15
REMARK                            x       y       z     vdW  Elec       q    Type
REMARK                         _______ _______ _______ _____ _____    ______ ____
ROOT
ATOM      1  C   UNL     1       3.503   3.594  19.828  0.00  0.00    +0.000 C 
ENDROOT
BRANCH   1   3
ATOM      2  O   UNL     1       1.368   4.371  18.949  0.00  0.00    +0.000 OA
ATOM      3  C   UNL     1       2.401   4.628  19.559  0.00  0.00    +0.000 C 
ATOM      4  N   UNL     1       2.831   5.907  19.918  0.00  0.00    +0.000 N 
ATOM      5  H   UNL     1       3.742   5.967  20.354  0.00  0.00    +0.000 HD
BRANCH   4   6
ATOM      6  C   UNL     1       2.226   7.161  19.673  0.00  0.00    +0.000 A 
ATOM      7  C   UNL     1       2.289   7.849  18.460  0.00  0.00    +0.000 A 
ATOM      8  C   UNL     1       1.701   9.115  18.328  0.00  0.00    +0.000 A 
ATOM      9  C   UNL     1       1.032   9.700  19.400  0.00  0.00    +0.000 A 
ATOM     10  C   UNL     1       0.944   9.020  20.604  0.00  0.00    +0.000 A 
ATOM     11  C   UNL     1       1.535   7.756  20.740  0.00  0.00    +0.000 A 
ENDBRANCH   4   6
ENDBRANCH   1   3
BRANCH   1  12
ATOM     12  C   UNL     1       4.920   3.834  19.262  0.00  0.00    +0.000 C 
BRANCH  12  13
ATOM     13  N   UNL     1       4.889   4.832  18.158  0.00  0.00    +0.000 NA
ATOM     14  C   UNL     1       6.135   5.629  18.020  0.00  0.00    +0.000 C 
ATOM     15  C   UNL     1       7.294   4.987  17.201  0.00  0.00    +0.000 C 
ATOM     16  N   UNL     1       6.925   4.338  15.921  0.00  0.00    +0.000 NA
ATOM     17  C   UNL     1       5.719   3.515  16.155  0.00  0.00    +0.000 C 
ATOM     18  C   UNL     1       4.557   4.279  16.832  0.00  0.00    +0.000 C 
BRANCH  16  19
ATOM     19  C   UNL     1       6.692   5.279  14.799  0.00  0.00    +0.000 C 
BRANCH  19  20
ATOM     20  C   UNL     1       7.435   4.936  13.498  0.00  0.00    +0.000 C 
BRANCH  20  21
ATOM     21  O   UNL     1       8.530   5.820  13.285  0.00  0.00    +0.000 OA
ATOM     22  H   UNL     1       8.730   6.203  14.161  0.00  0.00    +0.000 HD
ENDBRANCH  20  21
ENDBRANCH  19  20
ENDBRANCH  16  19
ENDBRANCH  12  13
ENDBRANCH   1  12
TORSDOF 7
ENDMDL
MODEL 9
REMARK VINA RESULT:      -6.4      1.254      1.699
REMARK  Name = 
REMARK  7 active torsions:
REMARK  status: ('A' for Active; 'I' for Inactive)
REMARK    1  A    between atoms: C_2  and  C_3
REMARK    2  A    between atoms: C_3  and  C_4
REMARK    3  A    between atoms: C_4  and  N_5
REMARK    4  A    between atoms: N_8  and  C_9
REMARK    5  A    between atoms: C_9  and  C_10
REMARK    6  A    between atoms: C_10  and  O_11
REMARK    7  A    between atoms: N_14  and  C_15
REMARK                            x       y       z     vdW  Elec       q    Type
REMARK                         _______ _______ _______ _____ _____    ______ ____
ROOT
ATOM      1  C   UNL     1       5.814   5.646  18.177  0.00  0.00    +0.000 C 
ENDROOT
BRANCH   1   3
ATOM      2  O   UNL     1       6.325   7.059  16.259  0.00  0.00    +0.000 OA
ATOM      3  C   UNL     1       6.248   5.930  16.732  0.00  0.00    +0.000 C 
ATOM      4  N   UNL     1       6.337   4.741  16.005  0.00  0.00    +0.000 N 
ATOM      5  H   UNL     1       6.182   3.886  16.525  0.00  0.00    +0.000 HD
BRANCH   4   6
ATOM      6  C   UNL     1       6.516   4.547  14.617  0.00  0.00    +0.000 A 
ATOM      7  C   UNL     1       5.770   3.661  13.837  0.00  0.00    +0.000 A 
ATOM      8  C   UNL     1       6.056   3.497  12.474  0.00  0.00    +0.000 A 
ATOM      9  C   UNL     1       7.078   4.227  11.873  0.00  0.00    +0.000 A 
ATOM     10  C   UNL     1       7.814   5.125  12.629  0.00  0.00    +0.000 A 
ATOM     11  C   UNL     1       7.532   5.287  13.994  0.00  0.00    +0.000 A 
ENDBRANCH   4   6
ENDBRANCH   1   3
BRANCH   1  12
ATOM     12  C   UNL     1       5.781   4.188  18.685  0.00  0.00    +0.000 C 
BRANCH  12  13
ATOM     13  N   UNL     1       4.541   3.927  19.465  0.00  0.00    +0.000 NA
ATOM     14  C   UNL     1       3.350   4.675  18.986  0.00  0.00    +0.000 C 
ATOM     15  C   UNL     1       2.555   4.048  17.803  0.00  0.00    +0.000 C 
ATOM     16  N   UNL     1       2.282   2.594  17.879  0.00  0.00    +0.000 NA
ATOM     17  C   UNL     1       3.527   1.915  18.297  0.00  0.00    +0.000 C 
ATOM     18  C   UNL     1       4.166   2.505  19.577  0.00  0.00    +0.000 C 
BRANCH  16  19
ATOM     19  C   UNL     1       1.169   2.223  18.785  0.00  0.00    +0.000 C 
BRANCH  19  20
ATOM     20  C   UNL     1       0.661   3.357  19.690  0.00  0.00    +0.000 C 
BRANCH  20  21
ATOM     21  O   UNL     1       0.850   3.040  21.064  0.00  0.00    +0.000 OA
ATOM     22  H   UNL     1       1.596   3.597  21.360  0.00  0.00    +0.000 HD
ENDBRANCH  20  21
ENDBRANCH  19  20
ENDBRANCH  16  19
ENDBRANCH  12  13
ENDBRANCH   1  12
TORSDOF 7
ENDMDL
