MODEL 1
REMARK VINA RESULT:      -8.0      0.000      0.000
REMARK  Name = 
REMARK  2 active torsions:
REMARK  status: ('A' for Active; 'I' for Inactive)
REMARK    1  A    between atoms: C_1  and  N_2
REMARK    2  A    between atoms: C_4  and  C_5
REMARK                            x       y       z     vdW  Elec       q    Type
REMARK                         _______ _______ _______ _____ _____    ______ ____
ROOT
ATOM      1  C   UNL     1      -3.611  15.771  23.451  0.00  0.00    +0.000 C 
ATOM      2  N   UNL     1      -2.890  14.789  22.642  0.00  0.00    +0.000 NA
ATOM      3  C   UNL     1      -2.577  15.429  21.353  0.00  0.00    +0.000 C 
ATOM      4  C   UNL     1      -1.963  14.333  20.495  0.00  0.00    +0.000 C 
ATOM      5  C   UNL     1      -2.757  13.047  20.949  0.00  0.00    +0.000 C 
ATOM      6  C   UNL     1      -1.793  11.839  21.055  0.00  0.00    +0.000 C 
ATOM      7  O   UNL     1      -1.048  11.620  19.853  0.00  0.00    +0.000 OA
ATOM      8  C   UNL     1      -1.885  11.252  18.847  0.00  0.00    +0.000 A 
ATOM      9  C   UNL     1      -1.357  10.393  17.886  0.00  0.00    +0.000 A 
ATOM     10  C   UNL     1      -2.181   9.929  16.871  0.00  0.00    +0.000 A 
ATOM     11  C   UNL     1      -3.508  10.357  16.801  0.00  0.00    +0.000 A 
ATOM     12  C   UNL     1      -4.017  11.244  17.743  0.00  0.00    +0.000 A 
ATOM     13  C   UNL     1      -3.202  11.711  18.781  0.00  0.00    +0.000 A 
ATOM     14  C   UNL     1      -3.694  12.680  19.793  0.00  0.00    +0.000 C 
ATOM     15  O   UNL     1      -4.770  13.238  19.598  0.00  0.00    +0.000 OA
ATOM     16  C   UNL     1      -3.546  13.469  22.304  0.00  0.00    +0.000 C 
ATOM     17  C   UNL     1      -3.182  12.404  23.462  0.00  0.00    +0.000 C 
ATOM     18  O   UNL     1      -2.267  11.598  23.545  0.00  0.00    +0.000 OA
ATOM     19  N   UNL     1      -4.210  12.339  24.379  0.00  0.00    +0.000 N 
ATOM     20  C   UNL     1      -5.363  12.692  23.683  0.00  0.00    +0.000 A 
ATOM     21  C   UNL     1      -6.622  12.325  24.125  0.00  0.00    +0.000 A 
ATOM     22  C   UNL     1      -7.704  12.888  23.482  0.00  0.00    +0.000 A 
ATOM     23  C   UNL     1      -7.473  13.861  22.490  0.00  0.00    +0.000 A 
ATOM     24  C   UNL     1      -6.168  14.147  22.017  0.00  0.00    +0.000 A 
ATOM     25  C   UNL     1      -5.078  13.466  22.549  0.00  0.00    +0.000 A 
ATOM     26  H   UNL     1      -4.036  13.087  25.070  0.00  0.00    +0.000 HD
ENDROOT
BRANCH   4  27
ATOM     27  C   UNL     1      -0.426  14.379  20.577  0.00  0.00    +0.000 A 
ATOM     28  C   UNL     1       0.266  14.544  21.779  0.00  0.00    +0.000 A 
ATOM     29  C   UNL     1       1.668  14.566  21.819  0.00  0.00    +0.000 A 
ATOM     30  C   UNL     1       2.410  14.482  20.639  0.00  0.00    +0.000 A 
ATOM     31 CL   UNL     1       4.127  14.581  20.770  0.00  0.00    +0.000 Cl
ATOM     32  C   UNL     1       1.740  14.332  19.447  0.00  0.00    +0.000 A 
ATOM     33 CL   UNL     1       2.587  14.250  17.924  0.00  0.00    +0.000 Cl
ATOM     34  C   UNL     1       0.341  14.278  19.403  0.00  0.00    +0.000 A 
ENDBRANCH   4  27
TORSDOF 1
ENDMDL
MODEL 2
REMARK VINA RESULT:      -7.6      3.764      7.037
REMARK  Name = 
REMARK  2 active torsions:
REMARK  status: ('A' for Active; 'I' for Inactive)
REMARK    1  A    between atoms: C_1  and  N_2
REMARK    2  A    between atoms: C_4  and  C_5
REMARK                            x       y       z     vdW  Elec       q    Type
REMARK                         _______ _______ _______ _____ _____    ______ ____
ROOT
ATOM      1  C   UNL     1      -1.725  10.450  18.575  0.00  0.00    +0.000 C 
ATOM      2  N   UNL     1      -0.999  11.578  19.157  0.00  0.00    +0.000 NA
ATOM      3  C   UNL     1      -0.934  12.633  18.131  0.00  0.00    +0.000 C 
ATOM      4  C   UNL     1      -0.049  13.719  18.723  0.00  0.00    +0.000 C 
ATOM      5  C   UNL     1       1.007  12.895  19.558  0.00  0.00    +0.000 C 
ATOM      6  C   UNL     1       1.292  13.608  20.903  0.00  0.00    +0.000 C 
ATOM      7  O   UNL     1       1.685  14.974  20.731  0.00  0.00    +0.000 OA
ATOM      8  C   UNL     1       2.884  15.038  20.094  0.00  0.00    +0.000 A 
ATOM      9  C   UNL     1       3.702  16.115  20.421  0.00  0.00    +0.000 A 
ATOM     10  C   UNL     1       4.966  16.201  19.854  0.00  0.00    +0.000 A 
ATOM     11  C   UNL     1       5.383  15.234  18.936  0.00  0.00    +0.000 A 
ATOM     12  C   UNL     1       4.544  14.181  18.586  0.00  0.00    +0.000 A 
ATOM     13  C   UNL     1       3.272  14.074  19.161  0.00  0.00    +0.000 A 
ATOM     14  C   UNL     1       2.333  12.983  18.796  0.00  0.00    +0.000 C 
ATOM     15  O   UNL     1       2.598  12.281  17.825  0.00  0.00    +0.000 OA
ATOM     16  C   UNL     1       0.418  11.384  19.647  0.00  0.00    +0.000 C 
ATOM     17  C   UNL     1       0.369  10.943  21.200  0.00  0.00    +0.000 C 
ATOM     18  O   UNL     1       0.414  11.614  22.221  0.00  0.00    +0.000 OA
ATOM     19  N   UNL     1       0.464   9.572  21.301  0.00  0.00    +0.000 N 
ATOM     20  C   UNL     1       1.167   9.155  20.174  0.00  0.00    +0.000 A 
ATOM     21  C   UNL     1       1.833   7.942  20.138  0.00  0.00    +0.000 A 
ATOM     22  C   UNL     1       2.328   7.532  18.919  0.00  0.00    +0.000 A 
ATOM     23  C   UNL     1       2.052   8.311  17.778  0.00  0.00    +0.000 A 
ATOM     24  C   UNL     1       1.435   9.582  17.876  0.00  0.00    +0.000 A 
ATOM     25  C   UNL     1       1.074  10.079  19.123  0.00  0.00    +0.000 A 
ATOM     26  H   UNL     1      -0.496   9.202  21.209  0.00  0.00    +0.000 HD
ENDROOT
BRANCH   4  27
ATOM     27  C   UNL     1      -0.906  14.809  19.394  0.00  0.00    +0.000 A 
ATOM     28  C   UNL     1      -0.792  16.165  19.079  0.00  0.00    +0.000 A 
ATOM     29  C   UNL     1      -1.599  17.130  19.699  0.00  0.00    +0.000 A 
ATOM     30  C   UNL     1      -2.503  16.761  20.697  0.00  0.00    +0.000 A 
ATOM     31 CL   UNL     1      -3.411  18.017  21.453  0.00  0.00    +0.000 Cl
ATOM     32  C   UNL     1      -2.616  15.429  21.026  0.00  0.00    +0.000 A 
ATOM     33 CL   UNL     1      -3.696  14.885  22.282  0.00  0.00    +0.000 Cl
ATOM     34  C   UNL     1      -1.834  14.457  20.389  0.00  0.00    +0.000 A 
ENDBRANCH   4  27
TORSDOF 1
ENDMDL
MODEL 3
REMARK VINA RESULT:      -7.6      3.522      7.004
REMARK  Name = 
REMARK  2 active torsions:
REMARK  status: ('A' for Active; 'I' for Inactive)
REMARK    1  A    between atoms: C_1  and  N_2
REMARK    2  A    between atoms: C_4  and  C_5
REMARK                            x       y       z     vdW  Elec       q    Type
REMARK                         _______ _______ _______ _____ _____    ______ ____
ROOT
ATOM      1  C   UNL     1      -1.689  10.312  18.498  0.00  0.00    +0.000 C 
ATOM      2  N   UNL     1      -1.013  11.424  19.164  0.00  0.00    +0.000 NA
ATOM      3  C   UNL     1      -0.958  12.541  18.206  0.00  0.00    +0.000 C 
ATOM      4  C   UNL     1      -0.123  13.616  18.884  0.00  0.00    +0.000 C 
ATOM      5  C   UNL     1       0.940  12.776  19.693  0.00  0.00    +0.000 C 
ATOM      6  C   UNL     1       1.172  13.415  21.085  0.00  0.00    +0.000 C 
ATOM      7  O   UNL     1       1.524  14.800  21.005  0.00  0.00    +0.000 OA
ATOM      8  C   UNL     1       2.734  14.939  20.402  0.00  0.00    +0.000 A 
ATOM      9  C   UNL     1       3.509  16.020  20.814  0.00  0.00    +0.000 A 
ATOM     10  C   UNL     1       4.782  16.179  20.284  0.00  0.00    +0.000 A 
ATOM     11  C   UNL     1       5.251  15.283  19.321  0.00  0.00    +0.000 A 
ATOM     12  C   UNL     1       4.455  14.227  18.887  0.00  0.00    +0.000 A 
ATOM     13  C   UNL     1       3.174  14.047  19.423  0.00  0.00    +0.000 A 
ATOM     14  C   UNL     1       2.280  12.951  18.970  0.00  0.00    +0.000 C 
ATOM     15  O   UNL     1       2.589  12.318  17.966  0.00  0.00    +0.000 OA
ATOM     16  C   UNL     1       0.399  11.245  19.677  0.00  0.00    +0.000 C 
ATOM     17  C   UNL     1       0.329  10.709  21.199  0.00  0.00    +0.000 C 
ATOM     18  O   UNL     1       0.329  11.318  22.259  0.00  0.00    +0.000 OA
ATOM     19  N   UNL     1       0.466   9.338  21.220  0.00  0.00    +0.000 N 
ATOM     20  C   UNL     1       1.208   9.012  20.087  0.00  0.00    +0.000 A 
ATOM     21  C   UNL     1       1.913   7.825  19.995  0.00  0.00    +0.000 A 
ATOM     22  C   UNL     1       2.449   7.505  18.766  0.00  0.00    +0.000 A 
ATOM     23  C   UNL     1       2.174   8.343  17.667  0.00  0.00    +0.000 A 
ATOM     24  C   UNL     1       1.513   9.586  17.826  0.00  0.00    +0.000 A 
ATOM     25  C   UNL     1       1.109   9.995  19.092  0.00  0.00    +0.000 A 
ATOM     26  H   UNL     1      -0.479   8.945  21.082  0.00  0.00    +0.000 HD
ENDROOT
BRANCH   4  27
ATOM     27  C   UNL     1      -1.030  14.636  19.598  0.00  0.00    +0.000 A 
ATOM     28  C   UNL     1      -2.038  14.262  20.489  0.00  0.00    +0.000 A 
ATOM     29  C   UNL     1      -2.835  15.219  21.134  0.00  0.00    +0.000 A 
ATOM     30  C   UNL     1      -2.677  16.578  20.853  0.00  0.00    +0.000 A 
ATOM     31 CL   UNL     1      -3.741  17.682  21.640  0.00  0.00    +0.000 Cl
ATOM     32  C   UNL     1      -1.696  16.958  19.967  0.00  0.00    +0.000 A 
ATOM     33 CL   UNL     1      -1.450  18.630  19.535  0.00  0.00    +0.000 Cl
ATOM     34  C   UNL     1      -0.875  16.009  19.343  0.00  0.00    +0.000 A 
ENDBRANCH   4  27
TORSDOF 1
ENDMDL
MODEL 4
REMARK VINA RESULT:      -7.3      0.856      1.388
REMARK  Name = 
REMARK  2 active torsions:
REMARK  status: ('A' for Active; 'I' for Inactive)
REMARK    1  A    between atoms: C_1  and  N_2
REMARK    2  A    between atoms: C_4  and  C_5
REMARK                            x       y       z     vdW  Elec       q    Type
REMARK                         _______ _______ _______ _____ _____    ______ ____
ROOT
ATOM      1  C   UNL     1      -2.884  15.946  23.145  0.00  0.00    +0.000 C 
ATOM      2  N   UNL     1      -2.231  14.943  22.307  0.00  0.00    +0.000 NA
ATOM      3  C   UNL     1      -2.157  15.491  20.943  0.00  0.00    +0.000 C 
ATOM      4  C   UNL     1      -1.609  14.364  20.081  0.00  0.00    +0.000 C 
ATOM      5  C   UNL     1      -2.240  13.078  20.744  0.00  0.00    +0.000 C 
ATOM      6  C   UNL     1      -1.194  11.936  20.786  0.00  0.00    +0.000 C 
ATOM      7  O   UNL     1      -0.626  11.660  19.502  0.00  0.00    +0.000 OA
ATOM      8  C   UNL     1      -1.578  11.168  18.667  0.00  0.00    +0.000 A 
ATOM      9  C   UNL     1      -1.146  10.264  17.700  0.00  0.00    +0.000 A 
ATOM     10  C   UNL     1      -2.081   9.675  16.860  0.00  0.00    +0.000 A 
ATOM     11  C   UNL     1      -3.429  10.025  16.966  0.00  0.00    +0.000 A 
ATOM     12  C   UNL     1      -3.847  10.958  17.909  0.00  0.00    +0.000 A 
ATOM     13  C   UNL     1      -2.917  11.549  18.773  0.00  0.00    +0.000 A 
ATOM     14  C   UNL     1      -3.314  12.569  19.776  0.00  0.00    +0.000 C 
ATOM     15  O   UNL     1      -4.441  13.051  19.710  0.00  0.00    +0.000 OA
ATOM     16  C   UNL     1      -2.843  13.566  22.171  0.00  0.00    +0.000 C 
ATOM     17  C   UNL     1      -2.241  12.619  23.332  0.00  0.00    +0.000 C 
ATOM     18  O   UNL     1      -1.273  11.873  23.330  0.00  0.00    +0.000 OA
ATOM     19  N   UNL     1      -3.113  12.574  24.399  0.00  0.00    +0.000 N 
ATOM     20  C   UNL     1      -4.378  12.808  23.866  0.00  0.00    +0.000 A 
ATOM     21  C   UNL     1      -5.530  12.410  24.523  0.00  0.00    +0.000 A 
ATOM     22  C   UNL     1      -6.730  12.861  24.016  0.00  0.00    +0.000 A 
ATOM     23  C   UNL     1      -6.714  13.761  22.933  0.00  0.00    +0.000 A 
ATOM     24  C   UNL     1      -5.517  14.077  22.245  0.00  0.00    +0.000 A 
ATOM     25  C   UNL     1      -4.317  13.501  22.649  0.00  0.00    +0.000 A 
ATOM     26  H   UNL     1      -2.886  13.383  24.999  0.00  0.00    +0.000 HD
ENDROOT
BRANCH   4  27
ATOM     27  C   UNL     1      -0.083  14.499  19.920  0.00  0.00    +0.000 A 
ATOM     28  C   UNL     1       0.571  14.312  18.700  0.00  0.00    +0.000 A 
ATOM     29  C   UNL     1       1.961  14.458  18.586  0.00  0.00    +0.000 A 
ATOM     30  C   UNL     1       2.738  14.737  19.712  0.00  0.00    +0.000 A 
ATOM     31 CL   UNL     1       4.446  14.836  19.496  0.00  0.00    +0.000 Cl
ATOM     32  C   UNL     1       2.107  14.910  20.923  0.00  0.00    +0.000 A 
ATOM     33 CL   UNL     1       3.003  15.231  22.384  0.00  0.00    +0.000 Cl
ATOM     34  C   UNL     1       0.715  14.797  21.038  0.00  0.00    +0.000 A 
ENDBRANCH   4  27
TORSDOF 1
ENDMDL
MODEL 5
REMARK VINA RESULT:      -7.1      2.837      5.547
REMARK  Name = 
REMARK  2 active torsions:
REMARK  status: ('A' for Active; 'I' for Inactive)
REMARK    1  A    between atoms: C_1  and  N_2
REMARK    2  A    between atoms: C_4  and  C_5
REMARK                            x       y       z     vdW  Elec       q    Type
REMARK                         _______ _______ _______ _____ _____    ______ ____
ROOT
ATOM      1  C   UNL     1      -3.829  12.786  23.286  0.00  0.00    +0.000 C 
ATOM      2  N   UNL     1      -2.982  13.041  22.122  0.00  0.00    +0.000 NA
ATOM      3  C   UNL     1      -2.002  11.944  22.045  0.00  0.00    +0.000 C 
ATOM      4  C   UNL     1      -1.056  12.324  20.917  0.00  0.00    +0.000 C 
ATOM      5  C   UNL     1      -0.977  13.895  21.039  0.00  0.00    +0.000 C 
ATOM      6  C   UNL     1      -0.988  14.538  19.631  0.00  0.00    +0.000 C 
ATOM      7  O   UNL     1       0.031  14.010  18.774  0.00  0.00    +0.000 OA
ATOM      8  C   UNL     1       1.259  14.345  19.251  0.00  0.00    +0.000 A 
ATOM      9  C   UNL     1       2.262  14.528  18.303  0.00  0.00    +0.000 A 
ATOM     10  C   UNL     1       3.520  14.935  18.721  0.00  0.00    +0.000 A 
ATOM     11  C   UNL     1       3.777  15.116  20.082  0.00  0.00    +0.000 A 
ATOM     12  C   UNL     1       2.780  14.894  21.026  0.00  0.00    +0.000 A 
ATOM     13  C   UNL     1       1.501  14.496  20.618  0.00  0.00    +0.000 A 
ATOM     14  C   UNL     1       0.414  14.222  21.592  0.00  0.00    +0.000 C 
ATOM     15  O   UNL     1       0.699  14.145  22.783  0.00  0.00    +0.000 OA
ATOM     16  C   UNL     1      -2.181  14.321  22.043  0.00  0.00    +0.000 C 
ATOM     17  C   UNL     1      -3.082  15.446  21.314  0.00  0.00    +0.000 C 
ATOM     18  O   UNL     1      -3.162  15.763  20.136  0.00  0.00    +0.000 OA
ATOM     19  N   UNL     1      -3.696  16.240  22.259  0.00  0.00    +0.000 N 
ATOM     20  C   UNL     1      -2.871  16.203  23.380  0.00  0.00    +0.000 A 
ATOM     21  C   UNL     1      -2.910  17.194  24.346  0.00  0.00    +0.000 A 
ATOM     22  C   UNL     1      -2.204  16.968  25.508  0.00  0.00    +0.000 A 
ATOM     23  C   UNL     1      -1.570  15.723  25.686  0.00  0.00    +0.000 A 
ATOM     24  C   UNL     1      -1.492  14.771  24.639  0.00  0.00    +0.000 A 
ATOM     25  C   UNL     1      -2.065  15.056  23.404  0.00  0.00    +0.000 A 
ATOM     26  H   UNL     1      -4.575  15.763  22.518  0.00  0.00    +0.000 HD
ENDROOT
BRANCH   4  27
ATOM     27  C   UNL     1      -1.491  11.658  19.598  0.00  0.00    +0.000 A 
ATOM     28  C   UNL     1      -0.669  10.783  18.882  0.00  0.00    +0.000 A 
ATOM     29  C   UNL     1      -1.104  10.182  17.692  0.00  0.00    +0.000 A 
ATOM     30  C   UNL     1      -2.357  10.492  17.158  0.00  0.00    +0.000 A 
ATOM     31 CL   UNL     1      -2.786   9.759  15.658  0.00  0.00    +0.000 Cl
ATOM     32  C   UNL     1      -3.170  11.362  17.847  0.00  0.00    +0.000 A 
ATOM     33 CL   UNL     1      -4.736  11.829  17.237  0.00  0.00    +0.000 Cl
ATOM     34  C   UNL     1      -2.755  11.942  19.053  0.00  0.00    +0.000 A 
ENDBRANCH   4  27
TORSDOF 1
ENDMDL
MODEL 6
REMARK VINA RESULT:      -7.1      1.723      2.019
REMARK  Name = 
REMARK  2 active torsions:
REMARK  status: ('A' for Active; 'I' for Inactive)
REMARK    1  A    between atoms: C_1  and  N_2
REMARK    2  A    between atoms: C_4  and  C_5
REMARK                            x       y       z     vdW  Elec       q    Type
REMARK                         _______ _______ _______ _____ _____    ______ ____
ROOT
ATOM      1  C   UNL     1      -3.422  16.743  22.218  0.00  0.00    +0.000 C 
ATOM      2  N   UNL     1      -2.328  15.862  21.815  0.00  0.00    +0.000 NA
ATOM      3  C   UNL     1      -2.091  16.086  20.379  0.00  0.00    +0.000 C 
ATOM      4  C   UNL     1      -1.053  15.051  19.973  0.00  0.00    +0.000 C 
ATOM      5  C   UNL     1      -1.428  13.808  20.871  0.00  0.00    +0.000 C 
ATOM      6  C   UNL     1      -0.141  13.129  21.401  0.00  0.00    +0.000 C 
ATOM      7  O   UNL     1       0.773  12.785  20.353  0.00  0.00    +0.000 OA
ATOM      8  C   UNL     1       0.230  11.826  19.558  0.00  0.00    +0.000 A 
ATOM      9  C   UNL     1       1.121  10.931  18.970  0.00  0.00    +0.000 A 
ATOM     10  C   UNL     1       0.623   9.890  18.201  0.00  0.00    +0.000 A 
ATOM     11  C   UNL     1      -0.753   9.775  17.992  0.00  0.00    +0.000 A 
ATOM     12  C   UNL     1      -1.634  10.694  18.552  0.00  0.00    +0.000 A 
ATOM     13  C   UNL     1      -1.147  11.743  19.342  0.00  0.00    +0.000 A 
ATOM     14  C   UNL     1      -2.048  12.763  19.937  0.00  0.00    +0.000 C 
ATOM     15  O   UNL     1      -3.215  12.806  19.561  0.00  0.00    +0.000 OA
ATOM     16  C   UNL     1      -2.468  14.366  21.987  0.00  0.00    +0.000 C 
ATOM     17  C   UNL     1      -1.915  13.962  23.450  0.00  0.00    +0.000 C 
ATOM     18  O   UNL     1      -0.802  13.609  23.812  0.00  0.00    +0.000 OA
ATOM     19  N   UNL     1      -2.966  13.862  24.336  0.00  0.00    +0.000 N 
ATOM     20  C   UNL     1      -4.079  13.527  23.570  0.00  0.00    +0.000 A 
ATOM     21  C   UNL     1      -5.191  12.919  24.127  0.00  0.00    +0.000 A 
ATOM     22  C   UNL     1      -6.313  12.811  23.333  0.00  0.00    +0.000 A 
ATOM     23  C   UNL     1      -6.298  13.398  22.053  0.00  0.00    +0.000 A 
ATOM     24  C   UNL     1      -5.113  13.941  21.497  0.00  0.00    +0.000 A 
ATOM     25  C   UNL     1      -3.931  13.912  22.230  0.00  0.00    +0.000 A 
ATOM     26  H   UNL     1      -3.131  14.812  24.707  0.00  0.00    +0.000 HD
ENDROOT
BRANCH   4  27
ATOM     27  C   UNL     1       0.362  15.656  20.018  0.00  0.00    +0.000 A 
ATOM     28  C   UNL     1       0.892  16.264  21.160  0.00  0.00    +0.000 A 
ATOM     29  C   UNL     1       2.191  16.791  21.170  0.00  0.00    +0.000 A 
ATOM     30  C   UNL     1       2.972  16.774  20.012  0.00  0.00    +0.000 A 
ATOM     31 CL   UNL     1       4.533  17.501  20.094  0.00  0.00    +0.000 Cl
ATOM     32  C   UNL     1       2.456  16.190  18.878  0.00  0.00    +0.000 A 
ATOM     33 CL   UNL     1       3.350  16.153  17.381  0.00  0.00    +0.000 Cl
ATOM     34  C   UNL     1       1.171  15.633  18.869  0.00  0.00    +0.000 A 
ENDBRANCH   4  27
TORSDOF 1
ENDMDL
MODEL 7
REMARK VINA RESULT:      -7.0      7.388     10.949
REMARK  Name = 
REMARK  2 active torsions:
REMARK  status: ('A' for Active; 'I' for Inactive)
REMARK    1  A    between atoms: C_1  and  N_2
REMARK    2  A    between atoms: C_4  and  C_5
REMARK                            x       y       z     vdW  Elec       q    Type
REMARK                         _______ _______ _______ _____ _____    ______ ____
ROOT
ATOM      1  C   UNL     1       5.225  17.667  21.103  0.00  0.00    +0.000 C 
ATOM      2  N   UNL     1       6.281  16.682  21.329  0.00  0.00    +0.000 NA
ATOM      3  C   UNL     1       7.527  17.242  20.780  0.00  0.00    +0.000 C 
ATOM      4  C   UNL     1       8.560  16.133  20.904  0.00  0.00    +0.000 C 
ATOM      5  C   UNL     1       7.706  14.830  20.651  0.00  0.00    +0.000 C 
ATOM      6  C   UNL     1       8.150  13.708  21.622  0.00  0.00    +0.000 C 
ATOM      7  O   UNL     1       9.558  13.453  21.564  0.00  0.00    +0.000 OA
ATOM      8  C   UNL     1       9.889  12.948  20.346  0.00  0.00    +0.000 A 
ATOM      9  C   UNL     1      10.961  12.060  20.315  0.00  0.00    +0.000 A 
ATOM     10  C   UNL     1      11.307  11.460  19.113  0.00  0.00    +0.000 A 
ATOM     11  C   UNL     1      10.607  11.783  17.948  0.00  0.00    +0.000 A 
ATOM     12  C   UNL     1       9.562  12.700  17.980  0.00  0.00    +0.000 A 
ATOM     13  C   UNL     1       9.193  13.303  19.189  0.00  0.00    +0.000 A 
ATOM     14  C   UNL     1       8.102  14.308  19.266  0.00  0.00    +0.000 C 
ATOM     15  O   UNL     1       7.653  14.768  18.220  0.00  0.00    +0.000 OA
ATOM     16  C   UNL     1       6.152  15.295  20.740  0.00  0.00    +0.000 C 
ATOM     17  C   UNL     1       5.395  14.351  21.808  0.00  0.00    +0.000 C 
ATOM     18  O   UNL     1       5.838  13.624  22.685  0.00  0.00    +0.000 OA
ATOM     19  N   UNL     1       4.052  14.281  21.503  0.00  0.00    +0.000 N 
ATOM     20  C   UNL     1       3.963  14.494  20.129  0.00  0.00    +0.000 A 
ATOM     21  C   UNL     1       2.869  14.070  19.396  0.00  0.00    +0.000 A 
ATOM     22  C   UNL     1       2.782  14.502  18.090  0.00  0.00    +0.000 A 
ATOM     23  C   UNL     1       3.745  15.410  17.609  0.00  0.00    +0.000 A 
ATOM     24  C   UNL     1       4.889  15.754  18.371  0.00  0.00    +0.000 A 
ATOM     25  C   UNL     1       5.069  15.198  19.633  0.00  0.00    +0.000 A 
ATOM     26  H   UNL     1       3.603  15.090  21.962  0.00  0.00    +0.000 HD
ENDROOT
BRANCH   4  27
ATOM     27  C   UNL     1       9.381  16.298  22.197  0.00  0.00    +0.000 A 
ATOM     28  C   UNL     1      10.767  16.470  22.198  0.00  0.00    +0.000 A 
ATOM     29  C   UNL     1      11.481  16.633  23.394  0.00  0.00    +0.000 A 
ATOM     30  C   UNL     1      10.825  16.567  24.626  0.00  0.00    +0.000 A 
ATOM     31 CL   UNL     1      11.787  16.713  26.049  0.00  0.00    +0.000 Cl
ATOM     32  C   UNL     1       9.461  16.385  24.637  0.00  0.00    +0.000 A 
ATOM     33 CL   UNL     1       8.567  16.260  26.129  0.00  0.00    +0.000 Cl
ATOM     34  C   UNL     1       8.737  16.253  23.445  0.00  0.00    +0.000 A 
ENDBRANCH   4  27
TORSDOF 1
ENDMDL
MODEL 8
REMARK VINA RESULT:      -6.9      3.644      5.829
REMARK  Name = 
REMARK  2 active torsions:
REMARK  status: ('A' for Active; 'I' for Inactive)
REMARK    1  A    between atoms: C_1  and  N_2
REMARK    2  A    between atoms: C_4  and  C_5
REMARK                            x       y       z     vdW  Elec       q    Type
REMARK                         _______ _______ _______ _____ _____    ______ ____
ROOT
ATOM      1  C   UNL     1      -0.088  11.138  21.795  0.00  0.00    +0.000 C 
ATOM      2  N   UNL     1       0.638  12.221  21.134  0.00  0.00    +0.000 NA
ATOM      3  C   UNL     1       0.417  13.443  21.925  0.00  0.00    +0.000 C 
ATOM      4  C   UNL     1       1.063  14.565  21.127  0.00  0.00    +0.000 C 
ATOM      5  C   UNL     1       0.800  14.129  19.633  0.00  0.00    +0.000 C 
ATOM      6  C   UNL     1       2.051  14.418  18.767  0.00  0.00    +0.000 C 
ATOM      7  O   UNL     1       2.489  15.778  18.865  0.00  0.00    +0.000 OA
ATOM      8  C   UNL     1       1.553  16.607  18.332  0.00  0.00    +0.000 A 
ATOM      9  C   UNL     1       2.027  17.775  17.740  0.00  0.00    +0.000 A 
ATOM     10  C   UNL     1       1.128  18.631  17.120  0.00  0.00    +0.000 A 
ATOM     11  C   UNL     1      -0.237  18.334  17.132  0.00  0.00    +0.000 A 
ATOM     12  C   UNL     1      -0.706  17.184  17.758  0.00  0.00    +0.000 A 
ATOM     13  C   UNL     1       0.191  16.304  18.376  0.00  0.00    +0.000 A 
ATOM     14  C   UNL     1      -0.268  15.079  19.080  0.00  0.00    +0.000 C 
ATOM     15  O   UNL     1      -1.467  14.943  19.300  0.00  0.00    +0.000 OA
ATOM     16  C   UNL     1       0.306  12.583  19.704  0.00  0.00    +0.000 C 
ATOM     17  C   UNL     1       1.236  11.702  18.721  0.00  0.00    +0.000 C 
ATOM     18  O   UNL     1       2.327  11.946  18.225  0.00  0.00    +0.000 OA
ATOM     19  N   UNL     1       0.541  10.594  18.287  0.00  0.00    +0.000 N 
ATOM     20  C   UNL     1      -0.804  10.950  18.323  0.00  0.00    +0.000 A 
ATOM     21  C   UNL     1      -1.754  10.289  17.564  0.00  0.00    +0.000 A 
ATOM     22  C   UNL     1      -3.077  10.581  17.818  0.00  0.00    +0.000 A 
ATOM     23  C   UNL     1      -3.388  11.451  18.880  0.00  0.00    +0.000 A 
ATOM     24  C   UNL     1      -2.382  12.164  19.578  0.00  0.00    +0.000 A 
ATOM     25  C   UNL     1      -1.048  11.998  19.223  0.00  0.00    +0.000 A 
ATOM     26  H   UNL     1       0.677   9.862  19.003  0.00  0.00    +0.000 HD
ENDROOT
BRANCH   4  27
ATOM     27  C   UNL     1       2.495  14.832  21.628  0.00  0.00    +0.000 A 
ATOM     28  C   UNL     1       3.509  13.872  21.575  0.00  0.00    +0.000 A 
ATOM     29  C   UNL     1       4.806  14.154  22.027  0.00  0.00    +0.000 A 
ATOM     30  C   UNL     1       5.103  15.393  22.599  0.00  0.00    +0.000 A 
ATOM     31 CL   UNL     1       6.705  15.635  23.187  0.00  0.00    +0.000 Cl
ATOM     32  C   UNL     1       4.109  16.342  22.668  0.00  0.00    +0.000 A 
ATOM     33 CL   UNL     1       4.385  17.904  23.395  0.00  0.00    +0.000 Cl
ATOM     34  C   UNL     1       2.819  16.078  22.191  0.00  0.00    +0.000 A 
ENDBRANCH   4  27
TORSDOF 1
ENDMDL
MODEL 9
REMARK VINA RESULT:      -6.8      2.642      5.587
REMARK  Name = 
REMARK  2 active torsions:
REMARK  status: ('A' for Active; 'I' for Inactive)
REMARK    1  A    between atoms: C_1  and  N_2
REMARK    2  A    between atoms: C_4  and  C_5
REMARK                            x       y       z     vdW  Elec       q    Type
REMARK                         _______ _______ _______ _____ _____    ______ ____
ROOT
ATOM      1  C   UNL     1      -3.334  13.285  23.986  0.00  0.00    +0.000 C 
ATOM      2  N   UNL     1      -2.602  13.569  22.753  0.00  0.00    +0.000 NA
ATOM      3  C   UNL     1      -1.469  12.631  22.691  0.00  0.00    +0.000 C 
ATOM      4  C   UNL     1      -0.656  13.056  21.478  0.00  0.00    +0.000 C 
ATOM      5  C   UNL     1      -0.817  14.626  21.481  0.00  0.00    +0.000 C 
ATOM      6  C   UNL     1      -1.005  15.142  20.033  0.00  0.00    +0.000 C 
ATOM      7  O   UNL     1       0.036  14.707  19.152  0.00  0.00    +0.000 OA
ATOM      8  C   UNL     1       1.221  15.262  19.520  0.00  0.00    +0.000 A 
ATOM      9  C   UNL     1       2.130  15.516  18.497  0.00  0.00    +0.000 A 
ATOM     10  C   UNL     1       3.330  16.142  18.800  0.00  0.00    +0.000 A 
ATOM     11  C   UNL     1       3.629  16.471  20.124  0.00  0.00    +0.000 A 
ATOM     12  C   UNL     1       2.731  16.178  21.146  0.00  0.00    +0.000 A 
ATOM     13  C   UNL     1       1.510  15.559  20.854  0.00  0.00    +0.000 A 
ATOM     14  C   UNL     1       0.534  15.204  21.915  0.00  0.00    +0.000 C 
ATOM     15  O   UNL     1       0.892  15.269  23.087  0.00  0.00    +0.000 OA
ATOM     16  C   UNL     1      -2.016  14.945  22.528  0.00  0.00    +0.000 C 
ATOM     17  C   UNL     1      -3.120  15.857  21.781  0.00  0.00    +0.000 C 
ATOM     18  O   UNL     1      -3.313  16.061  20.592  0.00  0.00    +0.000 OA
ATOM     19  N   UNL     1      -3.798  16.623  22.705  0.00  0.00    +0.000 N 
ATOM     20  C   UNL     1      -2.918  16.804  23.769  0.00  0.00    +0.000 A 
ATOM     21  C   UNL     1      -3.059  17.853  24.661  0.00  0.00    +0.000 A 
ATOM     22  C   UNL     1      -2.264  17.832  25.787  0.00  0.00    +0.000 A 
ATOM     23  C   UNL     1      -1.435  16.716  26.012  0.00  0.00    +0.000 A 
ATOM     24  C   UNL     1      -1.266  15.705  25.034  0.00  0.00    +0.000 A 
ATOM     25  C   UNL     1      -1.943  15.798  23.823  0.00  0.00    +0.000 A 
ATOM     26  H   UNL     1      -4.577  16.042  23.055  0.00  0.00    +0.000 HD
ENDROOT
BRANCH   4  27
ATOM     27  C   UNL     1      -1.052  12.226  20.242  0.00  0.00    +0.000 A 
ATOM     28  C   UNL     1      -2.333  12.260  19.685  0.00  0.00    +0.000 A 
ATOM     29  C   UNL     1      -2.655  11.502  18.549  0.00  0.00    +0.000 A 
ATOM     30  C   UNL     1      -1.712  10.645  17.979  0.00  0.00    +0.000 A 
ATOM     31 CL   UNL     1      -2.210   9.702  16.624  0.00  0.00    +0.000 Cl
ATOM     32  C   UNL     1      -0.451  10.594  18.527  0.00  0.00    +0.000 A 
ATOM     33 CL   UNL     1       0.778   9.528  17.897  0.00  0.00    +0.000 Cl
ATOM     34  C   UNL     1      -0.113  11.371  19.642  0.00  0.00    +0.000 A 
ENDBRANCH   4  27
TORSDOF 1
ENDMDL
