MODEL 1
REMARK VINA RESULT:      -8.2      0.000      0.000
REMARK  Name = 
REMARK  9 active torsions:
REMARK  status: ('A' for Active; 'I' for Inactive)
REMARK    1  A    between atoms: C_4  and  C_5
REMARK    2  A    between atoms: C_5  and  O_6
REMARK    3  A    between atoms: C_10  and  O_11
REMARK    4  A    between atoms: O_11  and  C_12
REMARK    5  A    between atoms: C_12  and  C_13
REMARK    6  A    between atoms: C_16  and  C_17
REMARK    7  A    between atoms: C_17  and  N_18
REMARK    8  A    between atoms: N_18  and  C_19
REMARK    9  A    between atoms: C_19  and  C_20
REMARK                            x       y       z     vdW  Elec       q    Type
REMARK                         _______ _______ _______ _____ _____    ______ ____
ROOT
ATOM      1  C   UNL     1       0.977   9.105  20.294  0.00  0.00    +0.000 C 
ENDROOT
BRANCH   1   2
ATOM      2  C   UNL     1       1.881   8.105  19.625  0.00  0.00    +0.000 A 
ATOM      3  C   UNL     1       2.271   6.940  20.298  0.00  0.00    +0.000 A 
ATOM      4  C   UNL     1       3.098   6.011  19.667  0.00  0.00    +0.000 A 
ATOM      5  C   UNL     1       3.549   6.223  18.355  0.00  0.00    +0.000 A 
ATOM      6  C   UNL     1       3.172   7.398  17.692  0.00  0.00    +0.000 A 
ATOM      7  C   UNL     1       2.349   8.332  18.326  0.00  0.00    +0.000 A 
BRANCH   5   8
ATOM      8  C   UNL     1       4.419   5.187  17.680  0.00  0.00    +0.000 C 
BRANCH   8   9
ATOM      9  N   UNL     1       3.587   4.159  17.067  0.00  0.00    +0.000 NA
ATOM     10  H   UNL     1       3.842   4.065  16.083  0.00  0.00    +0.000 HD
BRANCH   9  11
ATOM     11  C   UNL     1       3.728   2.864  17.723  0.00  0.00    +0.000 C 
BRANCH  11  12
ATOM     12  C   UNL     1       2.882   2.815  18.977  0.00  0.00    +0.000 A 
ATOM     13  C   UNL     1       1.502   3.047  18.914  0.00  0.00    +0.000 A 
ATOM     14  C   UNL     1       0.730   3.049  20.078  0.00  0.00    +0.000 A 
ATOM     15  C   UNL     1       1.328   2.816  21.315  0.00  0.00    +0.000 A 
ATOM     16  C   UNL     1       2.695   2.564  21.390  0.00  0.00    +0.000 A 
ATOM     17  C   UNL     1       3.468   2.558  20.228  0.00  0.00    +0.000 A 
ENDBRANCH  11  12
ENDBRANCH   9  11
ENDBRANCH   8   9
ENDBRANCH   5   8
ENDBRANCH   1   2
BRANCH   1  18
ATOM     18  O   UNL     1       0.916  10.284  19.493  0.00  0.00    +0.000 OA
BRANCH  18  26
ATOM     19  O   UNL     1      -3.993  10.097  14.356  0.00  0.00    +0.000 OA
ATOM     20  C   UNL     1      -3.657  10.427  15.488  0.00  0.00    +0.000 A 
ATOM     21  C   UNL     1      -4.573  11.180  16.356  0.00  0.00    +0.000 A 
ATOM     22  C   UNL     1      -4.248  11.630  17.580  0.00  0.00    +0.000 A 
ATOM     23  C   UNL     1      -2.900  11.322  18.088  0.00  0.00    +0.000 A 
ATOM     24  C   UNL     1      -2.420  11.732  19.338  0.00  0.00    +0.000 A 
ATOM     25  C   UNL     1      -1.134  11.366  19.767  0.00  0.00    +0.000 A 
ATOM     26  C   UNL     1      -0.305  10.586  18.958  0.00  0.00    +0.000 A 
ATOM     27  C   UNL     1      -0.765  10.184  17.709  0.00  0.00    +0.000 A 
ATOM     28  C   UNL     1      -2.044  10.561  17.292  0.00  0.00    +0.000 A 
ATOM     29  O   UNL     1      -2.417  10.119  16.010  0.00  0.00    +0.000 OA
BRANCH  22  30
ATOM     30  C   UNL     1      -5.200  12.402  18.456  0.00  0.00    +0.000 C 
BRANCH  30  31
ATOM     31  O   UNL     1      -6.053  11.540  19.200  0.00  0.00    +0.000 OA
ATOM     32  H   UNL     1      -5.638  11.409  20.070  0.00  0.00    +0.000 HD
ENDBRANCH  30  31
ENDBRANCH  22  30
ENDBRANCH  18  26
ENDBRANCH   1  18
TORSDOF 9
ENDMDL
MODEL 2
REMARK VINA RESULT:      -8.1      1.811      3.242
REMARK  Name = 
REMARK  9 active torsions:
REMARK  status: ('A' for Active; 'I' for Inactive)
REMARK    1  A    between atoms: C_4  and  C_5
REMARK    2  A    between atoms: C_5  and  O_6
REMARK    3  A    between atoms: C_10  and  O_11
REMARK    4  A    between atoms: O_11  and  C_12
REMARK    5  A    between atoms: C_12  and  C_13
REMARK    6  A    between atoms: C_16  and  C_17
REMARK    7  A    between atoms: C_17  and  N_18
REMARK    8  A    between atoms: N_18  and  C_19
REMARK    9  A    between atoms: C_19  and  C_20
REMARK                            x       y       z     vdW  Elec       q    Type
REMARK                         _______ _______ _______ _____ _____    ______ ____
ROOT
ATOM      1  C   UNL     1       1.540   8.119  20.755  0.00  0.00    +0.000 C 
ENDROOT
BRANCH   1   2
ATOM      2  C   UNL     1       2.015   6.951  19.934  0.00  0.00    +0.000 A 
ATOM      3  C   UNL     1       1.922   5.647  20.435  0.00  0.00    +0.000 A 
ATOM      4  C   UNL     1       2.351   4.567  19.663  0.00  0.00    +0.000 A 
ATOM      5  C   UNL     1       2.878   4.767  18.377  0.00  0.00    +0.000 A 
ATOM      6  C   UNL     1       2.987   6.074  17.887  0.00  0.00    +0.000 A 
ATOM      7  C   UNL     1       2.564   7.156  18.662  0.00  0.00    +0.000 A 
BRANCH   5   8
ATOM      8  C   UNL     1       3.308   3.579  17.546  0.00  0.00    +0.000 C 
BRANCH   8   9
ATOM      9  N   UNL     1       4.745   3.371  17.678  0.00  0.00    +0.000 NA
ATOM     10  H   UNL     1       4.947   2.375  17.593  0.00  0.00    +0.000 HD
BRANCH   9  11
ATOM     11  C   UNL     1       5.509   4.103  16.674  0.00  0.00    +0.000 C 
BRANCH  11  12
ATOM     12  C   UNL     1       6.374   5.153  17.334  0.00  0.00    +0.000 A 
ATOM     13  C   UNL     1       6.503   6.428  16.769  0.00  0.00    +0.000 A 
ATOM     14  C   UNL     1       7.340   7.381  17.353  0.00  0.00    +0.000 A 
ATOM     15  C   UNL     1       8.054   7.072  18.508  0.00  0.00    +0.000 A 
ATOM     16  C   UNL     1       7.919   5.816  19.093  0.00  0.00    +0.000 A 
ATOM     17  C   UNL     1       7.081   4.862  18.513  0.00  0.00    +0.000 A 
ENDBRANCH  11  12
ENDBRANCH   9  11
ENDBRANCH   8   9
ENDBRANCH   5   8
ENDBRANCH   1   2
BRANCH   1  18
ATOM     18  O   UNL     1       1.653   9.309  19.977  0.00  0.00    +0.000 OA
BRANCH  18  26
ATOM     19  O   UNL     1      -3.381  10.515  15.107  0.00  0.00    +0.000 OA
ATOM     20  C   UNL     1      -2.962  10.646  16.251  0.00  0.00    +0.000 A 
ATOM     21  C   UNL     1      -3.720  11.417  17.246  0.00  0.00    +0.000 A 
ATOM     22  C   UNL     1      -3.291  11.656  18.497  0.00  0.00    +0.000 A 
ATOM     23  C   UNL     1      -1.993  11.086  18.898  0.00  0.00    +0.000 A 
ATOM     24  C   UNL     1      -1.416  11.258  20.161  0.00  0.00    +0.000 A 
ATOM     25  C   UNL     1      -0.192  10.650  20.479  0.00  0.00    +0.000 A 
ATOM     26  C   UNL     1       0.479   9.859  19.544  0.00  0.00    +0.000 A 
ATOM     27  C   UNL     1      -0.077   9.691  18.280  0.00  0.00    +0.000 A 
ATOM     28  C   UNL     1      -1.293  10.307  17.975  0.00  0.00    +0.000 A 
ATOM     29  O   UNL     1      -1.771  10.090  16.670  0.00  0.00    +0.000 OA
BRANCH  22  30
ATOM     30  C   UNL     1      -4.082  12.450  19.504  0.00  0.00    +0.000 C 
BRANCH  30  31
ATOM     31  O   UNL     1      -5.138  13.180  18.893  0.00  0.00    +0.000 OA
ATOM     32  H   UNL     1      -5.912  12.592  18.860  0.00  0.00    +0.000 HD
ENDBRANCH  30  31
ENDBRANCH  22  30
ENDBRANCH  18  26
ENDBRANCH   1  18
TORSDOF 9
ENDMDL
MODEL 3
REMARK VINA RESULT:      -8.1      1.579      2.917
REMARK  Name = 
REMARK  9 active torsions:
REMARK  status: ('A' for Active; 'I' for Inactive)
REMARK    1  A    between atoms: C_4  and  C_5
REMARK    2  A    between atoms: C_5  and  O_6
REMARK    3  A    between atoms: C_10  and  O_11
REMARK    4  A    between atoms: O_11  and  C_12
REMARK    5  A    between atoms: C_12  and  C_13
REMARK    6  A    between atoms: C_16  and  C_17
REMARK    7  A    between atoms: C_17  and  N_18
REMARK    8  A    between atoms: N_18  and  C_19
REMARK    9  A    between atoms: C_19  and  C_20
REMARK                            x       y       z     vdW  Elec       q    Type
REMARK                         _______ _______ _______ _____ _____    ______ ____
ROOT
ATOM      1  C   UNL     1       1.773   8.601  17.573  0.00  0.00    +0.000 C 
ENDROOT
BRANCH   1   2
ATOM      2  C   UNL     1       2.782   7.578  18.021  0.00  0.00    +0.000 A 
ATOM      3  C   UNL     1       2.586   6.860  19.206  0.00  0.00    +0.000 A 
ATOM      4  C   UNL     1       3.519   5.904  19.609  0.00  0.00    +0.000 A 
ATOM      5  C   UNL     1       4.661   5.644  18.836  0.00  0.00    +0.000 A 
ATOM      6  C   UNL     1       4.863   6.378  17.660  0.00  0.00    +0.000 A 
ATOM      7  C   UNL     1       3.933   7.340  17.260  0.00  0.00    +0.000 A 
BRANCH   5   8
ATOM      8  C   UNL     1       5.642   4.581  19.275  0.00  0.00    +0.000 C 
BRANCH   8   9
ATOM      9  N   UNL     1       5.259   3.287  18.721  0.00  0.00    +0.000 NA
ATOM     10  H   UNL     1       6.080   2.843  18.310  0.00  0.00    +0.000 HD
BRANCH   9  11
ATOM     11  C   UNL     1       4.686   2.399  19.726  0.00  0.00    +0.000 C 
BRANCH  11  12
ATOM     12  C   UNL     1       3.193   2.620  19.834  0.00  0.00    +0.000 A 
ATOM     13  C   UNL     1       2.593   2.830  21.082  0.00  0.00    +0.000 A 
ATOM     14  C   UNL     1       1.209   2.986  21.185  0.00  0.00    +0.000 A 
ATOM     15  C   UNL     1       0.412   2.938  20.044  0.00  0.00    +0.000 A 
ATOM     16  C   UNL     1       0.997   2.750  18.794  0.00  0.00    +0.000 A 
ATOM     17  C   UNL     1       2.381   2.597  18.688  0.00  0.00    +0.000 A 
ENDBRANCH  11  12
ENDBRANCH   9  11
ENDBRANCH   8   9
ENDBRANCH   5   8
ENDBRANCH   1   2
BRANCH   1  18
ATOM     18  O   UNL     1       1.637   9.594  18.589  0.00  0.00    +0.000 OA
BRANCH  18  26
ATOM     19  O   UNL     1      -3.130  13.782  21.790  0.00  0.00    +0.000 OA
ATOM     20  C   UNL     1      -2.834  13.023  20.874  0.00  0.00    +0.000 A 
ATOM     21  C   UNL     1      -3.820  12.662  19.847  0.00  0.00    +0.000 A 
ATOM     22  C   UNL     1      -3.584  11.786  18.855  0.00  0.00    +0.000 A 
ATOM     23  C   UNL     1      -2.245  11.176  18.781  0.00  0.00    +0.000 A 
ATOM     24  C   UNL     1      -1.858  10.244  17.811  0.00  0.00    +0.000 A 
ATOM     25  C   UNL     1      -0.550   9.736  17.786  0.00  0.00    +0.000 A 
ATOM     26  C   UNL     1       0.396  10.148  18.727  0.00  0.00    +0.000 A 
ATOM     27  C   UNL     1       0.021  11.063  19.705  0.00  0.00    +0.000 A 
ATOM     28  C   UNL     1      -1.286  11.556  19.722  0.00  0.00    +0.000 A 
ATOM     29  O   UNL     1      -1.577  12.467  20.754  0.00  0.00    +0.000 OA
BRANCH  22  30
ATOM     30  C   UNL     1      -4.608  11.427  17.810  0.00  0.00    +0.000 C 
BRANCH  30  31
ATOM     31  O   UNL     1      -4.356  12.082  16.573  0.00  0.00    +0.000 OA
ATOM     32  H   UNL     1      -3.707  11.542  16.089  0.00  0.00    +0.000 HD
ENDBRANCH  30  31
ENDBRANCH  22  30
ENDBRANCH  18  26
ENDBRANCH   1  18
TORSDOF 9
ENDMDL
MODEL 4
REMARK VINA RESULT:      -8.0      1.313      2.104
REMARK  Name = 
REMARK  9 active torsions:
REMARK  status: ('A' for Active; 'I' for Inactive)
REMARK    1  A    between atoms: C_4  and  C_5
REMARK    2  A    between atoms: C_5  and  O_6
REMARK    3  A    between atoms: C_10  and  O_11
REMARK    4  A    between atoms: O_11  and  C_12
REMARK    5  A    between atoms: C_12  and  C_13
REMARK    6  A    between atoms: C_16  and  C_17
REMARK    7  A    between atoms: C_17  and  N_18
REMARK    8  A    between atoms: N_18  and  C_19
REMARK    9  A    between atoms: C_19  and  C_20
REMARK                            x       y       z     vdW  Elec       q    Type
REMARK                         _______ _______ _______ _____ _____    ______ ____
ROOT
ATOM      1  C   UNL     1       1.855   8.759  17.750  0.00  0.00    +0.000 C 
ENDROOT
BRANCH   1   2
ATOM      2  C   UNL     1       2.784   7.640  18.136  0.00  0.00    +0.000 A 
ATOM      3  C   UNL     1       3.847   7.281  17.299  0.00  0.00    +0.000 A 
ATOM      4  C   UNL     1       4.713   6.251  17.669  0.00  0.00    +0.000 A 
ATOM      5  C   UNL     1       4.536   5.563  18.879  0.00  0.00    +0.000 A 
ATOM      6  C   UNL     1       3.459   5.911  19.704  0.00  0.00    +0.000 A 
ATOM      7  C   UNL     1       2.588   6.938  19.331  0.00  0.00    +0.000 A 
BRANCH   5   8
ATOM      8  C   UNL     1       5.505   4.471  19.274  0.00  0.00    +0.000 C 
BRANCH   8   9
ATOM      9  N   UNL     1       5.193   3.242  18.554  0.00  0.00    +0.000 NA
ATOM     10  H   UNL     1       6.047   2.874  18.135  0.00  0.00    +0.000 HD
BRANCH   9  11
ATOM     11  C   UNL     1       4.606   2.224  19.419  0.00  0.00    +0.000 C 
BRANCH  11  12
ATOM     12  C   UNL     1       3.154   2.543  19.696  0.00  0.00    +0.000 A 
ATOM     13  C   UNL     1       2.708   2.749  21.008  0.00  0.00    +0.000 A 
ATOM     14  C   UNL     1       1.357   2.995  21.267  0.00  0.00    +0.000 A 
ATOM     15  C   UNL     1       0.441   3.042  20.219  0.00  0.00    +0.000 A 
ATOM     16  C   UNL     1       0.873   2.860  18.908  0.00  0.00    +0.000 A 
ATOM     17  C   UNL     1       2.223   2.616  18.646  0.00  0.00    +0.000 A 
ENDBRANCH  11  12
ENDBRANCH   9  11
ENDBRANCH   8   9
ENDBRANCH   5   8
ENDBRANCH   1   2
BRANCH   1  18
ATOM     18  O   UNL     1       1.686   9.628  18.870  0.00  0.00    +0.000 OA
BRANCH  18  26
ATOM     19  O   UNL     1      -4.863  11.194  16.597  0.00  0.00    +0.000 OA
ATOM     20  C   UNL     1      -3.996  11.270  17.460  0.00  0.00    +0.000 A 
ATOM     21  C   UNL     1      -4.226  12.034  18.693  0.00  0.00    +0.000 A 
ATOM     22  C   UNL     1      -3.299  12.214  19.650  0.00  0.00    +0.000 A 
ATOM     23  C   UNL     1      -1.983  11.580  19.457  0.00  0.00    +0.000 A 
ATOM     24  C   UNL     1      -0.919  11.686  20.361  0.00  0.00    +0.000 A 
ATOM     25  C   UNL     1       0.293  11.020  20.124  0.00  0.00    +0.000 A 
ATOM     26  C   UNL     1       0.468  10.237  18.981  0.00  0.00    +0.000 A 
ATOM     27  C   UNL     1      -0.576  10.134  18.067  0.00  0.00    +0.000 A 
ATOM     28  C   UNL     1      -1.775  10.807  18.314  0.00  0.00    +0.000 A 
ATOM     29  O   UNL     1      -2.768  10.654  17.329  0.00  0.00    +0.000 OA
BRANCH  22  30
ATOM     30  C   UNL     1      -3.552  13.001  20.908  0.00  0.00    +0.000 C 
BRANCH  30  31
ATOM     31  O   UNL     1      -4.770  12.622  21.536  0.00  0.00    +0.000 OA
ATOM     32  H   UNL     1      -5.276  12.102  20.889  0.00  0.00    +0.000 HD
ENDBRANCH  30  31
ENDBRANCH  22  30
ENDBRANCH  18  26
ENDBRANCH   1  18
TORSDOF 9
ENDMDL
MODEL 5
REMARK VINA RESULT:      -7.8      6.865      9.535
REMARK  Name = 
REMARK  9 active torsions:
REMARK  status: ('A' for Active; 'I' for Inactive)
REMARK    1  A    between atoms: C_4  and  C_5
REMARK    2  A    between atoms: C_5  and  O_6
REMARK    3  A    between atoms: C_10  and  O_11
REMARK    4  A    between atoms: O_11  and  C_12
REMARK    5  A    between atoms: C_12  and  C_13
REMARK    6  A    between atoms: C_16  and  C_17
REMARK    7  A    between atoms: C_17  and  N_18
REMARK    8  A    between atoms: N_18  and  C_19
REMARK    9  A    between atoms: C_19  and  C_20
REMARK                            x       y       z     vdW  Elec       q    Type
REMARK                         _______ _______ _______ _____ _____    ______ ____
ROOT
ATOM      1  C   UNL     1       8.159   8.874  17.677  0.00  0.00    +0.000 C 
ENDROOT
BRANCH   1   2
ATOM      2  C   UNL     1       7.367   7.600  17.806  0.00  0.00    +0.000 A 
ATOM      3  C   UNL     1       6.150   7.451  17.130  0.00  0.00    +0.000 A 
ATOM      4  C   UNL     1       5.427   6.262  17.243  0.00  0.00    +0.000 A 
ATOM      5  C   UNL     1       5.906   5.202  18.028  0.00  0.00    +0.000 A 
ATOM      6  C   UNL     1       7.114   5.362  18.718  0.00  0.00    +0.000 A 
ATOM      7  C   UNL     1       7.835   6.554  18.610  0.00  0.00    +0.000 A 
BRANCH   5   8
ATOM      8  C   UNL     1       5.121   3.912  18.111  0.00  0.00    +0.000 C 
BRANCH   8   9
ATOM      9  N   UNL     1       4.062   3.906  17.109  0.00  0.00    +0.000 NA
ATOM     10  H   UNL     1       4.456   3.638  16.207  0.00  0.00    +0.000 HD
BRANCH   9  11
ATOM     11  C   UNL     1       2.978   2.992  17.449  0.00  0.00    +0.000 C 
BRANCH  11  12
ATOM     12  C   UNL     1       2.529   3.216  18.877  0.00  0.00    +0.000 A 
ATOM     13  C   UNL     1       3.073   2.459  19.922  0.00  0.00    +0.000 A 
ATOM     14  C   UNL     1       2.623   2.633  21.232  0.00  0.00    +0.000 A 
ATOM     15  C   UNL     1       1.630   3.568  21.513  0.00  0.00    +0.000 A 
ATOM     16  C   UNL     1       1.095   4.343  20.487  0.00  0.00    +0.000 A 
ATOM     17  C   UNL     1       1.545   4.173  19.176  0.00  0.00    +0.000 A 
ENDBRANCH  11  12
ENDBRANCH   9  11
ENDBRANCH   8   9
ENDBRANCH   5   8
ENDBRANCH   1   2
BRANCH   1  18
ATOM     18  O   UNL     1       8.862   9.107  18.896  0.00  0.00    +0.000 OA
BRANCH  18  26
ATOM     19  O   UNL     1      10.916  15.584  16.813  0.00  0.00    +0.000 OA
ATOM     20  C   UNL     1      10.616  14.807  17.712  0.00  0.00    +0.000 A 
ATOM     21  C   UNL     1      10.663  15.229  19.118  0.00  0.00    +0.000 A 
ATOM     22  C   UNL     1      10.411  14.414  20.156  0.00  0.00    +0.000 A 
ATOM     23  C   UNL     1      10.038  13.020  19.858  0.00  0.00    +0.000 A 
ATOM     24  C   UNL     1       9.757  12.056  20.834  0.00  0.00    +0.000 A 
ATOM     25  C   UNL     1       9.371  10.757  20.468  0.00  0.00    +0.000 A 
ATOM     26  C   UNL     1       9.259  10.395  19.124  0.00  0.00    +0.000 A 
ATOM     27  C   UNL     1       9.550  11.339  18.145  0.00  0.00    +0.000 A 
ATOM     28  C   UNL     1       9.938  12.626  18.523  0.00  0.00    +0.000 A 
ATOM     29  O   UNL     1      10.223  13.508  17.465  0.00  0.00    +0.000 OA
BRANCH  22  30
ATOM     30  C   UNL     1      10.465  14.863  21.593  0.00  0.00    +0.000 C 
BRANCH  30  31
ATOM     31  O   UNL     1       9.202  15.331  22.050  0.00  0.00    +0.000 OA
ATOM     32  H   UNL     1       9.108  15.045  22.975  0.00  0.00    +0.000 HD
ENDBRANCH  30  31
ENDBRANCH  22  30
ENDBRANCH  18  26
ENDBRANCH   1  18
TORSDOF 9
ENDMDL
MODEL 6
REMARK VINA RESULT:      -7.8      3.768      9.548
REMARK  Name = 
REMARK  9 active torsions:
REMARK  status: ('A' for Active; 'I' for Inactive)
REMARK    1  A    between atoms: C_4  and  C_5
REMARK    2  A    between atoms: C_5  and  O_6
REMARK    3  A    between atoms: C_10  and  O_11
REMARK    4  A    between atoms: O_11  and  C_12
REMARK    5  A    between atoms: C_12  and  C_13
REMARK    6  A    between atoms: C_16  and  C_17
REMARK    7  A    between atoms: C_17  and  N_18
REMARK    8  A    between atoms: N_18  and  C_19
REMARK    9  A    between atoms: C_19  and  C_20
REMARK                            x       y       z     vdW  Elec       q    Type
REMARK                         _______ _______ _______ _____ _____    ______ ____
ROOT
ATOM      1  C   UNL     1       1.063   8.124  21.071  0.00  0.00    +0.000 C 
ENDROOT
BRANCH   1   2
ATOM      2  C   UNL     1       0.202   9.296  21.455  0.00  0.00    +0.000 A 
ATOM      3  C   UNL     1      -0.224   9.460  22.779  0.00  0.00    +0.000 A 
ATOM      4  C   UNL     1      -1.012  10.556  23.131  0.00  0.00    +0.000 A 
ATOM      5  C   UNL     1      -1.387  11.510  22.172  0.00  0.00    +0.000 A 
ATOM      6  C   UNL     1      -0.975  11.333  20.845  0.00  0.00    +0.000 A 
ATOM      7  C   UNL     1      -0.192  10.231  20.490  0.00  0.00    +0.000 A 
BRANCH   5   8
ATOM      8  C   UNL     1      -2.215  12.706  22.582  0.00  0.00    +0.000 C 
BRANCH   8   9
ATOM      9  N   UNL     1      -3.613  12.492  22.228  0.00  0.00    +0.000 NA
ATOM     10  H   UNL     1      -4.204  12.787  23.005  0.00  0.00    +0.000 HD
BRANCH   9  11
ATOM     11  C   UNL     1      -4.001  13.224  21.027  0.00  0.00    +0.000 C 
BRANCH  11  12
ATOM     12  C   UNL     1      -4.935  12.387  20.180  0.00  0.00    +0.000 A 
ATOM     13  C   UNL     1      -6.184  11.992  20.676  0.00  0.00    +0.000 A 
ATOM     14  C   UNL     1      -7.025  11.179  19.912  0.00  0.00    +0.000 A 
ATOM     15  C   UNL     1      -6.629  10.757  18.645  0.00  0.00    +0.000 A 
ATOM     16  C   UNL     1      -5.399  11.159  18.131  0.00  0.00    +0.000 A 
ATOM     17  C   UNL     1      -4.558  11.973  18.892  0.00  0.00    +0.000 A 
ENDBRANCH  11  12
ENDBRANCH   9  11
ENDBRANCH   8   9
ENDBRANCH   5   8
ENDBRANCH   1   2
BRANCH   1  18
ATOM     18  O   UNL     1       1.783   8.448  19.882  0.00  0.00    +0.000 OA
BRANCH  18  26
ATOM     19  O   UNL     1       5.994   5.614  14.908  0.00  0.00    +0.000 OA
ATOM     20  C   UNL     1       5.255   5.471  15.875  0.00  0.00    +0.000 A 
ATOM     21  C   UNL     1       4.950   4.133  16.399  0.00  0.00    +0.000 A 
ATOM     22  C   UNL     1       4.099   3.900  17.412  0.00  0.00    +0.000 A 
ATOM     23  C   UNL     1       3.457   5.062  18.051  0.00  0.00    +0.000 A 
ATOM     24  C   UNL     1       2.544   4.973  19.109  0.00  0.00    +0.000 A 
ATOM     25  C   UNL     1       2.005   6.131  19.690  0.00  0.00    +0.000 A 
ATOM     26  C   UNL     1       2.365   7.399  19.227  0.00  0.00    +0.000 A 
ATOM     27  C   UNL     1       3.260   7.501  18.167  0.00  0.00    +0.000 A 
ATOM     28  C   UNL     1       3.784   6.340  17.595  0.00  0.00    +0.000 A 
ATOM     29  O   UNL     1       4.671   6.542  16.522  0.00  0.00    +0.000 OA
BRANCH  22  30
ATOM     30  C   UNL     1       3.796   2.520  17.936  0.00  0.00    +0.000 C 
BRANCH  30  31
ATOM     31  O   UNL     1       4.609   2.188  19.055  0.00  0.00    +0.000 OA
ATOM     32  H   UNL     1       5.406   2.743  19.006  0.00  0.00    +0.000 HD
ENDBRANCH  30  31
ENDBRANCH  22  30
ENDBRANCH  18  26
ENDBRANCH   1  18
TORSDOF 9
ENDMDL
MODEL 7
REMARK VINA RESULT:      -7.8      3.262      4.184
REMARK  Name = 
REMARK  9 active torsions:
REMARK  status: ('A' for Active; 'I' for Inactive)
REMARK    1  A    between atoms: C_4  and  C_5
REMARK    2  A    between atoms: C_5  and  O_6
REMARK    3  A    between atoms: C_10  and  O_11
REMARK    4  A    between atoms: O_11  and  C_12
REMARK    5  A    between atoms: C_12  and  C_13
REMARK    6  A    between atoms: C_16  and  C_17
REMARK    7  A    between atoms: C_17  and  N_18
REMARK    8  A    between atoms: N_18  and  C_19
REMARK    9  A    between atoms: C_19  and  C_20
REMARK                            x       y       z     vdW  Elec       q    Type
REMARK                         _______ _______ _______ _____ _____    ______ ____
ROOT
ATOM      1  C   UNL     1       1.577   8.645  17.588  0.00  0.00    +0.000 C 
ENDROOT
BRANCH   1   2
ATOM      2  C   UNL     1       2.578   7.618  18.042  0.00  0.00    +0.000 A 
ATOM      3  C   UNL     1       3.685   7.305  17.245  0.00  0.00    +0.000 A 
ATOM      4  C   UNL     1       4.617   6.361  17.678  0.00  0.00    +0.000 A 
ATOM      5  C   UNL     1       4.463   5.715  18.914  0.00  0.00    +0.000 A 
ATOM      6  C   UNL     1       3.344   6.016  19.701  0.00  0.00    +0.000 A 
ATOM      7  C   UNL     1       2.408   6.955  19.264  0.00  0.00    +0.000 A 
BRANCH   5   8
ATOM      8  C   UNL     1       5.502   4.719  19.378  0.00  0.00    +0.000 C 
BRANCH   8   9
ATOM      9  N   UNL     1       5.274   3.426  18.742  0.00  0.00    +0.000 NA
ATOM     10  H   UNL     1       6.154   3.083  18.357  0.00  0.00    +0.000 HD
BRANCH   9  11
ATOM     11  C   UNL     1       4.739   2.436  19.670  0.00  0.00    +0.000 C 
BRANCH  11  12
ATOM     12  C   UNL     1       3.240   2.598  19.803  0.00  0.00    +0.000 A 
ATOM     13  C   UNL     1       2.419   2.587  18.669  0.00  0.00    +0.000 A 
ATOM     14  C   UNL     1       1.041   2.784  18.789  0.00  0.00    +0.000 A 
ATOM     15  C   UNL     1       0.470   2.989  20.043  0.00  0.00    +0.000 A 
ATOM     16  C   UNL     1       1.272   2.982  21.182  0.00  0.00    +0.000 A 
ATOM     17  C   UNL     1       2.649   2.782  21.064  0.00  0.00    +0.000 A 
ENDBRANCH  11  12
ENDBRANCH   9  11
ENDBRANCH   8   9
ENDBRANCH   5   8
ENDBRANCH   1   2
BRANCH   1  18
ATOM     18  O   UNL     1       2.157   9.943  17.707  0.00  0.00    +0.000 OA
BRANCH  18  26
ATOM     19  O   UNL     1      -1.934  11.244  23.371  0.00  0.00    +0.000 OA
ATOM     20  C   UNL     1      -1.127  11.636  22.536  0.00  0.00    +0.000 A 
ATOM     21  C   UNL     1      -0.678  13.035  22.521  0.00  0.00    +0.000 A 
ATOM     22  C   UNL     1       0.153  13.547  21.597  0.00  0.00    +0.000 A 
ATOM     23  C   UNL     1       0.663  12.640  20.555  0.00  0.00    +0.000 A 
ATOM     24  C   UNL     1       1.526  13.033  19.525  0.00  0.00    +0.000 A 
ATOM     25  C   UNL     1       1.999  12.099  18.590  0.00  0.00    +0.000 A 
ATOM     26  C   UNL     1       1.620  10.756  18.665  0.00  0.00    +0.000 A 
ATOM     27  C   UNL     1       0.752  10.356  19.675  0.00  0.00    +0.000 A 
ATOM     28  C   UNL     1       0.284  11.297  20.594  0.00  0.00    +0.000 A 
ATOM     29  O   UNL     1      -0.598  10.802  21.572  0.00  0.00    +0.000 OA
BRANCH  22  30
ATOM     30  C   UNL     1       0.602  14.985  21.597  0.00  0.00    +0.000 C 
BRANCH  30  31
ATOM     31  O   UNL     1      -0.469  15.875  21.306  0.00  0.00    +0.000 OA
ATOM     32  H   UNL     1      -1.000  15.465  20.602  0.00  0.00    +0.000 HD
ENDBRANCH  30  31
ENDBRANCH  22  30
ENDBRANCH  18  26
ENDBRANCH   1  18
TORSDOF 9
ENDMDL
MODEL 8
REMARK VINA RESULT:      -7.8      1.348      1.960
REMARK  Name = 
REMARK  9 active torsions:
REMARK  status: ('A' for Active; 'I' for Inactive)
REMARK    1  A    between atoms: C_4  and  C_5
REMARK    2  A    between atoms: C_5  and  O_6
REMARK    3  A    between atoms: C_10  and  O_11
REMARK    4  A    between atoms: O_11  and  C_12
REMARK    5  A    between atoms: C_12  and  C_13
REMARK    6  A    between atoms: C_16  and  C_17
REMARK    7  A    between atoms: C_17  and  N_18
REMARK    8  A    between atoms: N_18  and  C_19
REMARK    9  A    between atoms: C_19  and  C_20
REMARK                            x       y       z     vdW  Elec       q    Type
REMARK                         _______ _______ _______ _____ _____    ______ ____
ROOT
ATOM      1  C   UNL     1       0.939   9.766  19.201  0.00  0.00    +0.000 C 
ENDROOT
BRANCH   1   2
ATOM      2  C   UNL     1       1.839   8.593  18.920  0.00  0.00    +0.000 A 
ATOM      3  C   UNL     1       1.968   7.559  19.855  0.00  0.00    +0.000 A 
ATOM      4  C   UNL     1       2.794   6.467  19.582  0.00  0.00    +0.000 A 
ATOM      5  C   UNL     1       3.503   6.386  18.374  0.00  0.00    +0.000 A 
ATOM      6  C   UNL     1       3.386   7.432  17.449  0.00  0.00    +0.000 A 
ATOM      7  C   UNL     1       2.565   8.528  17.725  0.00  0.00    +0.000 A 
BRANCH   5   8
ATOM      8  C   UNL     1       4.367   5.179  18.087  0.00  0.00    +0.000 C 
BRANCH   8   9
ATOM      9  N   UNL     1       3.687   4.288  17.154  0.00  0.00    +0.000 NA
ATOM     10  H   UNL     1       4.196   4.277  16.270  0.00  0.00    +0.000 HD
BRANCH   9  11
ATOM     11  C   UNL     1       3.581   2.925  17.663  0.00  0.00    +0.000 C 
BRANCH  11  12
ATOM     12  C   UNL     1       2.784   2.904  18.949  0.00  0.00    +0.000 A 
ATOM     13  C   UNL     1       1.408   3.164  18.938  0.00  0.00    +0.000 A 
ATOM     14  C   UNL     1       0.682   3.192  20.130  0.00  0.00    +0.000 A 
ATOM     15  C   UNL     1       1.322   2.956  21.345  0.00  0.00    +0.000 A 
ATOM     16  C   UNL     1       2.686   2.676  21.370  0.00  0.00    +0.000 A 
ATOM     17  C   UNL     1       3.413   2.645  20.178  0.00  0.00    +0.000 A 
ENDBRANCH  11  12
ENDBRANCH   9  11
ENDBRANCH   8   9
ENDBRANCH   5   8
ENDBRANCH   1   2
BRANCH   1  18
ATOM     18  O   UNL     1      -0.128   9.768  18.254  0.00  0.00    +0.000 OA
BRANCH  18  26
ATOM     19  O   UNL     1      -6.981  11.579  17.737  0.00  0.00    +0.000 OA
ATOM     20  C   UNL     1      -5.884  11.728  18.262  0.00  0.00    +0.000 A 
ATOM     21  C   UNL     1      -5.679  12.745  19.301  0.00  0.00    +0.000 A 
ATOM     22  C   UNL     1      -4.491  13.007  19.873  0.00  0.00    +0.000 A 
ATOM     23  C   UNL     1      -3.333  12.202  19.446  0.00  0.00    +0.000 A 
ATOM     24  C   UNL     1      -2.035  12.367  19.945  0.00  0.00    +0.000 A 
ATOM     25  C   UNL     1      -0.991  11.534  19.516  0.00  0.00    +0.000 A 
ATOM     26  C   UNL     1      -1.221  10.521  18.581  0.00  0.00    +0.000 A 
ATOM     27  C   UNL     1      -2.502  10.356  18.067  0.00  0.00    +0.000 A 
ATOM     28  C   UNL     1      -3.531  11.196  18.499  0.00  0.00    +0.000 A 
ATOM     29  O   UNL     1      -4.789  10.962  17.915  0.00  0.00    +0.000 OA
BRANCH  22  30
ATOM     30  C   UNL     1      -4.299  14.056  20.937  0.00  0.00    +0.000 C 
BRANCH  30  31
ATOM     31  O   UNL     1      -4.033  15.337  20.378  0.00  0.00    +0.000 OA
ATOM     32  H   UNL     1      -3.623  15.190  19.508  0.00  0.00    +0.000 HD
ENDBRANCH  30  31
ENDBRANCH  22  30
ENDBRANCH  18  26
ENDBRANCH   1  18
TORSDOF 9
ENDMDL
MODEL 9
REMARK VINA RESULT:      -7.7      1.524      2.707
REMARK  Name = 
REMARK  9 active torsions:
REMARK  status: ('A' for Active; 'I' for Inactive)
REMARK    1  A    between atoms: C_4  and  C_5
REMARK    2  A    between atoms: C_5  and  O_6
REMARK    3  A    between atoms: C_10  and  O_11
REMARK    4  A    between atoms: O_11  and  C_12
REMARK    5  A    between atoms: C_12  and  C_13
REMARK    6  A    between atoms: C_16  and  C_17
REMARK    7  A    between atoms: C_17  and  N_18
REMARK    8  A    between atoms: N_18  and  C_19
REMARK    9  A    between atoms: C_19  and  C_20
REMARK                            x       y       z     vdW  Elec       q    Type
REMARK                         _______ _______ _______ _____ _____    ______ ____
ROOT
ATOM      1  C   UNL     1       1.316   9.387  19.070  0.00  0.00    +0.000 C 
ENDROOT
BRANCH   1   2
ATOM      2  C   UNL     1       2.206   8.201  18.813  0.00  0.00    +0.000 A 
ATOM      3  C   UNL     1       2.988   8.139  17.654  0.00  0.00    +0.000 A 
ATOM      4  C   UNL     1       3.821   7.043  17.428  0.00  0.00    +0.000 A 
ATOM      5  C   UNL     1       3.891   5.991  18.354  0.00  0.00    +0.000 A 
ATOM      6  C   UNL     1       3.093   6.047  19.503  0.00  0.00    +0.000 A 
ATOM      7  C   UNL     1       2.254   7.141  19.727  0.00  0.00    +0.000 A 
BRANCH   5   8
ATOM      8  C   UNL     1       4.824   4.828  18.103  0.00  0.00    +0.000 C 
BRANCH   8   9
ATOM      9  N   UNL     1       5.175   4.187  19.365  0.00  0.00    +0.000 NA
ATOM     10  H   UNL     1       4.755   4.710  20.134  0.00  0.00    +0.000 HD
BRANCH   9  11
ATOM     11  C   UNL     1       4.727   2.800  19.429  0.00  0.00    +0.000 C 
BRANCH  11  12
ATOM     12  C   UNL     1       3.229   2.739  19.632  0.00  0.00    +0.000 A 
ATOM     13  C   UNL     1       2.371   2.523  18.547  0.00  0.00    +0.000 A 
ATOM     14  C   UNL     1       0.986   2.515  18.728  0.00  0.00    +0.000 A 
ATOM     15  C   UNL     1       0.445   2.718  19.995  0.00  0.00    +0.000 A 
ATOM     16  C   UNL     1       1.287   2.914  21.087  0.00  0.00    +0.000 A 
ATOM     17  C   UNL     1       2.672   2.919  20.909  0.00  0.00    +0.000 A 
ENDBRANCH  11  12
ENDBRANCH   9  11
ENDBRANCH   8   9
ENDBRANCH   5   8
ENDBRANCH   1   2
BRANCH   1  18
ATOM     18  O   UNL     1       0.516   9.626  17.913  0.00  0.00    +0.000 OA
BRANCH  18  26
ATOM     19  O   UNL     1      -4.006  13.757  21.518  0.00  0.00    +0.000 OA
ATOM     20  C   UNL     1      -3.769  13.035  20.556  0.00  0.00    +0.000 A 
ATOM     21  C   UNL     1      -4.809  12.740  19.561  0.00  0.00    +0.000 A 
ATOM     22  C   UNL     1      -4.639  11.907  18.521  0.00  0.00    +0.000 A 
ATOM     23  C   UNL     1      -3.318  11.274  18.358  0.00  0.00    +0.000 A 
ATOM     24  C   UNL     1      -2.997  10.380  17.329  0.00  0.00    +0.000 A 
ATOM     25  C   UNL     1      -1.703   9.848  17.220  0.00  0.00    +0.000 A 
ATOM     26  C   UNL     1      -0.706  10.198  18.133  0.00  0.00    +0.000 A 
ATOM     27  C   UNL     1      -1.015  11.075  19.167  0.00  0.00    +0.000 A 
ATOM     28  C   UNL     1      -2.309  11.592  19.268  0.00  0.00    +0.000 A 
ATOM     29  O   UNL     1      -2.531  12.460  20.352  0.00  0.00    +0.000 OA
BRANCH  22  30
ATOM     30  C   UNL     1      -5.717  11.616  17.510  0.00  0.00    +0.000 C 
BRANCH  30  31
ATOM     31  O   UNL     1      -6.342  12.805  17.044  0.00  0.00    +0.000 OA
ATOM     32  H   UNL     1      -5.647  13.358  16.648  0.00  0.00    +0.000 HD
ENDBRANCH  30  31
ENDBRANCH  22  30
ENDBRANCH  18  26
ENDBRANCH   1  18
TORSDOF 9
ENDMDL
