MODEL 1
REMARK VINA RESULT:      -7.1      0.000      0.000
REMARK  Name = 
REMARK  13 active torsions:
REMARK  status: ('A' for Active; 'I' for Inactive)
REMARK    1  A    between atoms: C_1  and  C_2
REMARK    2  A    between atoms: C_2  and  C_3
REMARK    3  A    between atoms: C_3  and  C_4
REMARK    4  A    between atoms: C_4  and  N_5
REMARK    5  A    between atoms: C_12  and  N_13
REMARK    6  A    between atoms: C_18  and  N_19
REMARK    7  A    between atoms: N_19  and  C_20
REMARK    8  A    between atoms: N_19  and  C_23
REMARK    9  A    between atoms: C_20  and  C_21
REMARK   10  A    between atoms: C_21  and  C_22
REMARK   11  A    between atoms: C_23  and  C_24
REMARK   12  A    between atoms: C_24  and  C_25
REMARK   13  A    between atoms: C_26  and  C_27
REMARK                            x       y       z     vdW  Elec       q    Type
REMARK                         _______ _______ _______ _____ _____    ______ ____
ROOT
ATOM      1  N   UNL     1       1.032   8.162  20.069  0.00  0.00    +0.000 N 
ATOM      2  C   UNL     1       1.505   9.007  19.072  0.00  0.00    +0.000 C 
ATOM      3  O   UNL     1       1.211  10.176  18.876  0.00  0.00    +0.000 OA
ATOM      4  C   UNL     1       2.508   8.222  18.254  0.00  0.00    +0.000 C 
ATOM      5  C   UNL     1       2.618   6.915  18.988  0.00  0.00    +0.000 A 
ATOM      6  C   UNL     1       1.711   6.940  20.045  0.00  0.00    +0.000 A 
ATOM      7  N   UNL     1       1.546   5.941  20.906  0.00  0.00    +0.000 NA
ATOM      8  C   UNL     1       2.326   4.857  20.704  0.00  0.00    +0.000 A 
ATOM      9  C   UNL     1       3.294   4.724  19.651  0.00  0.00    +0.000 A 
ATOM     10  C   UNL     1       4.111   3.599  19.422  0.00  0.00    +0.000 A 
ATOM     11  N   UNL     1       4.125   2.498  20.285  0.00  0.00    +0.000 N 
ATOM     12  N   UNL     1       4.995   3.496  18.407  0.00  0.00    +0.000 NA
ATOM     13  C   UNL     1       5.196   4.508  17.530  0.00  0.00    +0.000 A 
ATOM     14  C   UNL     1       4.452   5.683  17.706  0.00  0.00    +0.000 A 
ATOM     15  C   UNL     1       3.465   5.801  18.756  0.00  0.00    +0.000 A 
ATOM     16  H   UNL     1       3.180   2.152  20.437  0.00  0.00    +0.000 HD
ATOM     17  H   UNL     1       4.737   1.798  19.870  0.00  0.00    +0.000 HD
ENDROOT
BRANCH   8  18
ATOM     18  N   UNL     1       2.072   3.818  21.610  0.00  0.00    +0.000 N 
ATOM     19  H   UNL     1       2.266   2.946  21.120  0.00  0.00    +0.000 HD
ATOM     20  H   UNL     1       1.107   3.866  21.931  0.00  0.00    +0.000 HD
ENDBRANCH   8  18
BRANCH  14  21
ATOM     21  C   UNL     1       4.645   6.787  16.828  0.00  0.00    +0.000 C 
ATOM     22  N   UNL     1       4.772   7.724  16.149  0.00  0.00    +0.000 NA
ENDBRANCH  14  21
BRANCH   1  23
ATOM     23  C   UNL     1       0.209   8.606  21.175  0.00  0.00    +0.000 C 
BRANCH  23  24
ATOM     24  C   UNL     1       1.023   9.127  22.365  0.00  0.00    +0.000 C 
BRANCH  24  26
ATOM     25  C   UNL     1      -0.985  10.466  23.077  0.00  0.00    +0.000 C 
ATOM     26  C   UNL     1       0.119   9.524  23.533  0.00  0.00    +0.000 C 
ENDBRANCH  24  26
ENDBRANCH  23  24
ENDBRANCH   1  23
BRANCH  13  27
ATOM     27  N   UNL     1       6.114   4.241  16.522  0.00  0.00    +0.000 N 
BRANCH  27  28
ATOM     28  C   UNL     1       5.926   3.424  15.309  0.00  0.00    +0.000 C 
BRANCH  28  29
ATOM     29  C   UNL     1       5.746   4.209  14.004  0.00  0.00    +0.000 C 
ATOM     30  C   UNL     1       5.991   3.413  12.730  0.00  0.00    +0.000 C 
ENDBRANCH  28  29
ENDBRANCH  27  28
BRANCH  27  31
ATOM     31  C   UNL     1       7.524   4.573  16.831  0.00  0.00    +0.000 C 
BRANCH  31  32
ATOM     32  C   UNL     1       7.742   4.941  18.309  0.00  0.00    +0.000 C 
ATOM     33  C   UNL     1       7.906   6.431  18.582  0.00  0.00    +0.000 C 
ENDBRANCH  31  32
ENDBRANCH  27  31
ENDBRANCH  13  27
TORSDOF 10
ENDMDL
MODEL 2
REMARK VINA RESULT:      -7.0      0.522      2.256
REMARK  Name = 
REMARK  13 active torsions:
REMARK  status: ('A' for Active; 'I' for Inactive)
REMARK    1  A    between atoms: C_1  and  C_2
REMARK    2  A    between atoms: C_2  and  C_3
REMARK    3  A    between atoms: C_3  and  C_4
REMARK    4  A    between atoms: C_4  and  N_5
REMARK    5  A    between atoms: C_12  and  N_13
REMARK    6  A    between atoms: C_18  and  N_19
REMARK    7  A    between atoms: N_19  and  C_20
REMARK    8  A    between atoms: N_19  and  C_23
REMARK    9  A    between atoms: C_20  and  C_21
REMARK   10  A    between atoms: C_21  and  C_22
REMARK   11  A    between atoms: C_23  and  C_24
REMARK   12  A    between atoms: C_24  and  C_25
REMARK   13  A    between atoms: C_26  and  C_27
REMARK                            x       y       z     vdW  Elec       q    Type
REMARK                         _______ _______ _______ _____ _____    ______ ____
ROOT
ATOM      1  N   UNL     1       0.825   7.879  20.494  0.00  0.00    +0.000 N 
ATOM      2  C   UNL     1       1.309   8.774  19.548  0.00  0.00    +0.000 C 
ATOM      3  O   UNL     1       1.005   9.948  19.400  0.00  0.00    +0.000 OA
ATOM      4  C   UNL     1       2.339   8.040  18.717  0.00  0.00    +0.000 C 
ATOM      5  C   UNL     1       2.450   6.702  19.392  0.00  0.00    +0.000 A 
ATOM      6  C   UNL     1       1.519   6.667  20.429  0.00  0.00    +0.000 A 
ATOM      7  N   UNL     1       1.348   5.627  21.239  0.00  0.00    +0.000 NA
ATOM      8  C   UNL     1       2.146   4.563  21.005  0.00  0.00    +0.000 A 
ATOM      9  C   UNL     1       3.139   4.490  19.968  0.00  0.00    +0.000 A 
ATOM     10  C   UNL     1       3.974   3.386  19.706  0.00  0.00    +0.000 A 
ATOM     11  N   UNL     1       3.983   2.246  20.518  0.00  0.00    +0.000 N 
ATOM     12  N   UNL     1       4.882   3.341  18.707  0.00  0.00    +0.000 NA
ATOM     13  C   UNL     1       5.089   4.394  17.883  0.00  0.00    +0.000 A 
ATOM     14  C   UNL     1       4.327   5.552  18.097  0.00  0.00    +0.000 A 
ATOM     15  C   UNL     1       3.315   5.609  19.128  0.00  0.00    +0.000 A 
ATOM     16  H   UNL     1       3.039   1.883  20.632  0.00  0.00    +0.000 HD
ATOM     17  H   UNL     1       4.612   1.574  20.085  0.00  0.00    +0.000 HD
ENDROOT
BRANCH   8  18
ATOM     18  N   UNL     1       1.885   3.479  21.856  0.00  0.00    +0.000 N 
ATOM     19  H   UNL     1       2.019   3.815  22.808  0.00  0.00    +0.000 HD
ATOM     20  H   UNL     1       2.512   2.708  21.634  0.00  0.00    +0.000 HD
ENDBRANCH   8  18
BRANCH  14  21
ATOM     21  C   UNL     1       4.525   6.697  17.275  0.00  0.00    +0.000 C 
ATOM     22  N   UNL     1       4.746   7.620  16.600  0.00  0.00    +0.000 NA
ENDBRANCH  14  21
BRANCH   1  23
ATOM     23  C   UNL     1      -0.028   8.261  21.601  0.00  0.00    +0.000 C 
BRANCH  23  24
ATOM     24  C   UNL     1       0.585   9.349  22.489  0.00  0.00    +0.000 C 
BRANCH  24  26
ATOM     25  C   UNL     1      -0.700  11.513  22.476  0.00  0.00    +0.000 C 
ATOM     26  C   UNL     1      -0.495  10.182  23.183  0.00  0.00    +0.000 C 
ENDBRANCH  24  26
ENDBRANCH  23  24
ENDBRANCH   1  23
BRANCH  13  27
ATOM     27  N   UNL     1       6.032   4.186  16.884  0.00  0.00    +0.000 N 
BRANCH  27  28
ATOM     28  C   UNL     1       7.456   4.571  16.879  0.00  0.00    +0.000 C 
BRANCH  28  29
ATOM     29  C   UNL     1       7.997   5.120  18.204  0.00  0.00    +0.000 C 
ATOM     30  C   UNL     1       7.893   6.629  18.371  0.00  0.00    +0.000 C 
ENDBRANCH  28  29
ENDBRANCH  27  28
BRANCH  27  31
ATOM     31  C   UNL     1       5.493   3.793  15.563  0.00  0.00    +0.000 C 
BRANCH  31  32
ATOM     32  C   UNL     1       6.223   4.473  14.391  0.00  0.00    +0.000 C 
ATOM     33  C   UNL     1       6.191   3.699  13.079  0.00  0.00    +0.000 C 
ENDBRANCH  31  32
ENDBRANCH  27  31
ENDBRANCH  13  27
TORSDOF 10
ENDMDL
MODEL 3
REMARK VINA RESULT:      -6.7      1.825      7.669
REMARK  Name = 
REMARK  13 active torsions:
REMARK  status: ('A' for Active; 'I' for Inactive)
REMARK    1  A    between atoms: C_1  and  C_2
REMARK    2  A    between atoms: C_2  and  C_3
REMARK    3  A    between atoms: C_3  and  C_4
REMARK    4  A    between atoms: C_4  and  N_5
REMARK    5  A    between atoms: C_12  and  N_13
REMARK    6  A    between atoms: C_18  and  N_19
REMARK    7  A    between atoms: N_19  and  C_20
REMARK    8  A    between atoms: N_19  and  C_23
REMARK    9  A    between atoms: C_20  and  C_21
REMARK   10  A    between atoms: C_21  and  C_22
REMARK   11  A    between atoms: C_23  and  C_24
REMARK   12  A    between atoms: C_24  and  C_25
REMARK   13  A    between atoms: C_26  and  C_27
REMARK                            x       y       z     vdW  Elec       q    Type
REMARK                         _______ _______ _______ _____ _____    ______ ____
ROOT
ATOM      1  N   UNL     1       5.403   5.025  16.273  0.00  0.00    +0.000 N 
ATOM      2  C   UNL     1       5.217   6.280  15.706  0.00  0.00    +0.000 C 
ATOM      3  O   UNL     1       5.637   6.690  14.635  0.00  0.00    +0.000 OA
ATOM      4  C   UNL     1       4.348   7.078  16.654  0.00  0.00    +0.000 C 
ATOM      5  C   UNL     1       3.984   6.086  17.722  0.00  0.00    +0.000 A 
ATOM      6  C   UNL     1       4.650   4.893  17.444  0.00  0.00    +0.000 A 
ATOM      7  N   UNL     1       4.552   3.797  18.187  0.00  0.00    +0.000 NA
ATOM      8  C   UNL     1       3.748   3.890  19.269  0.00  0.00    +0.000 A 
ATOM      9  C   UNL     1       3.014   5.066  19.649  0.00  0.00    +0.000 A 
ATOM     10  C   UNL     1       2.176   5.182  20.777  0.00  0.00    +0.000 A 
ATOM     11  N   UNL     1       1.895   4.098  21.615  0.00  0.00    +0.000 N 
ATOM     12  N   UNL     1       1.518   6.311  21.120  0.00  0.00    +0.000 NA
ATOM     13  C   UNL     1       1.585   7.433  20.367  0.00  0.00    +0.000 A 
ATOM     14  C   UNL     1       2.367   7.394  19.203  0.00  0.00    +0.000 A 
ATOM     15  C   UNL     1       3.119   6.215  18.839  0.00  0.00    +0.000 A 
ATOM     16  H   UNL     1       2.758   3.659  21.931  0.00  0.00    +0.000 HD
ATOM     17  H   UNL     1       1.330   4.451  22.384  0.00  0.00    +0.000 HD
ENDROOT
BRANCH   8  18
ATOM     18  N   UNL     1       3.724   2.721  20.043  0.00  0.00    +0.000 N 
ATOM     19  H   UNL     1       4.459   2.115  19.682  0.00  0.00    +0.000 HD
ATOM     20  H   UNL     1       2.806   2.284  19.980  0.00  0.00    +0.000 HD
ENDBRANCH   8  18
BRANCH  14  21
ATOM     21  C   UNL     1       2.449   8.540  18.362  0.00  0.00    +0.000 C 
ATOM     22  N   UNL     1       2.577   9.478  17.685  0.00  0.00    +0.000 NA
ENDBRANCH  14  21
BRANCH   1  23
ATOM     23  C   UNL     1       6.010   3.909  15.575  0.00  0.00    +0.000 C 
BRANCH  23  24
ATOM     24  C   UNL     1       5.313   3.570  14.253  0.00  0.00    +0.000 C 
BRANCH  24  26
ATOM     25  C   UNL     1       5.704   2.947  11.847  0.00  0.00    +0.000 C 
ATOM     26  C   UNL     1       6.284   3.635  13.073  0.00  0.00    +0.000 C 
ENDBRANCH  24  26
ENDBRANCH  23  24
ENDBRANCH   1  23
BRANCH  13  27
ATOM     27  N   UNL     1       0.879   8.522  20.866  0.00  0.00    +0.000 N 
BRANCH  27  28
ATOM     28  C   UNL     1       1.106   9.258  22.123  0.00  0.00    +0.000 C 
BRANCH  28  29
ATOM     29  C   UNL     1      -0.091   9.316  23.079  0.00  0.00    +0.000 C 
ATOM     30  C   UNL     1      -0.808  10.658  23.139  0.00  0.00    +0.000 C 
ENDBRANCH  28  29
ENDBRANCH  27  28
BRANCH  27  31
ATOM     31  C   UNL     1      -0.420   8.799  20.212  0.00  0.00    +0.000 C 
BRANCH  31  32
ATOM     32  C   UNL     1      -0.480  10.195  19.566  0.00  0.00    +0.000 C 
ATOM     33  C   UNL     1      -0.950  10.212  18.118  0.00  0.00    +0.000 C 
ENDBRANCH  31  32
ENDBRANCH  27  31
ENDBRANCH  13  27
TORSDOF 10
ENDMDL
MODEL 4
REMARK VINA RESULT:      -6.5      1.820      7.447
REMARK  Name = 
REMARK  13 active torsions:
REMARK  status: ('A' for Active; 'I' for Inactive)
REMARK    1  A    between atoms: C_1  and  C_2
REMARK    2  A    between atoms: C_2  and  C_3
REMARK    3  A    between atoms: C_3  and  C_4
REMARK    4  A    between atoms: C_4  and  N_5
REMARK    5  A    between atoms: C_12  and  N_13
REMARK    6  A    between atoms: C_18  and  N_19
REMARK    7  A    between atoms: N_19  and  C_20
REMARK    8  A    between atoms: N_19  and  C_23
REMARK    9  A    between atoms: C_20  and  C_21
REMARK   10  A    between atoms: C_21  and  C_22
REMARK   11  A    between atoms: C_23  and  C_24
REMARK   12  A    between atoms: C_24  and  C_25
REMARK   13  A    between atoms: C_26  and  C_27
REMARK                            x       y       z     vdW  Elec       q    Type
REMARK                         _______ _______ _______ _____ _____    ______ ____
ROOT
ATOM      1  N   UNL     1       5.423   5.100  16.344  0.00  0.00    +0.000 N 
ATOM      2  C   UNL     1       5.222   6.346  15.762  0.00  0.00    +0.000 C 
ATOM      3  O   UNL     1       5.654   6.755  14.695  0.00  0.00    +0.000 OA
ATOM      4  C   UNL     1       4.316   7.134  16.684  0.00  0.00    +0.000 C 
ATOM      5  C   UNL     1       3.952   6.144  17.754  0.00  0.00    +0.000 A 
ATOM      6  C   UNL     1       4.649   4.964  17.501  0.00  0.00    +0.000 A 
ATOM      7  N   UNL     1       4.559   3.872  18.253  0.00  0.00    +0.000 NA
ATOM      8  C   UNL     1       3.732   3.958  19.317  0.00  0.00    +0.000 A 
ATOM      9  C   UNL     1       2.965   5.121  19.671  0.00  0.00    +0.000 A 
ATOM     10  C   UNL     1       2.102   5.230  20.781  0.00  0.00    +0.000 A 
ATOM     11  N   UNL     1       1.828   4.148  21.624  0.00  0.00    +0.000 N 
ATOM     12  N   UNL     1       1.413   6.347  21.099  0.00  0.00    +0.000 NA
ATOM     13  C   UNL     1       1.472   7.464  20.338  0.00  0.00    +0.000 A 
ATOM     14  C   UNL     1       2.277   7.431  19.190  0.00  0.00    +0.000 A 
ATOM     15  C   UNL     1       3.063   6.265  18.852  0.00  0.00    +0.000 A 
ATOM     16  H   UNL     1       2.693   3.730  21.961  0.00  0.00    +0.000 HD
ATOM     17  H   UNL     1       1.240   4.495  22.378  0.00  0.00    +0.000 HD
ENDROOT
BRANCH   8  18
ATOM     18  N   UNL     1       3.717   2.796  20.101  0.00  0.00    +0.000 N 
ATOM     19  H   UNL     1       4.679   2.620  20.385  0.00  0.00    +0.000 HD
ATOM     20  H   UNL     1       3.332   2.021  19.564  0.00  0.00    +0.000 HD
ENDBRANCH   8  18
BRANCH  14  21
ATOM     21  C   UNL     1       2.353   8.571  18.340  0.00  0.00    +0.000 C 
ATOM     22  N   UNL     1       2.438   9.534  17.691  0.00  0.00    +0.000 NA
ENDBRANCH  14  21
BRANCH   1  23
ATOM     23  C   UNL     1       6.067   3.992  15.669  0.00  0.00    +0.000 C 
BRANCH  23  24
ATOM     24  C   UNL     1       5.377   3.597  14.359  0.00  0.00    +0.000 C 
BRANCH  24  26
ATOM     25  C   UNL     1       5.837   2.917  11.980  0.00  0.00    +0.000 C 
ATOM     26  C   UNL     1       6.317   3.745  13.162  0.00  0.00    +0.000 C 
ENDBRANCH  24  26
ENDBRANCH  23  24
ENDBRANCH   1  23
BRANCH  13  27
ATOM     27  N   UNL     1       0.733   8.541  20.811  0.00  0.00    +0.000 N 
BRANCH  27  28
ATOM     28  C   UNL     1      -0.385   9.241  20.153  0.00  0.00    +0.000 C 
BRANCH  28  29
ATOM     29  C   UNL     1      -0.110  10.693  19.746  0.00  0.00    +0.000 C 
ATOM     30  C   UNL     1      -0.928  11.203  18.569  0.00  0.00    +0.000 C 
ENDBRANCH  28  29
ENDBRANCH  27  28
BRANCH  27  31
ATOM     31  C   UNL     1       1.310   9.255  21.974  0.00  0.00    +0.000 C 
BRANCH  31  32
ATOM     32  C   UNL     1       0.382   9.249  23.201  0.00  0.00    +0.000 C 
ATOM     33  C   UNL     1      -0.702  10.319  23.191  0.00  0.00    +0.000 C 
ENDBRANCH  31  32
ENDBRANCH  27  31
ENDBRANCH  13  27
TORSDOF 10
ENDMDL
MODEL 5
REMARK VINA RESULT:      -6.4      1.240      2.658
REMARK  Name = 
REMARK  13 active torsions:
REMARK  status: ('A' for Active; 'I' for Inactive)
REMARK    1  A    between atoms: C_1  and  C_2
REMARK    2  A    between atoms: C_2  and  C_3
REMARK    3  A    between atoms: C_3  and  C_4
REMARK    4  A    between atoms: C_4  and  N_5
REMARK    5  A    between atoms: C_12  and  N_13
REMARK    6  A    between atoms: C_18  and  N_19
REMARK    7  A    between atoms: N_19  and  C_20
REMARK    8  A    between atoms: N_19  and  C_23
REMARK    9  A    between atoms: C_20  and  C_21
REMARK   10  A    between atoms: C_21  and  C_22
REMARK   11  A    between atoms: C_23  and  C_24
REMARK   12  A    between atoms: C_24  and  C_25
REMARK   13  A    between atoms: C_26  and  C_27
REMARK                            x       y       z     vdW  Elec       q    Type
REMARK                         _______ _______ _______ _____ _____    ______ ____
ROOT
ATOM      1  N   UNL     1       1.244   8.866  19.432  0.00  0.00    +0.000 N 
ATOM      2  C   UNL     1       1.884   9.556  18.409  0.00  0.00    +0.000 C 
ATOM      3  O   UNL     1       1.759  10.732  18.105  0.00  0.00    +0.000 OA
ATOM      4  C   UNL     1       2.823   8.584  17.727  0.00  0.00    +0.000 C 
ATOM      5  C   UNL     1       2.715   7.341  18.564  0.00  0.00    +0.000 A 
ATOM      6  C   UNL     1       1.756   7.570  19.549  0.00  0.00    +0.000 A 
ATOM      7  N   UNL     1       1.409   6.676  20.470  0.00  0.00    +0.000 NA
ATOM      8  C   UNL     1       2.049   5.489  20.407  0.00  0.00    +0.000 A 
ATOM      9  C   UNL     1       3.054   5.146  19.438  0.00  0.00    +0.000 A 
ATOM     10  C   UNL     1       3.728   3.911  19.354  0.00  0.00    +0.000 A 
ATOM     11  N   UNL     1       3.544   2.893  20.297  0.00  0.00    +0.000 N 
ATOM     12  N   UNL     1       4.651   3.612  18.415  0.00  0.00    +0.000 NA
ATOM     13  C   UNL     1       5.036   4.511  17.481  0.00  0.00    +0.000 A 
ATOM     14  C   UNL     1       4.444   5.782  17.514  0.00  0.00    +0.000 A 
ATOM     15  C   UNL     1       3.419   6.113  18.478  0.00  0.00    +0.000 A 
ATOM     16  H   UNL     1       2.554   2.684  20.407  0.00  0.00    +0.000 HD
ATOM     17  H   UNL     1       4.082   2.090  19.981  0.00  0.00    +0.000 HD
ENDROOT
BRANCH   8  18
ATOM     18  N   UNL     1       1.606   4.570  21.369  0.00  0.00    +0.000 N 
ATOM     19  H   UNL     1       2.438   4.174  21.802  0.00  0.00    +0.000 HD
ATOM     20  H   UNL     1       1.032   3.855  20.925  0.00  0.00    +0.000 HD
ENDBRANCH   8  18
BRANCH  14  21
ATOM     21  C   UNL     1       4.834   6.774  16.570  0.00  0.00    +0.000 C 
ATOM     22  N   UNL     1       5.164   7.541  15.758  0.00  0.00    +0.000 NA
ENDBRANCH  14  21
BRANCH   1  23
ATOM     23  C   UNL     1       0.421   9.502  20.440  0.00  0.00    +0.000 C 
BRANCH  23  24
ATOM     24  C   UNL     1      -0.927   9.992  19.900  0.00  0.00    +0.000 C 
BRANCH  24  26
ATOM     25  C   UNL     1      -1.296  12.212  18.774  0.00  0.00    +0.000 C 
ATOM     26  C   UNL     1      -1.099  11.499  20.103  0.00  0.00    +0.000 C 
ENDBRANCH  24  26
ENDBRANCH  23  24
ENDBRANCH   1  23
BRANCH  13  27
ATOM     27  N   UNL     1       5.970   4.047  16.563  0.00  0.00    +0.000 N 
BRANCH  27  28
ATOM     28  C   UNL     1       7.429   4.265  16.556  0.00  0.00    +0.000 C 
BRANCH  28  29
ATOM     29  C   UNL     1       8.066   4.518  17.928  0.00  0.00    +0.000 C 
ATOM     30  C   UNL     1       7.923   5.938  18.456  0.00  0.00    +0.000 C 
ENDBRANCH  28  29
ENDBRANCH  27  28
BRANCH  27  31
ATOM     31  C   UNL     1       5.419   3.516  15.296  0.00  0.00    +0.000 C 
BRANCH  31  32
ATOM     32  C   UNL     1       6.230   3.947  14.062  0.00  0.00    +0.000 C 
ATOM     33  C   UNL     1       5.640   3.521  12.724  0.00  0.00    +0.000 C 
ENDBRANCH  31  32
ENDBRANCH  27  31
ENDBRANCH  13  27
TORSDOF 10
ENDMDL
MODEL 6
REMARK VINA RESULT:      -6.3      0.859      1.036
REMARK  Name = 
REMARK  13 active torsions:
REMARK  status: ('A' for Active; 'I' for Inactive)
REMARK    1  A    between atoms: C_1  and  C_2
REMARK    2  A    between atoms: C_2  and  C_3
REMARK    3  A    between atoms: C_3  and  C_4
REMARK    4  A    between atoms: C_4  and  N_5
REMARK    5  A    between atoms: C_12  and  N_13
REMARK    6  A    between atoms: C_18  and  N_19
REMARK    7  A    between atoms: N_19  and  C_20
REMARK    8  A    between atoms: N_19  and  C_23
REMARK    9  A    between atoms: C_20  and  C_21
REMARK   10  A    between atoms: C_21  and  C_22
REMARK   11  A    between atoms: C_23  and  C_24
REMARK   12  A    between atoms: C_24  and  C_25
REMARK   13  A    between atoms: C_26  and  C_27
REMARK                            x       y       z     vdW  Elec       q    Type
REMARK                         _______ _______ _______ _____ _____    ______ ____
ROOT
ATOM      1  N   UNL     1       1.245   8.609  19.682  0.00  0.00    +0.000 N 
ATOM      2  C   UNL     1       1.749   9.356  18.624  0.00  0.00    +0.000 C 
ATOM      3  O   UNL     1       1.521  10.525  18.355  0.00  0.00    +0.000 OA
ATOM      4  C   UNL     1       2.689   8.460  17.847  0.00  0.00    +0.000 C 
ATOM      5  C   UNL     1       2.735   7.200  18.665  0.00  0.00    +0.000 A 
ATOM      6  C   UNL     1       1.850   7.349  19.731  0.00  0.00    +0.000 A 
ATOM      7  N   UNL     1       1.642   6.421  20.659  0.00  0.00    +0.000 NA
ATOM      8  C   UNL     1       2.353   5.281  20.520  0.00  0.00    +0.000 A 
ATOM      9  C   UNL     1       3.293   5.021  19.464  0.00  0.00    +0.000 A 
ATOM     10  C   UNL     1       4.038   3.836  19.300  0.00  0.00    +0.000 A 
ATOM     11  N   UNL     1       4.002   2.795  20.234  0.00  0.00    +0.000 N 
ATOM     12  N   UNL     1       4.896   3.614  18.281  0.00  0.00    +0.000 NA
ATOM     13  C   UNL     1       5.141   4.551  17.337  0.00  0.00    +0.000 A 
ATOM     14  C   UNL     1       4.470   5.778  17.444  0.00  0.00    +0.000 A 
ATOM     15  C   UNL     1       3.510   6.024  18.497  0.00  0.00    +0.000 A 
ATOM     16  H   UNL     1       3.041   2.518  20.422  0.00  0.00    +0.000 HD
ATOM     17  H   UNL     1       4.564   2.035  19.859  0.00  0.00    +0.000 HD
ENDROOT
BRANCH   8  18
ATOM     18  N   UNL     1       2.054   4.321  21.496  0.00  0.00    +0.000 N 
ATOM     19  H   UNL     1       1.869   4.827  22.360  0.00  0.00    +0.000 HD
ATOM     20  H   UNL     1       2.835   3.674  21.595  0.00  0.00    +0.000 HD
ENDBRANCH   8  18
BRANCH  14  21
ATOM     21  C   UNL     1       4.712   6.808  16.491  0.00  0.00    +0.000 C 
ATOM     22  N   UNL     1       4.857   7.635  15.685  0.00  0.00    +0.000 NA
ENDBRANCH  14  21
BRANCH   1  23
ATOM     23  C   UNL     1       0.469   9.173  20.767  0.00  0.00    +0.000 C 
BRANCH  23  24
ATOM     24  C   UNL     1      -0.827   9.845  20.300  0.00  0.00    +0.000 C 
BRANCH  24  26
ATOM     25  C   UNL     1       0.397  11.761  21.380  0.00  0.00    +0.000 C 
ATOM     26  C   UNL     1      -0.932  11.281  20.816  0.00  0.00    +0.000 C 
ENDBRANCH  24  26
ENDBRANCH  23  24
ENDBRANCH   1  23
BRANCH  13  27
ATOM     27  N   UNL     1       6.023   4.164  16.336  0.00  0.00    +0.000 N 
BRANCH  27  28
ATOM     28  C   UNL     1       5.745   3.352  15.137  0.00  0.00    +0.000 C 
BRANCH  28  29
ATOM     29  C   UNL     1       5.597   4.136  13.827  0.00  0.00    +0.000 C 
ATOM     30  C   UNL     1       6.199   3.467  12.600  0.00  0.00    +0.000 C 
ENDBRANCH  28  29
ENDBRANCH  27  28
BRANCH  27  31
ATOM     31  C   UNL     1       7.461   4.338  16.644  0.00  0.00    +0.000 C 
BRANCH  31  32
ATOM     32  C   UNL     1       7.709   4.891  18.059  0.00  0.00    +0.000 C 
ATOM     33  C   UNL     1       7.905   6.399  18.134  0.00  0.00    +0.000 C 
ENDBRANCH  31  32
ENDBRANCH  27  31
ENDBRANCH  13  27
TORSDOF 10
ENDMDL
MODEL 7
REMARK VINA RESULT:      -6.0      5.553     11.360
REMARK  Name = 
REMARK  13 active torsions:
REMARK  status: ('A' for Active; 'I' for Inactive)
REMARK    1  A    between atoms: C_1  and  C_2
REMARK    2  A    between atoms: C_2  and  C_3
REMARK    3  A    between atoms: C_3  and  C_4
REMARK    4  A    between atoms: C_4  and  N_5
REMARK    5  A    between atoms: C_12  and  N_13
REMARK    6  A    between atoms: C_18  and  N_19
REMARK    7  A    between atoms: N_19  and  C_20
REMARK    8  A    between atoms: N_19  and  C_23
REMARK    9  A    between atoms: C_20  and  C_21
REMARK   10  A    between atoms: C_21  and  C_22
REMARK   11  A    between atoms: C_23  and  C_24
REMARK   12  A    between atoms: C_24  and  C_25
REMARK   13  A    between atoms: C_26  and  C_27
REMARK                            x       y       z     vdW  Elec       q    Type
REMARK                         _______ _______ _______ _____ _____    ______ ____
ROOT
ATOM      1  N   UNL     1       0.337  10.521  19.436  0.00  0.00    +0.000 N 
ATOM      2  C   UNL     1       0.404  11.228  20.631  0.00  0.00    +0.000 C 
ATOM      3  O   UNL     1       1.369  11.370  21.366  0.00  0.00    +0.000 OA
ATOM      4  C   UNL     1      -0.958  11.844  20.867  0.00  0.00    +0.000 C 
ATOM      5  C   UNL     1      -1.723  11.503  19.620  0.00  0.00    +0.000 A 
ATOM      6  C   UNL     1      -0.904  10.709  18.819  0.00  0.00    +0.000 A 
ATOM      7  N   UNL     1      -1.264  10.228  17.633  0.00  0.00    +0.000 NA
ATOM      8  C   UNL     1      -2.509  10.553  17.222  0.00  0.00    +0.000 A 
ATOM      9  C   UNL     1      -3.436  11.364  17.963  0.00  0.00    +0.000 A 
ATOM     10  C   UNL     1      -4.739  11.708  17.552  0.00  0.00    +0.000 A 
ATOM     11  N   UNL     1      -5.243  11.356  16.295  0.00  0.00    +0.000 N 
ATOM     12  N   UNL     1      -5.594  12.453  18.284  0.00  0.00    +0.000 NA
ATOM     13  C   UNL     1      -5.243  12.971  19.483  0.00  0.00    +0.000 A 
ATOM     14  C   UNL     1      -3.948  12.712  19.954  0.00  0.00    +0.000 A 
ATOM     15  C   UNL     1      -3.028  11.877  19.212  0.00  0.00    +0.000 A 
ATOM     16  H   UNL     1      -5.135  10.357  16.134  0.00  0.00    +0.000 HD
ATOM     17  H   UNL     1      -6.215  11.655  16.266  0.00  0.00    +0.000 HD
ENDROOT
BRANCH   8  18
ATOM     18  N   UNL     1      -2.852   9.976  15.991  0.00  0.00    +0.000 N 
ATOM     19  H   UNL     1      -3.169   9.029  16.188  0.00  0.00    +0.000 HD
ATOM     20  H   UNL     1      -2.046   9.985  15.369  0.00  0.00    +0.000 HD
ENDBRANCH   8  18
BRANCH  14  21
ATOM     21  C   UNL     1      -3.519  13.256  21.197  0.00  0.00    +0.000 C 
ATOM     22  N   UNL     1      -3.197  13.656  22.242  0.00  0.00    +0.000 NA
ENDBRANCH  14  21
BRANCH   1  23
ATOM     23  C   UNL     1       1.493   9.961  18.767  0.00  0.00    +0.000 C 
BRANCH  23  24
ATOM     24  C   UNL     1       1.773   8.506  19.159  0.00  0.00    +0.000 C 
BRANCH  24  26
ATOM     25  C   UNL     1       2.528   6.265  18.298  0.00  0.00    +0.000 C 
ATOM     26  C   UNL     1       2.547   7.768  18.066  0.00  0.00    +0.000 C 
ENDBRANCH  24  26
ENDBRANCH  23  24
ENDBRANCH   1  23
BRANCH  13  27
ATOM     27  N   UNL     1      -6.241  13.689  20.132  0.00  0.00    +0.000 N 
BRANCH  27  28
ATOM     28  C   UNL     1      -7.267  13.187  21.064  0.00  0.00    +0.000 C 
BRANCH  28  29
ATOM     29  C   UNL     1      -7.075  11.744  21.544  0.00  0.00    +0.000 C 
ATOM     30  C   UNL     1      -7.781  10.684  20.711  0.00  0.00    +0.000 C 
ENDBRANCH  28  29
ENDBRANCH  27  28
BRANCH  27  31
ATOM     31  C   UNL     1      -6.488  15.055  19.616  0.00  0.00    +0.000 C 
BRANCH  31  32
ATOM     32  C   UNL     1      -5.458  16.082  20.118  0.00  0.00    +0.000 C 
ATOM     33  C   UNL     1      -5.565  16.429  21.597  0.00  0.00    +0.000 C 
ENDBRANCH  31  32
ENDBRANCH  27  31
ENDBRANCH  13  27
TORSDOF 10
ENDMDL
MODEL 8
REMARK VINA RESULT:      -5.9      5.680     11.504
REMARK  Name = 
REMARK  13 active torsions:
REMARK  status: ('A' for Active; 'I' for Inactive)
REMARK    1  A    between atoms: C_1  and  C_2
REMARK    2  A    between atoms: C_2  and  C_3
REMARK    3  A    between atoms: C_3  and  C_4
REMARK    4  A    between atoms: C_4  and  N_5
REMARK    5  A    between atoms: C_12  and  N_13
REMARK    6  A    between atoms: C_18  and  N_19
REMARK    7  A    between atoms: N_19  and  C_20
REMARK    8  A    between atoms: N_19  and  C_23
REMARK    9  A    between atoms: C_20  and  C_21
REMARK   10  A    between atoms: C_21  and  C_22
REMARK   11  A    between atoms: C_23  and  C_24
REMARK   12  A    between atoms: C_24  and  C_25
REMARK   13  A    between atoms: C_26  and  C_27
REMARK                            x       y       z     vdW  Elec       q    Type
REMARK                         _______ _______ _______ _____ _____    ______ ____
ROOT
ATOM      1  N   UNL     1       0.423  10.467  19.471  0.00  0.00    +0.000 N 
ATOM      2  C   UNL     1       0.432  11.157  20.677  0.00  0.00    +0.000 C 
ATOM      3  O   UNL     1       1.367  11.310  21.448  0.00  0.00    +0.000 OA
ATOM      4  C   UNL     1      -0.952  11.739  20.874  0.00  0.00    +0.000 C 
ATOM      5  C   UNL     1      -1.664  11.399  19.595  0.00  0.00    +0.000 A 
ATOM      6  C   UNL     1      -0.799  10.636  18.813  0.00  0.00    +0.000 A 
ATOM      7  N   UNL     1      -1.106  10.165  17.609  0.00  0.00    +0.000 NA
ATOM      8  C   UNL     1      -2.343  10.468  17.158  0.00  0.00    +0.000 A 
ATOM      9  C   UNL     1      -3.314  11.247  17.877  0.00  0.00    +0.000 A 
ATOM     10  C   UNL     1      -4.609  11.567  17.424  0.00  0.00    +0.000 A 
ATOM     11  N   UNL     1      -5.061  11.223  16.146  0.00  0.00    +0.000 N 
ATOM     12  N   UNL     1      -5.507  12.282  18.137  0.00  0.00    +0.000 NA
ATOM     13  C   UNL     1      -5.210  12.790  19.355  0.00  0.00    +0.000 A 
ATOM     14  C   UNL     1      -3.926  12.552  19.867  0.00  0.00    +0.000 A 
ATOM     15  C   UNL     1      -2.963  11.750  19.147  0.00  0.00    +0.000 A 
ATOM     16  H   UNL     1      -4.924  10.229  15.975  0.00  0.00    +0.000 HD
ATOM     17  H   UNL     1      -6.038  11.501  16.087  0.00  0.00    +0.000 HD
ENDROOT
BRANCH   8  18
ATOM     18  N   UNL     1      -2.629   9.902  15.907  0.00  0.00    +0.000 N 
ATOM     19  H   UNL     1      -1.855  10.144  15.291  0.00  0.00    +0.000 HD
ATOM     20  H   UNL     1      -3.517  10.262  15.561  0.00  0.00    +0.000 HD
ENDBRANCH   8  18
BRANCH  14  21
ATOM     21  C   UNL     1      -3.554  13.088  21.133  0.00  0.00    +0.000 C 
ATOM     22  N   UNL     1      -3.299  13.562  22.165  0.00  0.00    +0.000 NA
ENDBRANCH  14  21
BRANCH   1  23
ATOM     23  C   UNL     1       1.615   9.943  18.836  0.00  0.00    +0.000 C 
BRANCH  23  24
ATOM     24  C   UNL     1       1.834   8.449  19.100  0.00  0.00    +0.000 C 
BRANCH  24  26
ATOM     25  C   UNL     1       3.585   7.188  17.803  0.00  0.00    +0.000 C 
ATOM     26  C   UNL     1       2.149   7.691  17.809  0.00  0.00    +0.000 C 
ENDBRANCH  24  26
ENDBRANCH  23  24
ENDBRANCH   1  23
BRANCH  13  27
ATOM     27  N   UNL     1      -6.246  13.475  19.978  0.00  0.00    +0.000 N 
BRANCH  27  28
ATOM     28  C   UNL     1      -7.433  12.918  20.652  0.00  0.00    +0.000 C 
BRANCH  28  29
ATOM     29  C   UNL     1      -7.184  12.325  22.044  0.00  0.00    +0.000 C 
ATOM     30  C   UNL     1      -6.856  13.339  23.131  0.00  0.00    +0.000 C 
ENDBRANCH  28  29
ENDBRANCH  27  28
BRANCH  27  31
ATOM     31  C   UNL     1      -6.324  14.925  19.688  0.00  0.00    +0.000 C 
BRANCH  31  32
ATOM     32  C   UNL     1      -7.418  15.274  18.664  0.00  0.00    +0.000 C 
ATOM     33  C   UNL     1      -6.915  15.932  17.386  0.00  0.00    +0.000 C 
ENDBRANCH  31  32
ENDBRANCH  27  31
ENDBRANCH  13  27
TORSDOF 10
ENDMDL
MODEL 9
REMARK VINA RESULT:      -5.7      5.545      9.606
REMARK  Name = 
REMARK  13 active torsions:
REMARK  status: ('A' for Active; 'I' for Inactive)
REMARK    1  A    between atoms: C_1  and  C_2
REMARK    2  A    between atoms: C_2  and  C_3
REMARK    3  A    between atoms: C_3  and  C_4
REMARK    4  A    between atoms: C_4  and  N_5
REMARK    5  A    between atoms: C_12  and  N_13
REMARK    6  A    between atoms: C_18  and  N_19
REMARK    7  A    between atoms: N_19  and  C_20
REMARK    8  A    between atoms: N_19  and  C_23
REMARK    9  A    between atoms: C_20  and  C_21
REMARK   10  A    between atoms: C_21  and  C_22
REMARK   11  A    between atoms: C_23  and  C_24
REMARK   12  A    between atoms: C_24  and  C_25
REMARK   13  A    between atoms: C_26  and  C_27
REMARK                            x       y       z     vdW  Elec       q    Type
REMARK                         _______ _______ _______ _____ _____    ______ ____
ROOT
ATOM      1  N   UNL     1      -5.627  13.127  22.103  0.00  0.00    +0.000 N 
ATOM      2  C   UNL     1      -4.740  13.039  23.169  0.00  0.00    +0.000 C 
ATOM      3  O   UNL     1      -4.980  13.172  24.359  0.00  0.00    +0.000 OA
ATOM      4  C   UNL     1      -3.379  12.707  22.597  0.00  0.00    +0.000 C 
ATOM      5  C   UNL     1      -3.651  12.502  21.133  0.00  0.00    +0.000 A 
ATOM      6  C   UNL     1      -4.998  12.777  20.905  0.00  0.00    +0.000 A 
ATOM      7  N   UNL     1      -5.582  12.692  19.715  0.00  0.00    +0.000 NA
ATOM      8  C   UNL     1      -4.783  12.314  18.694  0.00  0.00    +0.000 A 
ATOM      9  C   UNL     1      -3.384  12.005  18.814  0.00  0.00    +0.000 A 
ATOM     10  C   UNL     1      -2.535  11.615  17.759  0.00  0.00    +0.000 A 
ATOM     11  N   UNL     1      -3.008  11.394  16.461  0.00  0.00    +0.000 N 
ATOM     12  N   UNL     1      -1.218  11.354  17.902  0.00  0.00    +0.000 NA
ATOM     13  C   UNL     1      -0.605  11.413  19.107  0.00  0.00    +0.000 A 
ATOM     14  C   UNL     1      -1.385  11.755  20.221  0.00  0.00    +0.000 A 
ATOM     15  C   UNL     1      -2.786  12.086  20.089  0.00  0.00    +0.000 A 
ATOM     16  H   UNL     1      -3.538  12.199  16.133  0.00  0.00    +0.000 HD
ATOM     17  H   UNL     1      -2.200  11.192  15.877  0.00  0.00    +0.000 HD
ENDROOT
BRANCH   8  18
ATOM     18  N   UNL     1      -5.440  12.293  17.456  0.00  0.00    +0.000 N 
ATOM     19  H   UNL     1      -4.718  12.236  16.740  0.00  0.00    +0.000 HD
ATOM     20  H   UNL     1      -6.012  13.130  17.353  0.00  0.00    +0.000 HD
ENDBRANCH   8  18
BRANCH  14  21
ATOM     21  C   UNL     1      -0.794  11.805  21.516  0.00  0.00    +0.000 C 
ATOM     22  N   UNL     1      -0.337  11.901  22.582  0.00  0.00    +0.000 NA
ENDBRANCH  14  21
BRANCH   1  23
ATOM     23  C   UNL     1      -7.064  13.230  22.260  0.00  0.00    +0.000 C 
BRANCH  23  24
ATOM     24  C   UNL     1      -7.564  14.677  22.329  0.00  0.00    +0.000 C 
BRANCH  24  26
ATOM     25  C   UNL     1      -6.890  16.254  20.487  0.00  0.00    +0.000 C 
ATOM     26  C   UNL     1      -7.909  15.219  20.941  0.00  0.00    +0.000 C 
ENDBRANCH  24  26
ENDBRANCH  23  24
ENDBRANCH   1  23
BRANCH  13  27
ATOM     27  N   UNL     1       0.759  11.149  19.090  0.00  0.00    +0.000 N 
BRANCH  27  28
ATOM     28  C   UNL     1       1.855  12.039  18.665  0.00  0.00    +0.000 C 
BRANCH  28  29
ATOM     29  C   UNL     1       2.047  13.302  19.513  0.00  0.00    +0.000 C 
ATOM     30  C   UNL     1       1.499  14.583  18.901  0.00  0.00    +0.000 C 
ENDBRANCH  28  29
ENDBRANCH  27  28
BRANCH  27  31
ATOM     31  C   UNL     1       1.141   9.726  19.239  0.00  0.00    +0.000 C 
BRANCH  31  32
ATOM     32  C   UNL     1       1.455   9.045  17.895  0.00  0.00    +0.000 C 
ATOM     33  C   UNL     1       2.747   8.239  17.870  0.00  0.00    +0.000 C 
ENDBRANCH  31  32
ENDBRANCH  27  31
ENDBRANCH  13  27
TORSDOF 10
ENDMDL
