MODEL 1
REMARK VINA RESULT:      -7.9      0.000      0.000
REMARK  Name = 
REMARK  6 active torsions:
REMARK  status: ('A' for Active; 'I' for Inactive)
REMARK    1  A    between atoms: N_1  and  S_2
REMARK    2  A    between atoms: S_2  and  C_5
REMARK    3  A    between atoms: C_8  and  N_9
REMARK    4  A    between atoms: N_9  and  S_10
REMARK    5  A    between atoms: S_10  and  C_13
REMARK    6  A    between atoms: C_14  and  C_15
REMARK                            x       y       z     vdW  Elec       q    Type
REMARK                         _______ _______ _______ _____ _____    ______ ____
ROOT
ATOM      1  N   UNL     1       7.034   5.720  18.400  0.00  0.00    +0.000 N 
ATOM      2  H   UNL     1       7.801   5.082  18.188  0.00  0.00    +0.000 HD
ENDROOT
BRANCH   1   6
ATOM      3  C   UNL     1       3.185   4.032  18.437  0.00  0.00    +0.000 A 
ATOM      4  C   UNL     1       3.648   4.716  19.562  0.00  0.00    +0.000 A 
ATOM      5  C   UNL     1       4.940   5.244  19.555  0.00  0.00    +0.000 A 
ATOM      6  C   UNL     1       5.756   5.094  18.425  0.00  0.00    +0.000 A 
ATOM      7  C   UNL     1       5.314   4.347  17.332  0.00  0.00    +0.000 A 
ATOM      8  C   UNL     1       4.020   3.822  17.332  0.00  0.00    +0.000 A 
BRANCH   3   9
ATOM      9  S   UNL     1       1.502   3.502  18.366  0.00  0.00    +0.000 S 
ATOM     10  O   UNL     1       0.870   4.086  17.208  0.00  0.00    +0.000 OA
ATOM     11  O   UNL     1       0.924   3.559  19.689  0.00  0.00    +0.000 OA
BRANCH   9  12
ATOM     12  N   UNL     1       1.676   1.857  18.040  0.00  0.00    +0.000 NA
ATOM     13  H   UNL     1       2.656   1.653  17.833  0.00  0.00    +0.000 HD
ATOM     14  H   UNL     1       1.035   1.575  17.299  0.00  0.00    +0.000 HD
ENDBRANCH   9  12
ENDBRANCH   3   9
ENDBRANCH   1   6
BRANCH   1  15
ATOM     15  S   UNL     1       7.226   7.092  17.411  0.00  0.00    +0.000 S 
ATOM     16  O   UNL     1       7.827   6.566  16.200  0.00  0.00    +0.000 OA
ATOM     17  O   UNL     1       5.965   7.799  17.346  0.00  0.00    +0.000 OA
BRANCH  15  18
ATOM     18  C   UNL     1       8.387   8.081  18.228  0.00  0.00    +0.000 C 
ATOM     19  C   UNL     1       8.277   9.416  18.151  0.00  0.00    +0.000 C 
BRANCH  19  20
ATOM     20  C   UNL     1       9.252  10.360  18.713  0.00  0.00    +0.000 A 
ATOM     21  C   UNL     1      10.188  10.945  17.846  0.00  0.00    +0.000 A 
ATOM     22  C   UNL     1      11.169  11.812  18.334  0.00  0.00    +0.000 A 
ATOM     23  C   UNL     1      11.214  12.118  19.692  0.00  0.00    +0.000 A 
ATOM     24  C   UNL     1      10.267  11.575  20.557  0.00  0.00    +0.000 A 
ATOM     25  C   UNL     1       9.285  10.708  20.070  0.00  0.00    +0.000 A 
ENDBRANCH  19  20
ENDBRANCH  15  18
ENDBRANCH   1  15
TORSDOF 6
ENDMDL
MODEL 2
REMARK VINA RESULT:      -7.9      1.305      1.757
REMARK  Name = 
REMARK  6 active torsions:
REMARK  status: ('A' for Active; 'I' for Inactive)
REMARK    1  A    between atoms: N_1  and  S_2
REMARK    2  A    between atoms: S_2  and  C_5
REMARK    3  A    between atoms: C_8  and  N_9
REMARK    4  A    between atoms: N_9  and  S_10
REMARK    5  A    between atoms: S_10  and  C_13
REMARK    6  A    between atoms: C_14  and  C_15
REMARK                            x       y       z     vdW  Elec       q    Type
REMARK                         _______ _______ _______ _____ _____    ______ ____
ROOT
ATOM      1  N   UNL     1       5.455   7.193  17.208  0.00  0.00    +0.000 N 
ATOM      2  H   UNL     1       5.233   8.094  17.631  0.00  0.00    +0.000 HD
ENDROOT
BRANCH   1   6
ATOM      3  C   UNL     1       2.952   4.026  18.377  0.00  0.00    +0.000 A 
ATOM      4  C   UNL     1       3.750   3.889  17.239  0.00  0.00    +0.000 A 
ATOM      5  C   UNL     1       4.553   4.958  16.838  0.00  0.00    +0.000 A 
ATOM      6  C   UNL     1       4.561   6.149  17.577  0.00  0.00    +0.000 A 
ATOM      7  C   UNL     1       3.706   6.305  18.670  0.00  0.00    +0.000 A 
ATOM      8  C   UNL     1       2.905   5.236  19.079  0.00  0.00    +0.000 A 
BRANCH   3   9
ATOM      9  S   UNL     1       2.057   2.631  18.990  0.00  0.00    +0.000 S 
ATOM     10  O   UNL     1       0.761   2.586  18.359  0.00  0.00    +0.000 OA
ATOM     11  O   UNL     1       2.239   2.534  20.420  0.00  0.00    +0.000 OA
BRANCH   9  12
ATOM     12  N   UNL     1       2.947   1.349  18.353  0.00  0.00    +0.000 NA
ATOM     13  H   UNL     1       3.942   1.585  18.367  0.00  0.00    +0.000 HD
ATOM     14  H   UNL     1       2.599   1.106  17.426  0.00  0.00    +0.000 HD
ENDBRANCH   9  12
ENDBRANCH   3   9
ENDBRANCH   1   6
BRANCH   1  15
ATOM     15  S   UNL     1       7.122   6.924  17.429  0.00  0.00    +0.000 S 
ATOM     16  O   UNL     1       7.199   6.257  18.714  0.00  0.00    +0.000 OA
ATOM     17  O   UNL     1       7.650   6.282  16.245  0.00  0.00    +0.000 OA
BRANCH  15  18
ATOM     18  C   UNL     1       7.819   8.501  17.574  0.00  0.00    +0.000 C 
ATOM     19  C   UNL     1       8.548   8.795  18.663  0.00  0.00    +0.000 C 
BRANCH  19  20
ATOM     20  C   UNL     1       9.105  10.123  18.952  0.00  0.00    +0.000 A 
ATOM     21  C   UNL     1       9.169  11.060  17.909  0.00  0.00    +0.000 A 
ATOM     22  C   UNL     1       9.733  12.321  18.115  0.00  0.00    +0.000 A 
ATOM     23  C   UNL     1      10.224  12.666  19.372  0.00  0.00    +0.000 A 
ATOM     24  C   UNL     1      10.132  11.760  20.425  0.00  0.00    +0.000 A 
ATOM     25  C   UNL     1       9.566  10.498  20.220  0.00  0.00    +0.000 A 
ENDBRANCH  19  20
ENDBRANCH  15  18
ENDBRANCH   1  15
TORSDOF 6
ENDMDL
MODEL 3
REMARK VINA RESULT:      -7.9      1.303      2.018
REMARK  Name = 
REMARK  6 active torsions:
REMARK  status: ('A' for Active; 'I' for Inactive)
REMARK    1  A    between atoms: N_1  and  S_2
REMARK    2  A    between atoms: S_2  and  C_5
REMARK    3  A    between atoms: C_8  and  N_9
REMARK    4  A    between atoms: N_9  and  S_10
REMARK    5  A    between atoms: S_10  and  C_13
REMARK    6  A    between atoms: C_14  and  C_15
REMARK                            x       y       z     vdW  Elec       q    Type
REMARK                         _______ _______ _______ _____ _____    ______ ____
ROOT
ATOM      1  N   UNL     1       5.424   7.136  17.164  0.00  0.00    +0.000 N 
ATOM      2  H   UNL     1       5.177   8.047  17.550  0.00  0.00    +0.000 HD
ENDROOT
BRANCH   1   6
ATOM      3  C   UNL     1       2.937   3.968  18.366  0.00  0.00    +0.000 A 
ATOM      4  C   UNL     1       3.726   3.828  17.223  0.00  0.00    +0.000 A 
ATOM      5  C   UNL     1       4.523   4.898  16.812  0.00  0.00    +0.000 A 
ATOM      6  C   UNL     1       4.534   6.091  17.545  0.00  0.00    +0.000 A 
ATOM      7  C   UNL     1       3.688   6.250  18.644  0.00  0.00    +0.000 A 
ATOM      8  C   UNL     1       2.893   5.182  19.063  0.00  0.00    +0.000 A 
BRANCH   3   9
ATOM      9  S   UNL     1       2.050   2.575  18.993  0.00  0.00    +0.000 S 
ATOM     10  O   UNL     1       0.780   2.479  18.317  0.00  0.00    +0.000 OA
ATOM     11  O   UNL     1       2.181   2.528  20.431  0.00  0.00    +0.000 OA
BRANCH   9  12
ATOM     12  N   UNL     1       2.991   1.292  18.431  0.00  0.00    +0.000 NA
ATOM     13  H   UNL     1       2.638   0.985  17.522  0.00  0.00    +0.000 HD
ATOM     14  H   UNL     1       3.024   0.549  19.129  0.00  0.00    +0.000 HD
ENDBRANCH   9  12
ENDBRANCH   3   9
ENDBRANCH   1   6
BRANCH   1  15
ATOM     15  S   UNL     1       7.087   6.900  17.438  0.00  0.00    +0.000 S 
ATOM     16  O   UNL     1       7.137   6.248  18.732  0.00  0.00    +0.000 OA
ATOM     17  O   UNL     1       7.662   6.255  16.278  0.00  0.00    +0.000 OA
BRANCH  15  18
ATOM     18  C   UNL     1       7.751   8.491  17.587  0.00  0.00    +0.000 C 
ATOM     19  C   UNL     1       8.589   8.757  18.601  0.00  0.00    +0.000 C 
BRANCH  19  20
ATOM     20  C   UNL     1       9.137  10.087  18.896  0.00  0.00    +0.000 A 
ATOM     21  C   UNL     1       9.353  10.437  20.237  0.00  0.00    +0.000 A 
ATOM     22  C   UNL     1       9.826  11.707  20.577  0.00  0.00    +0.000 A 
ATOM     23  C   UNL     1      10.105  12.636  19.577  0.00  0.00    +0.000 A 
ATOM     24  C   UNL     1       9.932  12.288  18.240  0.00  0.00    +0.000 A 
ATOM     25  C   UNL     1       9.460  11.017  17.899  0.00  0.00    +0.000 A 
ENDBRANCH  19  20
ENDBRANCH  15  18
ENDBRANCH   1  15
TORSDOF 6
ENDMDL
MODEL 4
REMARK VINA RESULT:      -7.9      4.744      6.849
REMARK  Name = 
REMARK  6 active torsions:
REMARK  status: ('A' for Active; 'I' for Inactive)
REMARK    1  A    between atoms: N_1  and  S_2
REMARK    2  A    between atoms: S_2  and  C_5
REMARK    3  A    between atoms: C_8  and  N_9
REMARK    4  A    between atoms: N_9  and  S_10
REMARK    5  A    between atoms: S_10  and  C_13
REMARK    6  A    between atoms: C_14  and  C_15
REMARK                            x       y       z     vdW  Elec       q    Type
REMARK                         _______ _______ _______ _____ _____    ______ ____
ROOT
ATOM      1  N   UNL     1       3.608   2.639  20.187  0.00  0.00    +0.000 N 
ATOM      2  H   UNL     1       4.202   2.515  21.006  0.00  0.00    +0.000 HD
ENDROOT
BRANCH   1   6
ATOM      3  C   UNL     1       5.423   4.532  16.903  0.00  0.00    +0.000 A 
ATOM      4  C   UNL     1       4.481   3.525  16.683  0.00  0.00    +0.000 A 
ATOM      5  C   UNL     1       3.908   2.878  17.779  0.00  0.00    +0.000 A 
ATOM      6  C   UNL     1       4.271   3.244  19.082  0.00  0.00    +0.000 A 
ATOM      7  C   UNL     1       5.267   4.200  19.293  0.00  0.00    +0.000 A 
ATOM      8  C   UNL     1       5.838   4.854  18.200  0.00  0.00    +0.000 A 
BRANCH   3   9
ATOM      9  S   UNL     1       6.034   5.471  15.537  0.00  0.00    +0.000 S 
ATOM     10  O   UNL     1       7.471   5.553  15.624  0.00  0.00    +0.000 OA
ATOM     11  O   UNL     1       5.191   6.626  15.332  0.00  0.00    +0.000 OA
BRANCH   9  12
ATOM     12  N   UNL     1       5.689   4.449  14.240  0.00  0.00    +0.000 NA
ATOM     13  H   UNL     1       4.870   4.800  13.739  0.00  0.00    +0.000 HD
ATOM     14  H   UNL     1       5.588   3.489  14.566  0.00  0.00    +0.000 HD
ENDBRANCH   9  12
ENDBRANCH   3   9
ENDBRANCH   1   6
BRANCH   1  15
ATOM     15  S   UNL     1       2.150   3.339  20.717  0.00  0.00    +0.000 S 
ATOM     16  O   UNL     1       1.136   2.389  20.302  0.00  0.00    +0.000 OA
ATOM     17  O   UNL     1       2.284   3.692  22.113  0.00  0.00    +0.000 OA
BRANCH  15  18
ATOM     18  C   UNL     1       1.976   4.786  19.783  0.00  0.00    +0.000 C 
ATOM     19  C   UNL     1       2.197   5.973  20.369  0.00  0.00    +0.000 C 
BRANCH  19  20
ATOM     20  C   UNL     1       1.984   7.271  19.715  0.00  0.00    +0.000 A 
ATOM     21  C   UNL     1       1.323   8.278  20.434  0.00  0.00    +0.000 A 
ATOM     22  C   UNL     1       1.051   9.515  19.845  0.00  0.00    +0.000 A 
ATOM     23  C   UNL     1       1.453   9.765  18.534  0.00  0.00    +0.000 A 
ATOM     24  C   UNL     1       2.144   8.787  17.823  0.00  0.00    +0.000 A 
ATOM     25  C   UNL     1       2.418   7.550  18.412  0.00  0.00    +0.000 A 
ENDBRANCH  19  20
ENDBRANCH  15  18
ENDBRANCH   1  15
TORSDOF 6
ENDMDL
MODEL 5
REMARK VINA RESULT:      -7.9      4.668      6.867
REMARK  Name = 
REMARK  6 active torsions:
REMARK  status: ('A' for Active; 'I' for Inactive)
REMARK    1  A    between atoms: N_1  and  S_2
REMARK    2  A    between atoms: S_2  and  C_5
REMARK    3  A    between atoms: C_8  and  N_9
REMARK    4  A    between atoms: N_9  and  S_10
REMARK    5  A    between atoms: S_10  and  C_13
REMARK    6  A    between atoms: C_14  and  C_15
REMARK                            x       y       z     vdW  Elec       q    Type
REMARK                         _______ _______ _______ _____ _____    ______ ____
ROOT
ATOM      1  N   UNL     1       3.770   2.738  20.226  0.00  0.00    +0.000 N 
ATOM      2  H   UNL     1       4.389   2.779  21.035  0.00  0.00    +0.000 HD
ENDROOT
BRANCH   1   6
ATOM      3  C   UNL     1       5.398   4.649  16.856  0.00  0.00    +0.000 A 
ATOM      4  C   UNL     1       5.825   5.021  18.132  0.00  0.00    +0.000 A 
ATOM      5  C   UNL     1       5.255   4.405  19.247  0.00  0.00    +0.000 A 
ATOM      6  C   UNL     1       4.272   3.421  19.083  0.00  0.00    +0.000 A 
ATOM      7  C   UNL     1       3.797   3.106  17.808  0.00  0.00    +0.000 A 
ATOM      8  C   UNL     1       4.368   3.715  16.688  0.00  0.00    +0.000 A 
BRANCH   3   9
ATOM      9  S   UNL     1       6.222   5.297  15.434  0.00  0.00    +0.000 S 
ATOM     10  O   UNL     1       6.010   4.408  14.318  0.00  0.00    +0.000 OA
ATOM     11  O   UNL     1       7.528   5.782  15.815  0.00  0.00    +0.000 OA
BRANCH   9  12
ATOM     12  N   UNL     1       5.319   6.686  15.120  0.00  0.00    +0.000 NA
ATOM     13  H   UNL     1       4.327   6.443  15.073  0.00  0.00    +0.000 HD
ATOM     14  H   UNL     1       5.667   7.149  14.281  0.00  0.00    +0.000 HD
ENDBRANCH   9  12
ENDBRANCH   3   9
ENDBRANCH   1   6
BRANCH   1  15
ATOM     15  S   UNL     1       2.204   3.134  20.763  0.00  0.00    +0.000 S 
ATOM     16  O   UNL     1       1.367   2.099  20.186  0.00  0.00    +0.000 OA
ATOM     17  O   UNL     1       2.237   3.323  22.196  0.00  0.00    +0.000 OA
BRANCH  15  18
ATOM     18  C   UNL     1       1.832   4.643  20.002  0.00  0.00    +0.000 C 
ATOM     19  C   UNL     1       2.185   5.786  20.610  0.00  0.00    +0.000 C 
BRANCH  19  20
ATOM     20  C   UNL     1       1.838   7.126  20.119  0.00  0.00    +0.000 A 
ATOM     21  C   UNL     1       2.214   7.475  18.814  0.00  0.00    +0.000 A 
ATOM     22  C   UNL     1       1.953   8.752  18.312  0.00  0.00    +0.000 A 
ATOM     23  C   UNL     1       1.296   9.690  19.106  0.00  0.00    +0.000 A 
ATOM     24  C   UNL     1       0.883   9.344  20.390  0.00  0.00    +0.000 A 
ATOM     25  C   UNL     1       1.144   8.066  20.892  0.00  0.00    +0.000 A 
ENDBRANCH  19  20
ENDBRANCH  15  18
ENDBRANCH   1  15
TORSDOF 6
ENDMDL
MODEL 6
REMARK VINA RESULT:      -7.9      4.202      5.228
REMARK  Name = 
REMARK  6 active torsions:
REMARK  status: ('A' for Active; 'I' for Inactive)
REMARK    1  A    between atoms: N_1  and  S_2
REMARK    2  A    between atoms: S_2  and  C_5
REMARK    3  A    between atoms: C_8  and  N_9
REMARK    4  A    between atoms: N_9  and  S_10
REMARK    5  A    between atoms: S_10  and  C_13
REMARK    6  A    between atoms: C_14  and  C_15
REMARK                            x       y       z     vdW  Elec       q    Type
REMARK                         _______ _______ _______ _____ _____    ______ ____
ROOT
ATOM      1  N   UNL     1       6.034   4.351  16.870  0.00  0.00    +0.000 N 
ATOM      2  H   UNL     1       6.254   3.794  16.044  0.00  0.00    +0.000 HD
ENDROOT
BRANCH   1   6
ATOM      3  C   UNL     1       2.683   3.110  19.081  0.00  0.00    +0.000 A 
ATOM      4  C   UNL     1       3.875   3.405  19.745  0.00  0.00    +0.000 A 
ATOM      5  C   UNL     1       4.994   3.784  19.000  0.00  0.00    +0.000 A 
ATOM      6  C   UNL     1       4.913   3.873  17.605  0.00  0.00    +0.000 A 
ATOM      7  C   UNL     1       3.740   3.506  16.942  0.00  0.00    +0.000 A 
ATOM      8  C   UNL     1       2.617   3.132  17.683  0.00  0.00    +0.000 A 
BRANCH   3   9
ATOM      9  S   UNL     1       1.218   2.790  20.015  0.00  0.00    +0.000 S 
ATOM     10  O   UNL     1       1.583   2.207  21.283  0.00  0.00    +0.000 OA
ATOM     11  O   UNL     1       0.211   2.221  19.150  0.00  0.00    +0.000 OA
BRANCH   9  12
ATOM     12  N   UNL     1       0.675   4.352  20.343  0.00  0.00    +0.000 NA
ATOM     13  H   UNL     1       1.467   4.998  20.328  0.00  0.00    +0.000 HD
ATOM     14  H   UNL     1       0.152   4.366  21.218  0.00  0.00    +0.000 HD
ENDBRANCH   9  12
ENDBRANCH   3   9
ENDBRANCH   1   6
BRANCH   1  15
ATOM     15  S   UNL     1       6.033   5.986  16.395  0.00  0.00    +0.000 S 
ATOM     16  O   UNL     1       7.410   6.402  16.577  0.00  0.00    +0.000 OA
ATOM     17  O   UNL     1       5.410   6.091  15.093  0.00  0.00    +0.000 OA
BRANCH  15  18
ATOM     18  C   UNL     1       5.044   6.796  17.561  0.00  0.00    +0.000 C 
ATOM     19  C   UNL     1       3.749   7.012  17.283  0.00  0.00    +0.000 C 
BRANCH  19  20
ATOM     20  C   UNL     1       2.834   7.775  18.142  0.00  0.00    +0.000 A 
ATOM     21  C   UNL     1       2.559   7.282  19.426  0.00  0.00    +0.000 A 
ATOM     22  C   UNL     1       1.659   7.940  20.267  0.00  0.00    +0.000 A 
ATOM     23  C   UNL     1       1.036   9.110  19.839  0.00  0.00    +0.000 A 
ATOM     24  C   UNL     1       1.330   9.631  18.581  0.00  0.00    +0.000 A 
ATOM     25  C   UNL     1       2.230   8.973  17.740  0.00  0.00    +0.000 A 
ENDBRANCH  19  20
ENDBRANCH  15  18
ENDBRANCH   1  15
TORSDOF 6
ENDMDL
MODEL 7
REMARK VINA RESULT:      -7.8      4.716      6.925
REMARK  Name = 
REMARK  6 active torsions:
REMARK  status: ('A' for Active; 'I' for Inactive)
REMARK    1  A    between atoms: N_1  and  S_2
REMARK    2  A    between atoms: S_2  and  C_5
REMARK    3  A    between atoms: C_8  and  N_9
REMARK    4  A    between atoms: N_9  and  S_10
REMARK    5  A    between atoms: S_10  and  C_13
REMARK    6  A    between atoms: C_14  and  C_15
REMARK                            x       y       z     vdW  Elec       q    Type
REMARK                         _______ _______ _______ _____ _____    ______ ____
ROOT
ATOM      1  N   UNL     1       3.555   2.550  20.071  0.00  0.00    +0.000 N 
ATOM      2  H   UNL     1       4.168   2.384  20.868  0.00  0.00    +0.000 HD
ENDROOT
BRANCH   1   6
ATOM      3  C   UNL     1       5.504   4.577  16.948  0.00  0.00    +0.000 A 
ATOM      4  C   UNL     1       5.928   4.771  18.264  0.00  0.00    +0.000 A 
ATOM      5  C   UNL     1       5.253   4.120  19.299  0.00  0.00    +0.000 A 
ATOM      6  C   UNL     1       4.170   3.278  19.014  0.00  0.00    +0.000 A 
ATOM      7  C   UNL     1       3.706   3.148  17.703  0.00  0.00    +0.000 A 
ATOM      8  C   UNL     1       4.381   3.791  16.664  0.00  0.00    +0.000 A 
BRANCH   3   9
ATOM      9  S   UNL     1       6.445   5.260  15.618  0.00  0.00    +0.000 S 
ATOM     10  O   UNL     1       6.578   4.271  14.577  0.00  0.00    +0.000 OA
ATOM     11  O   UNL     1       7.568   5.996  16.151  0.00  0.00    +0.000 OA
BRANCH   9  12
ATOM     12  N   UNL     1       5.395   6.440  15.028  0.00  0.00    +0.000 NA
ATOM     13  H   UNL     1       5.624   7.341  15.453  0.00  0.00    +0.000 HD
ATOM     14  H   UNL     1       4.427   6.154  15.174  0.00  0.00    +0.000 HD
ENDBRANCH   9  12
ENDBRANCH   3   9
ENDBRANCH   1   6
BRANCH   1  15
ATOM     15  S   UNL     1       2.076   3.134  20.680  0.00  0.00    +0.000 S 
ATOM     16  O   UNL     1       1.103   2.163  20.219  0.00  0.00    +0.000 OA
ATOM     17  O   UNL     1       2.227   3.394  22.096  0.00  0.00    +0.000 OA
BRANCH  15  18
ATOM     18  C   UNL     1       1.807   4.632  19.857  0.00  0.00    +0.000 C 
ATOM     19  C   UNL     1       2.227   5.774  20.422  0.00  0.00    +0.000 C 
BRANCH  19  20
ATOM     20  C   UNL     1       1.969   7.112  19.875  0.00  0.00    +0.000 A 
ATOM     21  C   UNL     1       1.321   8.051  20.691  0.00  0.00    +0.000 A 
ATOM     22  C   UNL     1       1.007   9.323  20.206  0.00  0.00    +0.000 A 
ATOM     23  C   UNL     1       1.353   9.676  18.904  0.00  0.00    +0.000 A 
ATOM     24  C   UNL     1       2.031   8.766  18.097  0.00  0.00    +0.000 A 
ATOM     25  C   UNL     1       2.346   7.494  18.581  0.00  0.00    +0.000 A 
ENDBRANCH  19  20
ENDBRANCH  15  18
ENDBRANCH   1  15
TORSDOF 6
ENDMDL
MODEL 8
REMARK VINA RESULT:      -7.8      4.183      5.206
REMARK  Name = 
REMARK  6 active torsions:
REMARK  status: ('A' for Active; 'I' for Inactive)
REMARK    1  A    between atoms: N_1  and  S_2
REMARK    2  A    between atoms: S_2  and  C_5
REMARK    3  A    between atoms: C_8  and  N_9
REMARK    4  A    between atoms: N_9  and  S_10
REMARK    5  A    between atoms: S_10  and  C_13
REMARK    6  A    between atoms: C_14  and  C_15
REMARK                            x       y       z     vdW  Elec       q    Type
REMARK                         _______ _______ _______ _____ _____    ______ ____
ROOT
ATOM      1  N   UNL     1       5.938   4.612  16.831  0.00  0.00    +0.000 N 
ATOM      2  H   UNL     1       6.135   4.119  15.961  0.00  0.00    +0.000 HD
ENDROOT
BRANCH   1   6
ATOM      3  C   UNL     1       2.667   3.179  19.048  0.00  0.00    +0.000 A 
ATOM      4  C   UNL     1       3.869   3.463  19.699  0.00  0.00    +0.000 A 
ATOM      5  C   UNL     1       4.961   3.906  18.951  0.00  0.00    +0.000 A 
ATOM      6  C   UNL     1       4.844   4.070  17.565  0.00  0.00    +0.000 A 
ATOM      7  C   UNL     1       3.663   3.714  16.910  0.00  0.00    +0.000 A 
ATOM      8  C   UNL     1       2.566   3.276  17.655  0.00  0.00    +0.000 A 
BRANCH   3   9
ATOM      9  S   UNL     1       1.232   2.777  19.996  0.00  0.00    +0.000 S 
ATOM     10  O   UNL     1       1.641   2.156  21.232  0.00  0.00    +0.000 OA
ATOM     11  O   UNL     1       0.225   2.211  19.128  0.00  0.00    +0.000 OA
BRANCH   9  12
ATOM     12  N   UNL     1       0.648   4.307  20.397  0.00  0.00    +0.000 NA
ATOM     13  H   UNL     1      -0.235   4.212  20.903  0.00  0.00    +0.000 HD
ATOM     14  H   UNL     1       0.579   4.887  19.561  0.00  0.00    +0.000 HD
ENDBRANCH   9  12
ENDBRANCH   3   9
ENDBRANCH   1   6
BRANCH   1  15
ATOM     15  S   UNL     1       5.908   6.276  16.477  0.00  0.00    +0.000 S 
ATOM     16  O   UNL     1       7.271   6.708  16.718  0.00  0.00    +0.000 OA
ATOM     17  O   UNL     1       5.307   6.464  15.174  0.00  0.00    +0.000 OA
BRANCH  15  18
ATOM     18  C   UNL     1       4.879   6.977  17.679  0.00  0.00    +0.000 C 
ATOM     19  C   UNL     1       3.595   7.226  17.376  0.00  0.00    +0.000 C 
BRANCH  19  20
ATOM     20  C   UNL     1       2.651   7.909  18.271  0.00  0.00    +0.000 A 
ATOM     21  C   UNL     1       2.035   9.084  17.816  0.00  0.00    +0.000 A 
ATOM     22  C   UNL     1       1.166   9.800  18.643  0.00  0.00    +0.000 A 
ATOM     23  C   UNL     1       0.890   9.340  19.928  0.00  0.00    +0.000 A 
ATOM     24  C   UNL     1       1.466   8.154  20.377  0.00  0.00    +0.000 A 
ATOM     25  C   UNL     1       2.334   7.436  19.551  0.00  0.00    +0.000 A 
ENDBRANCH  19  20
ENDBRANCH  15  18
ENDBRANCH   1  15
TORSDOF 6
ENDMDL
MODEL 9
REMARK VINA RESULT:      -7.8      4.448      6.842
REMARK  Name = 
REMARK  6 active torsions:
REMARK  status: ('A' for Active; 'I' for Inactive)
REMARK    1  A    between atoms: N_1  and  S_2
REMARK    2  A    between atoms: S_2  and  C_5
REMARK    3  A    between atoms: C_8  and  N_9
REMARK    4  A    between atoms: N_9  and  S_10
REMARK    5  A    between atoms: S_10  and  C_13
REMARK    6  A    between atoms: C_14  and  C_15
REMARK                            x       y       z     vdW  Elec       q    Type
REMARK                         _______ _______ _______ _____ _____    ______ ____
ROOT
ATOM      1  N   UNL     1       3.685   2.637  20.075  0.00  0.00    +0.000 N 
ATOM      2  H   UNL     1       4.240   2.389  20.894  0.00  0.00    +0.000 HD
ENDROOT
BRANCH   1   6
ATOM      3  C   UNL     1       5.619   5.080  17.255  0.00  0.00    +0.000 A 
ATOM      4  C   UNL     1       4.675   4.146  16.824  0.00  0.00    +0.000 A 
ATOM      5  C   UNL     1       4.062   3.315  17.764  0.00  0.00    +0.000 A 
ATOM      6  C   UNL     1       4.388   3.427  19.122  0.00  0.00    +0.000 A 
ATOM      7  C   UNL     1       5.385   4.312  19.537  0.00  0.00    +0.000 A 
ATOM      8  C   UNL     1       5.997   5.149  18.602  0.00  0.00    +0.000 A 
BRANCH   3   9
ATOM      9  S   UNL     1       6.282   6.248  16.107  0.00  0.00    +0.000 S 
ATOM     10  O   UNL     1       7.074   7.218  16.822  0.00  0.00    +0.000 OA
ATOM     11  O   UNL     1       5.261   6.616  15.153  0.00  0.00    +0.000 OA
BRANCH   9  12
ATOM     12  N   UNL     1       7.363   5.292  15.235  0.00  0.00    +0.000 NA
ATOM     13  H   UNL     1       8.314   5.463  15.570  0.00  0.00    +0.000 HD
ATOM     14  H   UNL     1       7.247   5.453  14.235  0.00  0.00    +0.000 HD
ENDBRANCH   9  12
ENDBRANCH   3   9
ENDBRANCH   1   6
BRANCH   1  15
ATOM     15  S   UNL     1       2.185   3.217  20.633  0.00  0.00    +0.000 S 
ATOM     16  O   UNL     1       1.236   2.218  20.180  0.00  0.00    +0.000 OA
ATOM     17  O   UNL     1       2.299   3.521  22.043  0.00  0.00    +0.000 OA
BRANCH  15  18
ATOM     18  C   UNL     1       1.913   4.685  19.759  0.00  0.00    +0.000 C 
ATOM     19  C   UNL     1       2.252   5.854  20.323  0.00  0.00    +0.000 C 
BRANCH  19  20
ATOM     20  C   UNL     1       1.980   7.170  19.730  0.00  0.00    +0.000 A 
ATOM     21  C   UNL     1       2.352   7.388  18.395  0.00  0.00    +0.000 A 
ATOM     22  C   UNL     1       2.160   8.635  17.795  0.00  0.00    +0.000 A 
ATOM     23  C   UNL     1       1.579   9.673  18.518  0.00  0.00    +0.000 A 
ATOM     24  C   UNL     1       1.169   9.458  19.832  0.00  0.00    +0.000 A 
ATOM     25  C   UNL     1       1.359   8.211  20.433  0.00  0.00    +0.000 A 
ENDBRANCH  19  20
ENDBRANCH  15  18
ENDBRANCH   1  15
TORSDOF 6
ENDMDL
