MODEL 1
REMARK VINA RESULT:      -7.3      0.000      0.000
REMARK  Name = 
REMARK  4 active torsions:
REMARK  status: ('A' for Active; 'I' for Inactive)
REMARK    1  A    between atoms: O_1  and  C_2
REMARK    2  A    between atoms: C_5  and  C_6
REMARK    3  A    between atoms: C_6  and  C_7
REMARK    4  A    between atoms: C_7  and  C_8
REMARK                            x       y       z     vdW  Elec       q    Type
REMARK                         _______ _______ _______ _____ _____    ______ ____
ROOT
ATOM      1  C   UNL     1       3.082   7.285  18.034  0.00  0.00    +0.000 C 
ENDROOT
BRANCH   1   2
ATOM      2  C   UNL     1       2.581   5.962  18.568  0.00  0.00    +0.000 A 
ATOM      3  C   UNL     1       1.930   5.042  17.712  0.00  0.00    +0.000 A 
ATOM      4  C   UNL     1       1.430   3.830  18.203  0.00  0.00    +0.000 A 
ATOM      5  C   UNL     1       1.595   3.561  19.544  0.00  0.00    +0.000 A 
ATOM      6  C   UNL     1       2.240   4.441  20.382  0.00  0.00    +0.000 A 
ATOM      7  C   UNL     1       2.747   5.640  19.926  0.00  0.00    +0.000 A 
ATOM      8  O   UNL     1       2.292   3.991  21.666  0.00  0.00    +0.000 OA
ATOM      9  C   UNL     1       1.578   2.744  21.544  0.00  0.00    +0.000 C 
ATOM     10  O   UNL     1       1.159   2.450  20.194  0.00  0.00    +0.000 OA
ENDBRANCH   1   2
BRANCH   1  11
ATOM     11  C   UNL     1       3.945   7.131  16.778  0.00  0.00    +0.000 C 
BRANCH  11  15
ATOM     12  C   UNL     1       7.443   4.718  17.509  0.00  0.00    +0.000 A 
ATOM     13  C   UNL     1       7.318   5.955  18.132  0.00  0.00    +0.000 A 
ATOM     14  C   UNL     1       6.184   6.736  17.890  0.00  0.00    +0.000 A 
ATOM     15  C   UNL     1       5.172   6.283  17.031  0.00  0.00    +0.000 A 
ATOM     16  C   UNL     1       5.325   5.039  16.403  0.00  0.00    +0.000 A 
ATOM     17  C   UNL     1       6.458   4.257  16.644  0.00  0.00    +0.000 A 
BRANCH  12  18
ATOM     18  O   UNL     1       8.527   3.919  17.723  0.00  0.00    +0.000 OA
ATOM     19  H   UNL     1       8.503   3.188  17.082  0.00  0.00    +0.000 HD
ENDBRANCH  12  18
ENDBRANCH  11  15
ENDBRANCH   1  11
TORSDOF 4
ENDMDL
MODEL 2
REMARK VINA RESULT:      -7.3      0.210      1.133
REMARK  Name = 
REMARK  4 active torsions:
REMARK  status: ('A' for Active; 'I' for Inactive)
REMARK    1  A    between atoms: O_1  and  C_2
REMARK    2  A    between atoms: C_5  and  C_6
REMARK    3  A    between atoms: C_6  and  C_7
REMARK    4  A    between atoms: C_7  and  C_8
REMARK                            x       y       z     vdW  Elec       q    Type
REMARK                         _______ _______ _______ _____ _____    ______ ____
ROOT
ATOM      1  C   UNL     1       3.063   7.199  18.159  0.00  0.00    +0.000 C 
ENDROOT
BRANCH   1   2
ATOM      2  C   UNL     1       2.570   5.861  18.663  0.00  0.00    +0.000 A 
ATOM      3  C   UNL     1       1.957   4.941  17.780  0.00  0.00    +0.000 A 
ATOM      4  C   UNL     1       1.465   3.715  18.242  0.00  0.00    +0.000 A 
ATOM      5  C   UNL     1       1.600   3.432  19.583  0.00  0.00    +0.000 A 
ATOM      6  C   UNL     1       2.207   4.312  20.449  0.00  0.00    +0.000 A 
ATOM      7  C   UNL     1       2.706   5.525  20.021  0.00  0.00    +0.000 A 
ATOM      8  O   UNL     1       2.234   3.846  21.727  0.00  0.00    +0.000 OA
ATOM      9  C   UNL     1       1.544   2.589  21.572  0.00  0.00    +0.000 C 
ATOM     10  O   UNL     1       1.165   2.305  20.208  0.00  0.00    +0.000 OA
ENDBRANCH   1   2
BRANCH   1  11
ATOM     11  C   UNL     1       3.902   7.081  16.883  0.00  0.00    +0.000 C 
BRANCH  11  15
ATOM     12  C   UNL     1       7.408   4.636  17.451  0.00  0.00    +0.000 A 
ATOM     13  C   UNL     1       6.562   4.387  16.376  0.00  0.00    +0.000 A 
ATOM     14  C   UNL     1       5.425   5.179  16.197  0.00  0.00    +0.000 A 
ATOM     15  C   UNL     1       5.132   6.224  17.087  0.00  0.00    +0.000 A 
ATOM     16  C   UNL     1       5.991   6.449  18.172  0.00  0.00    +0.000 A 
ATOM     17  C   UNL     1       7.129   5.657  18.351  0.00  0.00    +0.000 A 
BRANCH  12  18
ATOM     18  O   UNL     1       8.533   3.895  17.659  0.00  0.00    +0.000 OA
ATOM     19  H   UNL     1       9.217   4.471  18.039  0.00  0.00    +0.000 HD
ENDBRANCH  12  18
ENDBRANCH  11  15
ENDBRANCH   1  11
TORSDOF 4
ENDMDL
MODEL 3
REMARK VINA RESULT:      -7.1      1.580      6.081
REMARK  Name = 
REMARK  4 active torsions:
REMARK  status: ('A' for Active; 'I' for Inactive)
REMARK    1  A    between atoms: O_1  and  C_2
REMARK    2  A    between atoms: C_5  and  C_6
REMARK    3  A    between atoms: C_6  and  C_7
REMARK    4  A    between atoms: C_7  and  C_8
REMARK                            x       y       z     vdW  Elec       q    Type
REMARK                         _______ _______ _______ _____ _____    ______ ____
ROOT
ATOM      1  C   UNL     1       3.297   6.792  18.347  0.00  0.00    +0.000 C 
ENDROOT
BRANCH   1   2
ATOM      2  C   UNL     1       4.521   6.140  17.744  0.00  0.00    +0.000 A 
ATOM      3  C   UNL     1       5.487   5.521  18.572  0.00  0.00    +0.000 A 
ATOM      4  C   UNL     1       6.642   4.947  18.028  0.00  0.00    +0.000 A 
ATOM      5  C   UNL     1       6.805   5.000  16.662  0.00  0.00    +0.000 A 
ATOM      6  C   UNL     1       5.866   5.585  15.845  0.00  0.00    +0.000 A 
ATOM      7  C   UNL     1       4.716   6.155  16.353  0.00  0.00    +0.000 A 
ATOM      8  O   UNL     1       6.218   5.538  14.532  0.00  0.00    +0.000 OA
ATOM      9  C   UNL     1       7.502   4.887  14.620  0.00  0.00    +0.000 C 
ATOM     10  O   UNL     1       7.868   4.515  15.966  0.00  0.00    +0.000 OA
ENDBRANCH   1   2
BRANCH   1  11
ATOM     11  C   UNL     1       2.028   5.953  18.169  0.00  0.00    +0.000 C 
BRANCH  11  15
ATOM     12  C   UNL     1       1.584   2.986  21.265  0.00  0.00    +0.000 A 
ATOM     13  C   UNL     1       1.067   2.741  19.998  0.00  0.00    +0.000 A 
ATOM     14  C   UNL     1       1.209   3.707  18.998  0.00  0.00    +0.000 A 
ATOM     15  C   UNL     1       1.872   4.916  19.258  0.00  0.00    +0.000 A 
ATOM     16  C   UNL     1       2.374   5.148  20.546  0.00  0.00    +0.000 A 
ATOM     17  C   UNL     1       2.232   4.182  21.547  0.00  0.00    +0.000 A 
BRANCH  12  18
ATOM     18  O   UNL     1       1.476   2.069  22.269  0.00  0.00    +0.000 OA
ATOM     19  H   UNL     1       2.136   2.278  22.951  0.00  0.00    +0.000 HD
ENDBRANCH  12  18
ENDBRANCH  11  15
ENDBRANCH   1  11
TORSDOF 4
ENDMDL
MODEL 4
REMARK VINA RESULT:      -7.1      0.786      2.000
REMARK  Name = 
REMARK  4 active torsions:
REMARK  status: ('A' for Active; 'I' for Inactive)
REMARK    1  A    between atoms: O_1  and  C_2
REMARK    2  A    between atoms: C_5  and  C_6
REMARK    3  A    between atoms: C_6  and  C_7
REMARK    4  A    between atoms: C_7  and  C_8
REMARK                            x       y       z     vdW  Elec       q    Type
REMARK                         _______ _______ _______ _____ _____    ______ ____
ROOT
ATOM      1  C   UNL     1       3.188   7.482  17.954  0.00  0.00    +0.000 C 
ENDROOT
BRANCH   1   2
ATOM      2  C   UNL     1       2.580   6.270  18.625  0.00  0.00    +0.000 A 
ATOM      3  C   UNL     1       2.551   6.170  20.036  0.00  0.00    +0.000 A 
ATOM      4  C   UNL     1       2.024   5.037  20.667  0.00  0.00    +0.000 A 
ATOM      5  C   UNL     1       1.534   4.026  19.871  0.00  0.00    +0.000 A 
ATOM      6  C   UNL     1       1.543   4.119  18.499  0.00  0.00    +0.000 A 
ATOM      7  C   UNL     1       2.051   5.225  17.849  0.00  0.00    +0.000 A 
ATOM      8  O   UNL     1       1.019   3.015  17.900  0.00  0.00    +0.000 OA
ATOM      9  C   UNL     1       0.711   2.204  19.052  0.00  0.00    +0.000 C 
ATOM     10  O   UNL     1       1.006   2.851  20.308  0.00  0.00    +0.000 OA
ENDBRANCH   1   2
BRANCH   1  11
ATOM     11  C   UNL     1       3.953   7.133  16.675  0.00  0.00    +0.000 C 
BRANCH  11  15
ATOM     12  C   UNL     1       7.409   4.675  17.455  0.00  0.00    +0.000 A 
ATOM     13  C   UNL     1       6.504   4.296  16.470  0.00  0.00    +0.000 A 
ATOM     14  C   UNL     1       5.382   5.094  16.223  0.00  0.00    +0.000 A 
ATOM     15  C   UNL     1       5.165   6.272  16.953  0.00  0.00    +0.000 A 
ATOM     16  C   UNL     1       6.084   6.628  17.950  0.00  0.00    +0.000 A 
ATOM     17  C   UNL     1       7.205   5.831  18.198  0.00  0.00    +0.000 A 
BRANCH  12  18
ATOM     18  O   UNL     1       8.521   3.933  17.724  0.00  0.00    +0.000 OA
ATOM     19  H   UNL     1       8.937   4.282  18.529  0.00  0.00    +0.000 HD
ENDBRANCH  12  18
ENDBRANCH  11  15
ENDBRANCH   1  11
TORSDOF 4
ENDMDL
MODEL 5
REMARK VINA RESULT:      -7.0      1.744      6.112
REMARK  Name = 
REMARK  4 active torsions:
REMARK  status: ('A' for Active; 'I' for Inactive)
REMARK    1  A    between atoms: O_1  and  C_2
REMARK    2  A    between atoms: C_5  and  C_6
REMARK    3  A    between atoms: C_6  and  C_7
REMARK    4  A    between atoms: C_7  and  C_8
REMARK                            x       y       z     vdW  Elec       q    Type
REMARK                         _______ _______ _______ _____ _____    ______ ____
ROOT
ATOM      1  C   UNL     1       3.530   6.716  18.208  0.00  0.00    +0.000 C 
ENDROOT
BRANCH   1   2
ATOM      2  C   UNL     1       4.707   6.286  17.361  0.00  0.00    +0.000 A 
ATOM      3  C   UNL     1       6.016   6.722  17.676  0.00  0.00    +0.000 A 
ATOM      4  C   UNL     1       7.108   6.360  16.878  0.00  0.00    +0.000 A 
ATOM      5  C   UNL     1       6.867   5.564  15.780  0.00  0.00    +0.000 A 
ATOM      6  C   UNL     1       5.601   5.122  15.472  0.00  0.00    +0.000 A 
ATOM      7  C   UNL     1       4.508   5.458  16.243  0.00  0.00    +0.000 A 
ATOM      8  O   UNL     1       5.578   4.355  14.349  0.00  0.00    +0.000 OA
ATOM      9  C   UNL     1       6.968   4.394  13.967  0.00  0.00    +0.000 C 
ATOM     10  O   UNL     1       7.798   5.134  14.887  0.00  0.00    +0.000 OA
ENDBRANCH   1   2
BRANCH   1  11
ATOM     11  C   UNL     1       2.285   5.856  17.976  0.00  0.00    +0.000 C 
BRANCH  11  15
ATOM     12  C   UNL     1       1.587   3.104  21.221  0.00  0.00    +0.000 A 
ATOM     13  C   UNL     1       2.334   4.256  21.444  0.00  0.00    +0.000 A 
ATOM     14  C   UNL     1       2.561   5.144  20.388  0.00  0.00    +0.000 A 
ATOM     15  C   UNL     1       2.040   4.887  19.111  0.00  0.00    +0.000 A 
ATOM     16  C   UNL     1       1.301   3.714  18.905  0.00  0.00    +0.000 A 
ATOM     17  C   UNL     1       1.074   2.825  19.960  0.00  0.00    +0.000 A 
BRANCH  12  18
ATOM     18  O   UNL     1       1.333   2.215  22.222  0.00  0.00    +0.000 OA
ATOM     19  H   UNL     1       0.527   1.720  21.999  0.00  0.00    +0.000 HD
ENDBRANCH  12  18
ENDBRANCH  11  15
ENDBRANCH   1  11
TORSDOF 4
ENDMDL
MODEL 6
REMARK VINA RESULT:      -7.0      1.641      2.560
REMARK  Name = 
REMARK  4 active torsions:
REMARK  status: ('A' for Active; 'I' for Inactive)
REMARK    1  A    between atoms: O_1  and  C_2
REMARK    2  A    between atoms: C_5  and  C_6
REMARK    3  A    between atoms: C_6  and  C_7
REMARK    4  A    between atoms: C_7  and  C_8
REMARK                            x       y       z     vdW  Elec       q    Type
REMARK                         _______ _______ _______ _____ _____    ______ ____
ROOT
ATOM      1  C   UNL     1       4.434   4.250  16.177  0.00  0.00    +0.000 C 
ENDROOT
BRANCH   1   2
ATOM      2  C   UNL     1       3.736   4.413  17.509  0.00  0.00    +0.000 A 
ATOM      3  C   UNL     1       3.221   5.671  17.901  0.00  0.00    +0.000 A 
ATOM      4  C   UNL     1       2.606   5.842  19.147  0.00  0.00    +0.000 A 
ATOM      5  C   UNL     1       2.517   4.747  19.977  0.00  0.00    +0.000 A 
ATOM      6  C   UNL     1       3.001   3.515  19.600  0.00  0.00    +0.000 A 
ATOM      7  C   UNL     1       3.607   3.316  18.377  0.00  0.00    +0.000 A 
ATOM      8  O   UNL     1       2.819   2.570  20.563  0.00  0.00    +0.000 OA
ATOM      9  C   UNL     1       2.196   3.356  21.599  0.00  0.00    +0.000 C 
ATOM     10  O   UNL     1       1.973   4.732  21.223  0.00  0.00    +0.000 OA
ENDBRANCH   1   2
BRANCH   1  11
ATOM     11  C   UNL     1       5.924   3.930  16.321  0.00  0.00    +0.000 C 
BRANCH  11  15
ATOM     12  C   UNL     1       8.044   7.028  18.442  0.00  0.00    +0.000 A 
ATOM     13  C   UNL     1       7.440   7.318  17.224  0.00  0.00    +0.000 A 
ATOM     14  C   UNL     1       6.757   6.310  16.537  0.00  0.00    +0.000 A 
ATOM     15  C   UNL     1       6.670   5.014  17.067  0.00  0.00    +0.000 A 
ATOM     16  C   UNL     1       7.298   4.740  18.290  0.00  0.00    +0.000 A 
ATOM     17  C   UNL     1       7.981   5.747  18.977  0.00  0.00    +0.000 A 
BRANCH  12  18
ATOM     18  O   UNL     1       8.713   7.982  19.151  0.00  0.00    +0.000 OA
ATOM     19  H   UNL     1       8.458   7.908  20.085  0.00  0.00    +0.000 HD
ENDBRANCH  12  18
ENDBRANCH  11  15
ENDBRANCH   1  11
TORSDOF 4
ENDMDL
MODEL 7
REMARK VINA RESULT:      -6.9      1.605      2.560
REMARK  Name = 
REMARK  4 active torsions:
REMARK  status: ('A' for Active; 'I' for Inactive)
REMARK    1  A    between atoms: O_1  and  C_2
REMARK    2  A    between atoms: C_5  and  C_6
REMARK    3  A    between atoms: C_6  and  C_7
REMARK    4  A    between atoms: C_7  and  C_8
REMARK                            x       y       z     vdW  Elec       q    Type
REMARK                         _______ _______ _______ _____ _____    ______ ____
ROOT
ATOM      1  C   UNL     1       4.490   4.424  16.246  0.00  0.00    +0.000 C 
ENDROOT
BRANCH   1   2
ATOM      2  C   UNL     1       3.727   4.501  17.550  0.00  0.00    +0.000 A 
ATOM      3  C   UNL     1       3.331   5.754  18.076  0.00  0.00    +0.000 A 
ATOM      4  C   UNL     1       2.656   5.840  19.299  0.00  0.00    +0.000 A 
ATOM      5  C   UNL     1       2.387   4.668  19.971  0.00  0.00    +0.000 A 
ATOM      6  C   UNL     1       2.754   3.444  19.461  0.00  0.00    +0.000 A 
ATOM      7  C   UNL     1       3.415   3.328  18.256  0.00  0.00    +0.000 A 
ATOM      8  O   UNL     1       2.402   2.415  20.279  0.00  0.00    +0.000 OA
ATOM      9  C   UNL     1       1.802   3.135  21.376  0.00  0.00    +0.000 C 
ATOM     10  O   UNL     1       1.762   4.564  21.174  0.00  0.00    +0.000 OA
ENDBRANCH   1   2
BRANCH   1  11
ATOM     11  C   UNL     1       5.970   4.081  16.443  0.00  0.00    +0.000 C 
BRANCH  11  15
ATOM     12  C   UNL     1       8.108   7.198  18.517  0.00  0.00    +0.000 A 
ATOM     13  C   UNL     1       8.041   5.925  19.071  0.00  0.00    +0.000 A 
ATOM     14  C   UNL     1       7.343   4.918  18.397  0.00  0.00    +0.000 A 
ATOM     15  C   UNL     1       6.717   5.178  17.169  0.00  0.00    +0.000 A 
ATOM     16  C   UNL     1       6.787   6.472  16.636  0.00  0.00    +0.000 A 
ATOM     17  C   UNL     1       7.484   7.480  17.308  0.00  0.00    +0.000 A 
BRANCH  12  18
ATOM     18  O   UNL     1       8.785   8.208  19.134  0.00  0.00    +0.000 OA
ATOM     19  H   UNL     1       8.879   7.988  20.076  0.00  0.00    +0.000 HD
ENDBRANCH  12  18
ENDBRANCH  11  15
ENDBRANCH   1  11
TORSDOF 4
ENDMDL
MODEL 8
REMARK VINA RESULT:      -6.9      1.699      2.380
REMARK  Name = 
REMARK  4 active torsions:
REMARK  status: ('A' for Active; 'I' for Inactive)
REMARK    1  A    between atoms: O_1  and  C_2
REMARK    2  A    between atoms: C_5  and  C_6
REMARK    3  A    between atoms: C_6  and  C_7
REMARK    4  A    between atoms: C_7  and  C_8
REMARK                            x       y       z     vdW  Elec       q    Type
REMARK                         _______ _______ _______ _____ _____    ______ ____
ROOT
ATOM      1  C   UNL     1       4.779   2.937  16.675  0.00  0.00    +0.000 C 
ENDROOT
BRANCH   1   2
ATOM      2  C   UNL     1       3.702   3.157  17.713  0.00  0.00    +0.000 A 
ATOM      3  C   UNL     1       2.520   3.862  17.384  0.00  0.00    +0.000 A 
ATOM      4  C   UNL     1       1.532   4.103  18.346  0.00  0.00    +0.000 A 
ATOM      5  C   UNL     1       1.746   3.628  19.621  0.00  0.00    +0.000 A 
ATOM      6  C   UNL     1       2.884   2.929  19.949  0.00  0.00    +0.000 A 
ATOM      7  C   UNL     1       3.872   2.672  19.021  0.00  0.00    +0.000 A 
ATOM      8  O   UNL     1       2.904   2.555  21.258  0.00  0.00    +0.000 OA
ATOM      9  C   UNL     1       1.664   3.129  21.721  0.00  0.00    +0.000 C 
ATOM     10  O   UNL     1       0.909   3.786  20.681  0.00  0.00    +0.000 OA
ENDBRANCH   1   2
BRANCH   1  11
ATOM     11  C   UNL     1       5.153   4.219  15.926  0.00  0.00    +0.000 C 
BRANCH  11  15
ATOM     12  C   UNL     1       7.720   6.783  18.257  0.00  0.00    +0.000 A 
ATOM     13  C   UNL     1       6.778   7.345  17.403  0.00  0.00    +0.000 A 
ATOM     14  C   UNL     1       5.950   6.511  16.646  0.00  0.00    +0.000 A 
ATOM     15  C   UNL     1       6.057   5.115  16.743  0.00  0.00    +0.000 A 
ATOM     16  C   UNL     1       7.022   4.569  17.601  0.00  0.00    +0.000 A 
ATOM     17  C   UNL     1       7.850   5.403  18.358  0.00  0.00    +0.000 A 
BRANCH  12  18
ATOM     18  O   UNL     1       8.541   7.557  19.021  0.00  0.00    +0.000 OA
ATOM     19  H   UNL     1       8.060   7.822  19.822  0.00  0.00    +0.000 HD
ENDBRANCH  12  18
ENDBRANCH  11  15
ENDBRANCH   1  11
TORSDOF 4
ENDMDL
MODEL 9
REMARK VINA RESULT:      -6.9      1.790      6.184
REMARK  Name = 
REMARK  4 active torsions:
REMARK  status: ('A' for Active; 'I' for Inactive)
REMARK    1  A    between atoms: O_1  and  C_2
REMARK    2  A    between atoms: C_5  and  C_6
REMARK    3  A    between atoms: C_6  and  C_7
REMARK    4  A    between atoms: C_7  and  C_8
REMARK                            x       y       z     vdW  Elec       q    Type
REMARK                         _______ _______ _______ _____ _____    ______ ____
ROOT
ATOM      1  C   UNL     1       3.868   4.048  16.832  0.00  0.00    +0.000 C 
ENDROOT
BRANCH   1   2
ATOM      2  C   UNL     1       5.064   4.841  17.310  0.00  0.00    +0.000 A 
ATOM      3  C   UNL     1       5.881   4.348  18.355  0.00  0.00    +0.000 A 
ATOM      4  C   UNL     1       6.969   5.090  18.830  0.00  0.00    +0.000 A 
ATOM      5  C   UNL     1       7.219   6.312  18.246  0.00  0.00    +0.000 A 
ATOM      6  C   UNL     1       6.441   6.795  17.220  0.00  0.00    +0.000 A 
ATOM      7  C   UNL     1       5.366   6.083  16.728  0.00  0.00    +0.000 A 
ATOM      8  O   UNL     1       6.852   8.018  16.788  0.00  0.00    +0.000 OA
ATOM      9  C   UNL     1       7.956   8.263  17.683  0.00  0.00    +0.000 C 
ATOM     10  O   UNL     1       8.214   7.172  18.592  0.00  0.00    +0.000 OA
ENDBRANCH   1   2
BRANCH   1  11
ATOM     11  C   UNL     1       2.540   4.599  17.358  0.00  0.00    +0.000 C 
BRANCH  11  15
ATOM     12  C   UNL     1       1.552   3.001  21.239  0.00  0.00    +0.000 A 
ATOM     13  C   UNL     1       1.637   2.147  20.145  0.00  0.00    +0.000 A 
ATOM     14  C   UNL     1       1.954   2.670  18.888  0.00  0.00    +0.000 A 
ATOM     15  C   UNL     1       2.192   4.043  18.721  0.00  0.00    +0.000 A 
ATOM     16  C   UNL     1       2.087   4.887  19.835  0.00  0.00    +0.000 A 
ATOM     17  C   UNL     1       1.771   4.365  21.092  0.00  0.00    +0.000 A 
BRANCH  12  18
ATOM     18  O   UNL     1       1.255   2.535  22.485  0.00  0.00    +0.000 OA
ATOM     19  H   UNL     1       0.850   1.656  22.398  0.00  0.00    +0.000 HD
ENDBRANCH  12  18
ENDBRANCH  11  15
ENDBRANCH   1  11
TORSDOF 4
ENDMDL
