MODEL 1
REMARK VINA RESULT:      -8.3      0.000      0.000
REMARK  Name = 
REMARK  9 active torsions:
REMARK  status: ('A' for Active; 'I' for Inactive)
REMARK    1  A    between atoms: C_1  and  O_2
REMARK    2  A    between atoms: O_2  and  C_3
REMARK    3  A    between atoms: C_6  and  O_7
REMARK    4  A    between atoms: O_7  and  C_8
REMARK    5  A    between atoms: C_8  and  C_9
REMARK    6  A    between atoms: C_12  and  S_13
REMARK    7  A    between atoms: S_13  and  C_14
REMARK    8  A    between atoms: C_14  and  C_15
REMARK    9  A    between atoms: N_17  and  C_18
REMARK                            x       y       z     vdW  Elec       q    Type
REMARK                         _______ _______ _______ _____ _____    ______ ____
ROOT
ATOM      1  C   UNL     1       8.361   8.595  18.239  0.00  0.00    +0.000 A 
ATOM      2  N   UNL     1       7.674   8.567  17.116  0.00  0.00    +0.000 NA
ATOM      3  N   UNL     1       7.238   7.267  16.959  0.00  0.00    +0.000 NA
ATOM      4  C   UNL     1       7.684   6.583  17.993  0.00  0.00    +0.000 A 
ATOM      5  O   UNL     1       8.428   7.363  18.845  0.00  0.00    +0.000 OA
ENDROOT
BRANCH   1   6
ATOM      6  C   UNL     1       9.154   9.708  18.829  0.00  0.00    +0.000 C 
BRANCH   6   7
ATOM      7  O   UNL     1       8.754  10.930  18.199  0.00  0.00    +0.000 OA
BRANCH   7  11
ATOM      8  C   UNL     1      11.544  14.032  17.889  0.00  0.00    +0.000 A 
ATOM      9  C   UNL     1      10.176  14.245  17.716  0.00  0.00    +0.000 A 
ATOM     10  C   UNL     1       9.272  13.184  17.827  0.00  0.00    +0.000 A 
ATOM     11  C   UNL     1       9.724  11.887  18.076  0.00  0.00    +0.000 A 
ATOM     12  C   UNL     1      11.096  11.671  18.227  0.00  0.00    +0.000 A 
ATOM     13  C   UNL     1      12.003  12.739  18.133  0.00  0.00    +0.000 A 
BRANCH   8  15
ATOM     14  C   UNL     1      11.704  16.286  17.198  0.00  0.00    +0.000 C 
ATOM     15  O   UNL     1      12.333  15.143  17.766  0.00  0.00    +0.000 OA
ENDBRANCH   8  15
ENDBRANCH   7  11
ENDBRANCH   6   7
ENDBRANCH   1   6
BRANCH   4  16
ATOM     16  S   UNL     1       7.522   4.856  18.134  0.00  0.00    +0.000 S 
BRANCH  16  17
ATOM     17  C   UNL     1       5.921   4.560  17.351  0.00  0.00    +0.000 C 
BRANCH  17  18
ATOM     18  C   UNL     1       4.792   4.945  18.284  0.00  0.00    +0.000 C 
ATOM     19  O   UNL     1       4.418   6.105  18.405  0.00  0.00    +0.000 OA
ATOM     20  N   UNL     1       4.213   3.887  18.958  0.00  0.00    +0.000 N 
ATOM     21  H   UNL     1       4.718   3.010  18.984  0.00  0.00    +0.000 HD
BRANCH  20  22
ATOM     22  C   UNL     1       3.155   4.108  19.924  0.00  0.00    +0.000 C 
ATOM     23  C   UNL     1       2.801   2.834  20.724  0.00  0.00    +0.000 C 
ATOM     24  C   UNL     1       1.298   2.657  20.447  0.00  0.00    +0.000 C 
ATOM     25  C   UNL     1       1.110   2.218  18.984  0.00  0.00    +0.000 C 
ATOM     26  C   UNL     1       1.389   3.505  18.197  0.00  0.00    +0.000 C 
ATOM     27  C   UNL     1       1.790   4.500  19.301  0.00  0.00    +0.000 C 
ATOM     28  C   UNL     1       0.816   4.107  20.414  0.00  0.00    +0.000 C 
ENDBRANCH  20  22
ENDBRANCH  17  18
ENDBRANCH  16  17
ENDBRANCH   4  16
TORSDOF 8
ENDMDL
MODEL 2
REMARK VINA RESULT:      -7.9      5.909      7.764
REMARK  Name = 
REMARK  9 active torsions:
REMARK  status: ('A' for Active; 'I' for Inactive)
REMARK    1  A    between atoms: C_1  and  O_2
REMARK    2  A    between atoms: O_2  and  C_3
REMARK    3  A    between atoms: C_6  and  O_7
REMARK    4  A    between atoms: O_7  and  C_8
REMARK    5  A    between atoms: C_8  and  C_9
REMARK    6  A    between atoms: C_12  and  S_13
REMARK    7  A    between atoms: S_13  and  C_14
REMARK    8  A    between atoms: C_14  and  C_15
REMARK    9  A    between atoms: N_17  and  C_18
REMARK                            x       y       z     vdW  Elec       q    Type
REMARK                         _______ _______ _______ _____ _____    ______ ____
ROOT
ATOM      1  C   UNL     1       2.284   4.442  21.105  0.00  0.00    +0.000 A 
ATOM      2  N   UNL     1       2.073   3.560  22.059  0.00  0.00    +0.000 NA
ATOM      3  N   UNL     1       2.901   2.489  21.789  0.00  0.00    +0.000 NA
ATOM      4  C   UNL     1       3.566   2.783  20.691  0.00  0.00    +0.000 A 
ATOM      5  O   UNL     1       3.210   4.009  20.184  0.00  0.00    +0.000 OA
ENDROOT
BRANCH   1   6
ATOM      6  C   UNL     1       1.577   5.724  20.836  0.00  0.00    +0.000 C 
BRANCH   6   7
ATOM      7  O   UNL     1       2.279   6.417  19.798  0.00  0.00    +0.000 OA
BRANCH   7  11
ATOM      8  C   UNL     1       1.173  10.435  19.430  0.00  0.00    +0.000 A 
ATOM      9  C   UNL     1       0.887   9.689  20.574  0.00  0.00    +0.000 A 
ATOM     10  C   UNL     1       1.272   8.347  20.663  0.00  0.00    +0.000 A 
ATOM     11  C   UNL     1       1.916   7.721  19.595  0.00  0.00    +0.000 A 
ATOM     12  C   UNL     1       2.182   8.462  18.441  0.00  0.00    +0.000 A 
ATOM     13  C   UNL     1       1.811   9.814  18.358  0.00  0.00    +0.000 A 
BRANCH   8  15
ATOM     14  C   UNL     1       1.193  12.549  18.374  0.00  0.00    +0.000 C 
ATOM     15  O   UNL     1       0.756  11.738  19.458  0.00  0.00    +0.000 OA
ENDBRANCH   8  15
ENDBRANCH   7  11
ENDBRANCH   6   7
ENDBRANCH   1   6
BRANCH   4  16
ATOM     16  S   UNL     1       4.606   1.651  19.877  0.00  0.00    +0.000 S 
BRANCH  16  17
ATOM     17  C   UNL     1       3.625   1.207  18.427  0.00  0.00    +0.000 C 
BRANCH  17  18
ATOM     18  C   UNL     1       3.458   2.401  17.510  0.00  0.00    +0.000 C 
ATOM     19  O   UNL     1       2.375   2.692  17.016  0.00  0.00    +0.000 OA
ATOM     20  N   UNL     1       4.608   3.136  17.301  0.00  0.00    +0.000 N 
ATOM     21  H   UNL     1       5.493   2.709  17.547  0.00  0.00    +0.000 HD
BRANCH  20  22
ATOM     22  C   UNL     1       4.613   4.275  16.406  0.00  0.00    +0.000 C 
ATOM     23  C   UNL     1       5.929   4.402  15.606  0.00  0.00    +0.000 C 
ATOM     24  C   UNL     1       6.422   5.813  15.972  0.00  0.00    +0.000 C 
ATOM     25  C   UNL     1       6.898   5.811  17.435  0.00  0.00    +0.000 C 
ATOM     26  C   UNL     1       5.584   5.761  18.226  0.00  0.00    +0.000 C 
ATOM     27  C   UNL     1       4.522   5.650  17.117  0.00  0.00    +0.000 C 
ATOM     28  C   UNL     1       5.108   6.587  16.059  0.00  0.00    +0.000 C 
ENDBRANCH  20  22
ENDBRANCH  17  18
ENDBRANCH  16  17
ENDBRANCH   4  16
TORSDOF 8
ENDMDL
MODEL 3
REMARK VINA RESULT:      -7.8      1.811      2.167
REMARK  Name = 
REMARK  9 active torsions:
REMARK  status: ('A' for Active; 'I' for Inactive)
REMARK    1  A    between atoms: C_1  and  O_2
REMARK    2  A    between atoms: O_2  and  C_3
REMARK    3  A    between atoms: C_6  and  O_7
REMARK    4  A    between atoms: O_7  and  C_8
REMARK    5  A    between atoms: C_8  and  C_9
REMARK    6  A    between atoms: C_12  and  S_13
REMARK    7  A    between atoms: S_13  and  C_14
REMARK    8  A    between atoms: C_14  and  C_15
REMARK    9  A    between atoms: N_17  and  C_18
REMARK                            x       y       z     vdW  Elec       q    Type
REMARK                         _______ _______ _______ _____ _____    ______ ____
ROOT
ATOM      1  C   UNL     1       7.837   7.885  17.840  0.00  0.00    +0.000 A 
ATOM      2  N   UNL     1       8.164   7.073  18.823  0.00  0.00    +0.000 NA
ATOM      3  N   UNL     1       7.867   5.797  18.390  0.00  0.00    +0.000 NA
ATOM      4  C   UNL     1       7.380   5.908  17.171  0.00  0.00    +0.000 A 
ATOM      5  O   UNL     1       7.312   7.216  16.759  0.00  0.00    +0.000 OA
ENDROOT
BRANCH   1   6
ATOM      6  C   UNL     1       7.834   9.373  17.810  0.00  0.00    +0.000 C 
BRANCH   6   7
ATOM      7  O   UNL     1       9.189   9.828  17.879  0.00  0.00    +0.000 OA
BRANCH   7  11
ATOM      8  C   UNL     1       9.976  12.969  20.527  0.00  0.00    +0.000 A 
ATOM      9  C   UNL     1       9.694  11.678  20.973  0.00  0.00    +0.000 A 
ATOM     10  C   UNL     1       9.435  10.651  20.058  0.00  0.00    +0.000 A 
ATOM     11  C   UNL     1       9.419  10.908  18.687  0.00  0.00    +0.000 A 
ATOM     12  C   UNL     1       9.680  12.207  18.242  0.00  0.00    +0.000 A 
ATOM     13  C   UNL     1       9.956  13.235  19.159  0.00  0.00    +0.000 A 
BRANCH   8  15
ATOM     14  C   UNL     1       9.557  15.140  21.362  0.00  0.00    +0.000 C 
ATOM     15  O   UNL     1      10.220  13.890  21.510  0.00  0.00    +0.000 OA
ENDBRANCH   8  15
ENDBRANCH   7  11
ENDBRANCH   6   7
ENDBRANCH   1   6
BRANCH   4  16
ATOM     16  S   UNL     1       6.709   4.566  16.289  0.00  0.00    +0.000 S 
BRANCH  16  17
ATOM     17  C   UNL     1       5.016   5.117  15.988  0.00  0.00    +0.000 C 
BRANCH  17  18
ATOM     18  C   UNL     1       4.298   5.376  17.295  0.00  0.00    +0.000 C 
ATOM     19  O   UNL     1       4.055   6.511  17.688  0.00  0.00    +0.000 OA
ATOM     20  N   UNL     1       3.925   4.239  17.985  0.00  0.00    +0.000 N 
ATOM     21  H   UNL     1       4.358   3.362  17.721  0.00  0.00    +0.000 HD
BRANCH  20  22
ATOM     22  C   UNL     1       3.276   4.330  19.278  0.00  0.00    +0.000 C 
ATOM     23  C   UNL     1       3.436   3.044  20.120  0.00  0.00    +0.000 C 
ATOM     24  C   UNL     1       1.981   2.636  20.411  0.00  0.00    +0.000 C 
ATOM     25  C   UNL     1       1.337   2.128  19.109  0.00  0.00    +0.000 C 
ATOM     26  C   UNL     1       1.111   3.417  18.308  0.00  0.00    +0.000 C 
ATOM     27  C   UNL     1       1.736   4.495  19.212  0.00  0.00    +0.000 C 
ATOM     28  C   UNL     1       1.310   3.996  20.595  0.00  0.00    +0.000 C 
ENDBRANCH  20  22
ENDBRANCH  17  18
ENDBRANCH  16  17
ENDBRANCH   4  16
TORSDOF 8
ENDMDL
MODEL 4
REMARK VINA RESULT:      -7.8      6.016      7.837
REMARK  Name = 
REMARK  9 active torsions:
REMARK  status: ('A' for Active; 'I' for Inactive)
REMARK    1  A    between atoms: C_1  and  O_2
REMARK    2  A    between atoms: O_2  and  C_3
REMARK    3  A    between atoms: C_6  and  O_7
REMARK    4  A    between atoms: O_7  and  C_8
REMARK    5  A    between atoms: C_8  and  C_9
REMARK    6  A    between atoms: C_12  and  S_13
REMARK    7  A    between atoms: S_13  and  C_14
REMARK    8  A    between atoms: C_14  and  C_15
REMARK    9  A    between atoms: N_17  and  C_18
REMARK                            x       y       z     vdW  Elec       q    Type
REMARK                         _______ _______ _______ _____ _____    ______ ____
ROOT
ATOM      1  C   UNL     1       2.272   5.605  20.202  0.00  0.00    +0.000 A 
ATOM      2  N   UNL     1       1.287   4.854  20.650  0.00  0.00    +0.000 NA
ATOM      3  N   UNL     1       1.801   3.581  20.789  0.00  0.00    +0.000 NA
ATOM      4  C   UNL     1       3.065   3.633  20.421  0.00  0.00    +0.000 A 
ATOM      5  O   UNL     1       3.432   4.892  20.014  0.00  0.00    +0.000 OA
ENDROOT
BRANCH   1   6
ATOM      6  C   UNL     1       2.245   7.027  19.765  0.00  0.00    +0.000 C 
BRANCH   6   7
ATOM      7  O   UNL     1       1.391   7.756  20.651  0.00  0.00    +0.000 OA
BRANCH   7  11
ATOM      8  C   UNL     1       0.590  11.767  19.773  0.00  0.00    +0.000 A 
ATOM      9  C   UNL     1       0.527  11.267  21.074  0.00  0.00    +0.000 A 
ATOM     10  C   UNL     1       0.802   9.919  21.330  0.00  0.00    +0.000 A 
ATOM     11  C   UNL     1       1.107   9.045  20.287  0.00  0.00    +0.000 A 
ATOM     12  C   UNL     1       1.146   9.542  18.982  0.00  0.00    +0.000 A 
ATOM     13  C   UNL     1       0.888  10.898  18.725  0.00  0.00    +0.000 A 
BRANCH   8  15
ATOM     14  C   UNL     1      -0.366  13.474  18.446  0.00  0.00    +0.000 C 
ATOM     15  O   UNL     1       0.309  13.100  19.641  0.00  0.00    +0.000 OA
ENDBRANCH   8  15
ENDBRANCH   7  11
ENDBRANCH   6   7
ENDBRANCH   1   6
BRANCH   4  16
ATOM     16  S   UNL     1       4.071   2.221  20.270  0.00  0.00    +0.000 S 
BRANCH  16  17
ATOM     17  C   UNL     1       3.461   1.481  18.740  0.00  0.00    +0.000 C 
BRANCH  17  18
ATOM     18  C   UNL     1       3.367   2.521  17.644  0.00  0.00    +0.000 C 
ATOM     19  O   UNL     1       2.307   2.786  17.091  0.00  0.00    +0.000 OA
ATOM     20  N   UNL     1       4.558   3.152  17.343  0.00  0.00    +0.000 N 
ATOM     21  H   UNL     1       5.416   2.724  17.669  0.00  0.00    +0.000 HD
BRANCH  20  22
ATOM     22  C   UNL     1       4.634   4.134  16.279  0.00  0.00    +0.000 C 
ATOM     23  C   UNL     1       5.896   3.971  15.403  0.00  0.00    +0.000 C 
ATOM     24  C   UNL     1       6.576   5.347  15.515  0.00  0.00    +0.000 C 
ATOM     25  C   UNL     1       7.149   5.505  16.934  0.00  0.00    +0.000 C 
ATOM     26  C   UNL     1       5.897   5.742  17.789  0.00  0.00    +0.000 C 
ATOM     27  C   UNL     1       4.755   5.601  16.768  0.00  0.00    +0.000 C 
ATOM     28  C   UNL     1       5.371   6.286  15.546  0.00  0.00    +0.000 C 
ENDBRANCH  20  22
ENDBRANCH  17  18
ENDBRANCH  16  17
ENDBRANCH   4  16
TORSDOF 8
ENDMDL
MODEL 5
REMARK VINA RESULT:      -7.8      5.960      8.374
REMARK  Name = 
REMARK  9 active torsions:
REMARK  status: ('A' for Active; 'I' for Inactive)
REMARK    1  A    between atoms: C_1  and  O_2
REMARK    2  A    between atoms: O_2  and  C_3
REMARK    3  A    between atoms: C_6  and  O_7
REMARK    4  A    between atoms: O_7  and  C_8
REMARK    5  A    between atoms: C_8  and  C_9
REMARK    6  A    between atoms: C_12  and  S_13
REMARK    7  A    between atoms: S_13  and  C_14
REMARK    8  A    between atoms: C_14  and  C_15
REMARK    9  A    between atoms: N_17  and  C_18
REMARK                            x       y       z     vdW  Elec       q    Type
REMARK                         _______ _______ _______ _____ _____    ______ ____
ROOT
ATOM      1  C   UNL     1       1.931   6.163  19.302  0.00  0.00    +0.000 A 
ATOM      2  N   UNL     1       1.925   5.895  18.013  0.00  0.00    +0.000 NA
ATOM      3  N   UNL     1       1.794   4.526  17.901  0.00  0.00    +0.000 NA
ATOM      4  C   UNL     1       1.727   4.044  19.125  0.00  0.00    +0.000 A 
ATOM      5  O   UNL     1       1.827   5.031  20.075  0.00  0.00    +0.000 OA
ENDROOT
BRANCH   1   6
ATOM      6  C   UNL     1       2.165   7.462  19.991  0.00  0.00    +0.000 C 
BRANCH   6   7
ATOM      7  O   UNL     1       1.297   7.532  21.127  0.00  0.00    +0.000 OA
BRANCH   7  11
ATOM      8  C   UNL     1      -0.676  11.201  21.504  0.00  0.00    +0.000 A 
ATOM      9  C   UNL     1      -0.124  10.778  20.295  0.00  0.00    +0.000 A 
ATOM     10  C   UNL     1       0.529   9.544  20.206  0.00  0.00    +0.000 A 
ATOM     11  C   UNL     1       0.672   8.732  21.332  0.00  0.00    +0.000 A 
ATOM     12  C   UNL     1       0.139   9.167  22.547  0.00  0.00    +0.000 A 
ATOM     13  C   UNL     1      -0.532  10.398  22.635  0.00  0.00    +0.000 A 
BRANCH   8  15
ATOM     14  C   UNL     1      -1.541  12.955  20.177  0.00  0.00    +0.000 C 
ATOM     15  O   UNL     1      -1.297  12.420  21.473  0.00  0.00    +0.000 OA
ENDBRANCH   8  15
ENDBRANCH   7  11
ENDBRANCH   6   7
ENDBRANCH   1   6
BRANCH   4  16
ATOM     16  S   UNL     1       1.728   2.340  19.477  0.00  0.00    +0.000 S 
BRANCH  16  17
ATOM     17  C   UNL     1       3.189   1.768  18.583  0.00  0.00    +0.000 C 
BRANCH  17  18
ATOM     18  C   UNL     1       4.375   2.665  18.868  0.00  0.00    +0.000 C 
ATOM     19  O   UNL     1       4.925   2.684  19.963  0.00  0.00    +0.000 OA
ATOM     20  N   UNL     1       4.792   3.430  17.797  0.00  0.00    +0.000 N 
ATOM     21  H   UNL     1       4.158   3.533  17.013  0.00  0.00    +0.000 HD
BRANCH  20  22
ATOM     22  C   UNL     1       5.883   4.375  17.934  0.00  0.00    +0.000 C 
ATOM     23  C   UNL     1       5.413   5.765  18.420  0.00  0.00    +0.000 C 
ATOM     24  C   UNL     1       5.913   6.707  17.311  0.00  0.00    +0.000 C 
ATOM     25  C   UNL     1       5.073   6.474  16.043  0.00  0.00    +0.000 C 
ATOM     26  C   UNL     1       5.597   5.128  15.523  0.00  0.00    +0.000 C 
ATOM     27  C   UNL     1       6.609   4.714  16.606  0.00  0.00    +0.000 C 
ATOM     28  C   UNL     1       7.248   6.064  16.937  0.00  0.00    +0.000 C 
ENDBRANCH  20  22
ENDBRANCH  17  18
ENDBRANCH  16  17
ENDBRANCH   4  16
TORSDOF 8
ENDMDL
MODEL 6
REMARK VINA RESULT:      -7.8      1.400      1.760
REMARK  Name = 
REMARK  9 active torsions:
REMARK  status: ('A' for Active; 'I' for Inactive)
REMARK    1  A    between atoms: C_1  and  O_2
REMARK    2  A    between atoms: O_2  and  C_3
REMARK    3  A    between atoms: C_6  and  O_7
REMARK    4  A    between atoms: O_7  and  C_8
REMARK    5  A    between atoms: C_8  and  C_9
REMARK    6  A    between atoms: C_12  and  S_13
REMARK    7  A    between atoms: S_13  and  C_14
REMARK    8  A    between atoms: C_14  and  C_15
REMARK    9  A    between atoms: N_17  and  C_18
REMARK                            x       y       z     vdW  Elec       q    Type
REMARK                         _______ _______ _______ _____ _____    ______ ____
ROOT
ATOM      1  C   UNL     1       8.272   8.671  18.304  0.00  0.00    +0.000 A 
ATOM      2  N   UNL     1       7.496   8.676  17.241  0.00  0.00    +0.000 NA
ATOM      3  N   UNL     1       7.090   7.371  17.050  0.00  0.00    +0.000 NA
ATOM      4  C   UNL     1       7.639   6.652  18.007  0.00  0.00    +0.000 A 
ATOM      5  O   UNL     1       8.426   7.413  18.837  0.00  0.00    +0.000 OA
ENDROOT
BRANCH   1   6
ATOM      6  C   UNL     1       9.075   9.781  18.888  0.00  0.00    +0.000 C 
BRANCH   6   7
ATOM      7  O   UNL     1       9.629  10.550  17.815  0.00  0.00    +0.000 OA
BRANCH   7  11
ATOM      8  C   UNL     1      10.668  14.484  18.785  0.00  0.00    +0.000 A 
ATOM      9  C   UNL     1       9.516  14.179  18.061  0.00  0.00    +0.000 A 
ATOM     10  C   UNL     1       9.199  12.851  17.755  0.00  0.00    +0.000 A 
ATOM     11  C   UNL     1      10.048  11.812  18.136  0.00  0.00    +0.000 A 
ATOM     12  C   UNL     1      11.214  12.120  18.841  0.00  0.00    +0.000 A 
ATOM     13  C   UNL     1      11.525  13.452  19.164  0.00  0.00    +0.000 A 
BRANCH   8  15
ATOM     14  C   UNL     1      10.016  16.399  20.006  0.00  0.00    +0.000 C 
ATOM     15  O   UNL     1      10.873  15.814  19.033  0.00  0.00    +0.000 OA
ENDBRANCH   8  15
ENDBRANCH   7  11
ENDBRANCH   6   7
ENDBRANCH   1   6
BRANCH   4  16
ATOM     16  S   UNL     1       7.542   4.916  18.069  0.00  0.00    +0.000 S 
BRANCH  16  17
ATOM     17  C   UNL     1       7.026   4.505  16.387  0.00  0.00    +0.000 C 
BRANCH  17  18
ATOM     18  C   UNL     1       5.516   4.466  16.286  0.00  0.00    +0.000 C 
ATOM     19  O   UNL     1       4.938   4.447  15.206  0.00  0.00    +0.000 OA
ATOM     20  N   UNL     1       4.856   4.432  17.499  0.00  0.00    +0.000 N 
ATOM     21  H   UNL     1       5.379   4.683  18.330  0.00  0.00    +0.000 HD
BRANCH  20  22
ATOM     22  C   UNL     1       3.408   4.446  17.561  0.00  0.00    +0.000 C 
ATOM     23  C   UNL     1       2.872   5.009  18.897  0.00  0.00    +0.000 C 
ATOM     24  C   UNL     1       1.997   3.861  19.431  0.00  0.00    +0.000 C 
ATOM     25  C   UNL     1       2.911   2.706  19.877  0.00  0.00    +0.000 C 
ATOM     26  C   UNL     1       3.381   2.103  18.547  0.00  0.00    +0.000 C 
ATOM     27  C   UNL     1       2.750   3.043  17.504  0.00  0.00    +0.000 C 
ATOM     28  C   UNL     1       1.387   3.312  18.143  0.00  0.00    +0.000 C 
ENDBRANCH  20  22
ENDBRANCH  17  18
ENDBRANCH  16  17
ENDBRANCH   4  16
TORSDOF 8
ENDMDL
MODEL 7
REMARK VINA RESULT:      -7.7      5.780      8.386
REMARK  Name = 
REMARK  9 active torsions:
REMARK  status: ('A' for Active; 'I' for Inactive)
REMARK    1  A    between atoms: C_1  and  O_2
REMARK    2  A    between atoms: O_2  and  C_3
REMARK    3  A    between atoms: C_6  and  O_7
REMARK    4  A    between atoms: O_7  and  C_8
REMARK    5  A    between atoms: C_8  and  C_9
REMARK    6  A    between atoms: C_12  and  S_13
REMARK    7  A    between atoms: S_13  and  C_14
REMARK    8  A    between atoms: C_14  and  C_15
REMARK    9  A    between atoms: N_17  and  C_18
REMARK                            x       y       z     vdW  Elec       q    Type
REMARK                         _______ _______ _______ _____ _____    ______ ____
ROOT
ATOM      1  C   UNL     1       1.956   6.201  19.433  0.00  0.00    +0.000 A 
ATOM      2  N   UNL     1       1.995   5.928  18.145  0.00  0.00    +0.000 NA
ATOM      3  N   UNL     1       1.870   4.559  18.034  0.00  0.00    +0.000 NA
ATOM      4  C   UNL     1       1.761   4.081  19.257  0.00  0.00    +0.000 A 
ATOM      5  O   UNL     1       1.828   5.072  20.206  0.00  0.00    +0.000 OA
ENDROOT
BRANCH   1   6
ATOM      6  C   UNL     1       2.165   7.503  20.125  0.00  0.00    +0.000 C 
BRANCH   6   7
ATOM      7  O   UNL     1       2.061   8.551  19.156  0.00  0.00    +0.000 OA
BRANCH   7  11
ATOM      8  C   UNL     1      -1.281  11.057  19.375  0.00  0.00    +0.000 A 
ATOM      9  C   UNL     1      -0.771  10.607  18.157  0.00  0.00    +0.000 A 
ATOM     10  C   UNL     1       0.349   9.769  18.122  0.00  0.00    +0.000 A 
ATOM     11  C   UNL     1       0.997   9.399  19.301  0.00  0.00    +0.000 A 
ATOM     12  C   UNL     1       0.499   9.869  20.518  0.00  0.00    +0.000 A 
ATOM     13  C   UNL     1      -0.635  10.696  20.557  0.00  0.00    +0.000 A 
BRANCH   8  15
ATOM     14  C   UNL     1      -3.327  11.514  18.285  0.00  0.00    +0.000 C 
ATOM     15  O   UNL     1      -2.382  11.865  19.289  0.00  0.00    +0.000 OA
ENDBRANCH   8  15
ENDBRANCH   7  11
ENDBRANCH   6   7
ENDBRANCH   1   6
BRANCH   4  16
ATOM     16  S   UNL     1       1.752   2.378  19.616  0.00  0.00    +0.000 S 
BRANCH  16  17
ATOM     17  C   UNL     1       3.178   1.785  18.680  0.00  0.00    +0.000 C 
BRANCH  17  18
ATOM     18  C   UNL     1       4.384   2.668  18.926  0.00  0.00    +0.000 C 
ATOM     19  O   UNL     1       4.955   2.697  20.010  0.00  0.00    +0.000 OA
ATOM     20  N   UNL     1       4.792   3.408  17.834  0.00  0.00    +0.000 N 
ATOM     21  H   UNL     1       4.144   3.507  17.061  0.00  0.00    +0.000 HD
BRANCH  20  22
ATOM     22  C   UNL     1       5.899   4.337  17.934  0.00  0.00    +0.000 C 
ATOM     23  C   UNL     1       5.460   5.743  18.401  0.00  0.00    +0.000 C 
ATOM     24  C   UNL     1       5.955   6.656  17.266  0.00  0.00    +0.000 C 
ATOM     25  C   UNL     1       5.088   6.413  16.018  0.00  0.00    +0.000 C 
ATOM     26  C   UNL     1       5.580   5.050  15.515  0.00  0.00    +0.000 C 
ATOM     27  C   UNL     1       6.606   4.640  16.587  0.00  0.00    +0.000 C 
ATOM     28  C   UNL     1       7.272   5.985  16.880  0.00  0.00    +0.000 C 
ENDBRANCH  20  22
ENDBRANCH  17  18
ENDBRANCH  16  17
ENDBRANCH   4  16
TORSDOF 8
ENDMDL
MODEL 8
REMARK VINA RESULT:      -7.7      5.969      8.304
REMARK  Name = 
REMARK  9 active torsions:
REMARK  status: ('A' for Active; 'I' for Inactive)
REMARK    1  A    between atoms: C_1  and  O_2
REMARK    2  A    between atoms: O_2  and  C_3
REMARK    3  A    between atoms: C_6  and  O_7
REMARK    4  A    between atoms: O_7  and  C_8
REMARK    5  A    between atoms: C_8  and  C_9
REMARK    6  A    between atoms: C_12  and  S_13
REMARK    7  A    between atoms: S_13  and  C_14
REMARK    8  A    between atoms: C_14  and  C_15
REMARK    9  A    between atoms: N_17  and  C_18
REMARK                            x       y       z     vdW  Elec       q    Type
REMARK                         _______ _______ _______ _____ _____    ______ ____
ROOT
ATOM      1  C   UNL     1       2.067   5.791  20.046  0.00  0.00    +0.000 A 
ATOM      2  N   UNL     1       1.880   5.129  21.169  0.00  0.00    +0.000 NA
ATOM      3  N   UNL     1       1.761   3.799  20.821  0.00  0.00    +0.000 NA
ATOM      4  C   UNL     1       1.883   3.730  19.511  0.00  0.00    +0.000 A 
ATOM      5  O   UNL     1       2.062   4.968  18.944  0.00  0.00    +0.000 OA
ENDROOT
BRANCH   1   6
ATOM      6  C   UNL     1       2.138   7.261  19.821  0.00  0.00    +0.000 C 
BRANCH   6   7
ATOM      7  O   UNL     1       1.510   7.917  20.927  0.00  0.00    +0.000 OA
BRANCH   7  11
ATOM      8  C   UNL     1      -0.507  11.404  19.799  0.00  0.00    +0.000 A 
ATOM      9  C   UNL     1       0.326  10.713  18.919  0.00  0.00    +0.000 A 
ATOM     10  C   UNL     1       0.985   9.550  19.331  0.00  0.00    +0.000 A 
ATOM     11  C   UNL     1       0.850   9.081  20.638  0.00  0.00    +0.000 A 
ATOM     12  C   UNL     1       0.033   9.786  21.525  0.00  0.00    +0.000 A 
ATOM     13  C   UNL     1      -0.643  10.945  21.108  0.00  0.00    +0.000 A 
BRANCH   8  15
ATOM     14  C   UNL     1      -1.868  13.293  20.209  0.00  0.00    +0.000 C 
ATOM     15  O   UNL     1      -1.105  12.523  19.286  0.00  0.00    +0.000 OA
ENDBRANCH   8  15
ENDBRANCH   7  11
ENDBRANCH   6   7
ENDBRANCH   1   6
BRANCH   4  16
ATOM     16  S   UNL     1       1.631   2.265  18.608  0.00  0.00    +0.000 S 
BRANCH  16  17
ATOM     17  C   UNL     1       3.289   1.551  18.570  0.00  0.00    +0.000 C 
BRANCH  17  18
ATOM     18  C   UNL     1       4.335   2.616  18.824  0.00  0.00    +0.000 C 
ATOM     19  O   UNL     1       4.903   2.722  19.905  0.00  0.00    +0.000 OA
ATOM     20  N   UNL     1       4.606   3.430  17.743  0.00  0.00    +0.000 N 
ATOM     21  H   UNL     1       3.945   3.434  16.976  0.00  0.00    +0.000 HD
BRANCH  20  22
ATOM     22  C   UNL     1       5.547   4.528  17.852  0.00  0.00    +0.000 C 
ATOM     23  C   UNL     1       4.918   5.893  17.493  0.00  0.00    +0.000 C 
ATOM     24  C   UNL     1       5.821   6.402  16.356  0.00  0.00    +0.000 C 
ATOM     25  C   UNL     1       5.564   5.554  15.098  0.00  0.00    +0.000 C 
ATOM     26  C   UNL     1       6.255   4.225  15.430  0.00  0.00    +0.000 C 
ATOM     27  C   UNL     1       6.745   4.445  16.872  0.00  0.00    +0.000 C 
ATOM     28  C   UNL     1       7.194   5.906  16.805  0.00  0.00    +0.000 C 
ENDBRANCH  20  22
ENDBRANCH  17  18
ENDBRANCH  16  17
ENDBRANCH   4  16
TORSDOF 8
ENDMDL
MODEL 9
REMARK VINA RESULT:      -7.7      0.892      1.199
REMARK  Name = 
REMARK  9 active torsions:
REMARK  status: ('A' for Active; 'I' for Inactive)
REMARK    1  A    between atoms: C_1  and  O_2
REMARK    2  A    between atoms: O_2  and  C_3
REMARK    3  A    between atoms: C_6  and  O_7
REMARK    4  A    between atoms: O_7  and  C_8
REMARK    5  A    between atoms: C_8  and  C_9
REMARK    6  A    between atoms: C_12  and  S_13
REMARK    7  A    between atoms: S_13  and  C_14
REMARK    8  A    between atoms: C_14  and  C_15
REMARK    9  A    between atoms: N_17  and  C_18
REMARK                            x       y       z     vdW  Elec       q    Type
REMARK                         _______ _______ _______ _____ _____    ______ ____
ROOT
ATOM      1  C   UNL     1       8.320   8.446  18.292  0.00  0.00    +0.000 A 
ATOM      2  N   UNL     1       7.747   8.586  17.115  0.00  0.00    +0.000 NA
ATOM      3  N   UNL     1       7.174   7.368  16.814  0.00  0.00    +0.000 NA
ATOM      4  C   UNL     1       7.430   6.561  17.823  0.00  0.00    +0.000 A 
ATOM      5  O   UNL     1       8.177   7.176  18.799  0.00  0.00    +0.000 OA
ENDROOT
BRANCH   1   6
ATOM      6  C   UNL     1       9.180   9.404  19.039  0.00  0.00    +0.000 C 
BRANCH   6   7
ATOM      7  O   UNL     1       8.583  10.702  18.961  0.00  0.00    +0.000 OA
BRANCH   7  11
ATOM      8  C   UNL     1      11.140  13.970  18.428  0.00  0.00    +0.000 A 
ATOM      9  C   UNL     1      10.052  14.015  19.301  0.00  0.00    +0.000 A 
ATOM     10  C   UNL     1       9.218  12.902  19.454  0.00  0.00    +0.000 A 
ATOM     11  C   UNL     1       9.437  11.742  18.711  0.00  0.00    +0.000 A 
ATOM     12  C   UNL     1      10.513  11.706  17.821  0.00  0.00    +0.000 A 
ATOM     13  C   UNL     1      11.361  12.817  17.678  0.00  0.00    +0.000 A 
BRANCH   8  15
ATOM     14  C   UNL     1      12.223  15.560  17.056  0.00  0.00    +0.000 C 
ATOM     15  O   UNL     1      11.890  15.113  18.365  0.00  0.00    +0.000 OA
ENDBRANCH   8  15
ENDBRANCH   7  11
ENDBRANCH   6   7
ENDBRANCH   1   6
BRANCH   4  16
ATOM     16  S   UNL     1       7.046   4.864  17.807  0.00  0.00    +0.000 S 
BRANCH  16  17
ATOM     17  C   UNL     1       5.661   4.799  16.649  0.00  0.00    +0.000 C 
BRANCH  17  18
ATOM     18  C   UNL     1       4.382   5.252  17.321  0.00  0.00    +0.000 C 
ATOM     19  O   UNL     1       3.972   6.403  17.226  0.00  0.00    +0.000 OA
ATOM     20  N   UNL     1       3.715   4.266  18.021  0.00  0.00    +0.000 N 
ATOM     21  H   UNL     1       4.224   3.419  18.246  0.00  0.00    +0.000 HD
BRANCH  20  22
ATOM     22  C   UNL     1       2.504   4.563  18.759  0.00  0.00    +0.000 C 
ATOM     23  C   UNL     1       2.785   5.080  20.188  0.00  0.00    +0.000 C 
ATOM     24  C   UNL     1       2.021   4.081  21.074  0.00  0.00    +0.000 C 
ATOM     25  C   UNL     1       2.749   2.726  21.040  0.00  0.00    +0.000 C 
ATOM     26  C   UNL     1       2.404   2.183  19.646  0.00  0.00    +0.000 C 
ATOM     27  C   UNL     1       1.595   3.334  19.022  0.00  0.00    +0.000 C 
ATOM     28  C   UNL     1       0.779   3.803  20.228  0.00  0.00    +0.000 C 
ENDBRANCH  20  22
ENDBRANCH  17  18
ENDBRANCH  16  17
ENDBRANCH   4  16
TORSDOF 8
ENDMDL
