MODEL 1
REMARK VINA RESULT:      -8.3      0.000      0.000
REMARK  Name = 
REMARK  7 active torsions:
REMARK  status: ('A' for Active; 'I' for Inactive)
REMARK    1  A    between atoms: C_1  and  O_2
REMARK    2  A    between atoms: O_2  and  C_3
REMARK    3  A    between atoms: C_3  and  C_5
REMARK    4  A    between atoms: N_9  and  C_10
REMARK    5  A    between atoms: C_13  and  S_14
REMARK    6  A    between atoms: S_14  and  N_15
REMARK    7  A    between atoms: C_20  and  C_21
REMARK                            x       y       z     vdW  Elec       q    Type
REMARK                         _______ _______ _______ _____ _____    ______ ____
ROOT
ATOM      1  C   UNL     1       3.743   3.463  18.528  0.00  0.00    +0.000 C 
ATOM      2  C   UNL     1       3.465   3.353  20.022  0.00  0.00    +0.000 C 
ATOM      3  C   UNL     1       2.746   4.633  20.361  0.00  0.00    +0.000 C 
ATOM      4  O   UNL     1       2.182   4.799  21.432  0.00  0.00    +0.000 OA
ATOM      5  N   UNL     1       2.869   5.513  19.282  0.00  0.00    +0.000 N 
ATOM      6  C   UNL     1       3.731   4.965  18.245  0.00  0.00    +0.000 C 
ENDROOT
BRANCH   6   7
ATOM      7  C   UNL     1       5.131   5.590  18.269  0.00  0.00    +0.000 A 
ATOM      8  C   UNL     1       6.103   5.238  19.227  0.00  0.00    +0.000 A 
ATOM      9  C   UNL     1       7.346   5.872  19.257  0.00  0.00    +0.000 A 
ATOM     10  C   UNL     1       7.637   6.859  18.323  0.00  0.00    +0.000 A 
ATOM     11  F   UNL     1       8.825   7.475  18.361  0.00  0.00    +0.000 F 
ATOM     12  C   UNL     1       6.704   7.217  17.359  0.00  0.00    +0.000 A 
ATOM     13  C   UNL     1       5.458   6.585  17.327  0.00  0.00    +0.000 A 
ENDBRANCH   6   7
BRANCH   5  14
ATOM     14  C   UNL     1       2.355   6.836  19.232  0.00  0.00    +0.000 A 
ATOM     15  C   UNL     1       1.887   7.472  20.390  0.00  0.00    +0.000 A 
ATOM     16  C   UNL     1       1.395   8.776  20.350  0.00  0.00    +0.000 A 
ATOM     17  C   UNL     1       1.357   9.462  19.139  0.00  0.00    +0.000 A 
ATOM     18  C   UNL     1       1.799   8.846  17.966  0.00  0.00    +0.000 A 
ATOM     19  C   UNL     1       2.312   7.548  18.022  0.00  0.00    +0.000 A 
BRANCH  17  20
ATOM     20  S   UNL     1       0.720  11.103  19.090  0.00  0.00    +0.000 S 
ATOM     21  O   UNL     1      -0.549  11.103  18.402  0.00  0.00    +0.000 OA
ATOM     22  O   UNL     1       0.911  11.732  20.373  0.00  0.00    +0.000 OA
BRANCH  20  23
ATOM     23  N   UNL     1       1.813  11.839  18.047  0.00  0.00    +0.000 NA
ATOM     24  H   UNL     1       2.690  12.024  18.534  0.00  0.00    +0.000 HD
ATOM     25  H   UNL     1       1.911  11.285  17.196  0.00  0.00    +0.000 HD
ENDBRANCH  20  23
ENDBRANCH  17  20
ENDBRANCH   5  14
BRANCH   1  26
ATOM     26  C   UNL     1       2.666   2.753  17.727  0.00  0.00    +0.000 C 
ATOM     27  O   UNL     1       2.457   2.912  16.534  0.00  0.00    +0.000 OA
BRANCH  26  29
ATOM     28  C   UNL     1       0.624   2.175  18.727  0.00  0.00    +0.000 C 
ATOM     29  O   UNL     1       2.002   1.858  18.512  0.00  0.00    +0.000 OA
ENDBRANCH  26  29
ENDBRANCH   1  26
TORSDOF 6
ENDMDL
MODEL 2
REMARK VINA RESULT:      -8.3      0.653      1.182
REMARK  Name = 
REMARK  7 active torsions:
REMARK  status: ('A' for Active; 'I' for Inactive)
REMARK    1  A    between atoms: C_1  and  O_2
REMARK    2  A    between atoms: O_2  and  C_3
REMARK    3  A    between atoms: C_3  and  C_5
REMARK    4  A    between atoms: N_9  and  C_10
REMARK    5  A    between atoms: C_13  and  S_14
REMARK    6  A    between atoms: S_14  and  N_15
REMARK    7  A    between atoms: C_20  and  C_21
REMARK                            x       y       z     vdW  Elec       q    Type
REMARK                         _______ _______ _______ _____ _____    ______ ____
ROOT
ATOM      1  C   UNL     1       3.749   3.452  18.528  0.00  0.00    +0.000 C 
ATOM      2  C   UNL     1       3.476   3.334  20.023  0.00  0.00    +0.000 C 
ATOM      3  C   UNL     1       2.752   4.609  20.368  0.00  0.00    +0.000 C 
ATOM      4  O   UNL     1       2.190   4.768  21.442  0.00  0.00    +0.000 OA
ATOM      5  N   UNL     1       2.869   5.495  19.294  0.00  0.00    +0.000 N 
ATOM      6  C   UNL     1       3.731   4.955  18.252  0.00  0.00    +0.000 C 
ENDROOT
BRANCH   6   7
ATOM      7  C   UNL     1       5.129   5.586  18.275  0.00  0.00    +0.000 A 
ATOM      8  C   UNL     1       6.100   5.242  19.236  0.00  0.00    +0.000 A 
ATOM      9  C   UNL     1       7.341   5.881  19.266  0.00  0.00    +0.000 A 
ATOM     10  C   UNL     1       7.629   6.865  18.329  0.00  0.00    +0.000 A 
ATOM     11  F   UNL     1       8.814   7.486  18.365  0.00  0.00    +0.000 F 
ATOM     12  C   UNL     1       6.697   7.215  17.361  0.00  0.00    +0.000 A 
ATOM     13  C   UNL     1       5.453   6.578  17.330  0.00  0.00    +0.000 A 
ENDBRANCH   6   7
BRANCH   5  14
ATOM     14  C   UNL     1       2.349   6.816  19.251  0.00  0.00    +0.000 A 
ATOM     15  C   UNL     1       2.302   7.533  18.047  0.00  0.00    +0.000 A 
ATOM     16  C   UNL     1       1.779   8.825  17.995  0.00  0.00    +0.000 A 
ATOM     17  C   UNL     1       1.302   9.422  19.159  0.00  0.00    +0.000 A 
ATOM     18  C   UNL     1       1.354   8.739  20.375  0.00  0.00    +0.000 A 
ATOM     19  C   UNL     1       1.858   7.436  20.411  0.00  0.00    +0.000 A 
BRANCH  17  20
ATOM     20  S   UNL     1       0.657  11.060  19.093  0.00  0.00    +0.000 S 
ATOM     21  O   UNL     1      -0.040  11.350  20.323  0.00  0.00    +0.000 OA
ATOM     22  O   UNL     1       1.647  11.945  18.531  0.00  0.00    +0.000 OA
BRANCH  20  23
ATOM     23  N   UNL     1      -0.531  10.889  17.917  0.00  0.00    +0.000 NA
ATOM     24  H   UNL     1      -0.176  10.331  17.140  0.00  0.00    +0.000 HD
ATOM     25  H   UNL     1      -1.388  10.529  18.337  0.00  0.00    +0.000 HD
ENDBRANCH  20  23
ENDBRANCH  17  20
ENDBRANCH   5  14
BRANCH   1  26
ATOM     26  C   UNL     1       2.674   2.742  17.727  0.00  0.00    +0.000 C 
ATOM     27  O   UNL     1       2.481   2.883  16.528  0.00  0.00    +0.000 OA
BRANCH  26  29
ATOM     28  C   UNL     1       0.611   2.199  18.703  0.00  0.00    +0.000 C 
ATOM     29  O   UNL     1       1.990   1.868  18.518  0.00  0.00    +0.000 OA
ENDBRANCH  26  29
ENDBRANCH   1  26
TORSDOF 6
ENDMDL
MODEL 3
REMARK VINA RESULT:      -8.0      0.677      1.165
REMARK  Name = 
REMARK  7 active torsions:
REMARK  status: ('A' for Active; 'I' for Inactive)
REMARK    1  A    between atoms: C_1  and  O_2
REMARK    2  A    between atoms: O_2  and  C_3
REMARK    3  A    between atoms: C_3  and  C_5
REMARK    4  A    between atoms: N_9  and  C_10
REMARK    5  A    between atoms: C_13  and  S_14
REMARK    6  A    between atoms: S_14  and  N_15
REMARK    7  A    between atoms: C_20  and  C_21
REMARK                            x       y       z     vdW  Elec       q    Type
REMARK                         _______ _______ _______ _____ _____    ______ ____
ROOT
ATOM      1  C   UNL     1       3.696   3.583  18.497  0.00  0.00    +0.000 C 
ATOM      2  C   UNL     1       3.425   3.431  19.989  0.00  0.00    +0.000 C 
ATOM      3  C   UNL     1       2.680   4.686  20.359  0.00  0.00    +0.000 C 
ATOM      4  O   UNL     1       2.115   4.815  21.436  0.00  0.00    +0.000 OA
ATOM      5  N   UNL     1       2.782   5.595  19.302  0.00  0.00    +0.000 N 
ATOM      6  C   UNL     1       3.652   5.091  18.250  0.00  0.00    +0.000 C 
ENDROOT
BRANCH   6   7
ATOM      7  C   UNL     1       5.039   5.744  18.286  0.00  0.00    +0.000 A 
ATOM      8  C   UNL     1       5.425   6.756  17.385  0.00  0.00    +0.000 A 
ATOM      9  C   UNL     1       6.716   7.286  17.407  0.00  0.00    +0.000 A 
ATOM     10  C   UNL     1       7.635   6.815  18.336  0.00  0.00    +0.000 A 
ATOM     11  F   UNL     1       8.877   7.314  18.348  0.00  0.00    +0.000 F 
ATOM     12  C   UNL     1       7.280   5.828  19.245  0.00  0.00    +0.000 A 
ATOM     13  C   UNL     1       5.988   5.295  19.225  0.00  0.00    +0.000 A 
ENDBRANCH   6   7
BRANCH   5  14
ATOM     14  C   UNL     1       2.239   6.908  19.285  0.00  0.00    +0.000 A 
ATOM     15  C   UNL     1       1.779   7.512  20.463  0.00  0.00    +0.000 A 
ATOM     16  C   UNL     1       1.260   8.807  20.456  0.00  0.00    +0.000 A 
ATOM     17  C   UNL     1       1.186   9.513  19.258  0.00  0.00    +0.000 A 
ATOM     18  C   UNL     1       1.620   8.928  18.067  0.00  0.00    +0.000 A 
ATOM     19  C   UNL     1       2.160   7.640  18.090  0.00  0.00    +0.000 A 
BRANCH  17  20
ATOM     20  S   UNL     1       0.515  11.142  19.250  0.00  0.00    +0.000 S 
ATOM     21  O   UNL     1      -0.337  11.313  20.403  0.00  0.00    +0.000 OA
ATOM     22  O   UNL     1       1.546  12.085  18.896  0.00  0.00    +0.000 OA
BRANCH  20  23
ATOM     23  N   UNL     1      -0.512  11.059  17.923  0.00  0.00    +0.000 NA
ATOM     24  H   UNL     1      -0.028  11.383  17.086  0.00  0.00    +0.000 HD
ATOM     25  H   UNL     1      -0.906  10.121  17.845  0.00  0.00    +0.000 HD
ENDBRANCH  20  23
ENDBRANCH  17  20
ENDBRANCH   5  14
BRANCH   1  26
ATOM     26  C   UNL     1       2.633   2.870  17.682  0.00  0.00    +0.000 C 
ATOM     27  O   UNL     1       2.389   3.084  16.503  0.00  0.00    +0.000 OA
BRANCH  26  29
ATOM     28  C   UNL     1       0.651   2.165  18.722  0.00  0.00    +0.000 C 
ATOM     29  O   UNL     1       2.027   1.905  18.429  0.00  0.00    +0.000 OA
ENDBRANCH  26  29
ENDBRANCH   1  26
TORSDOF 6
ENDMDL
MODEL 4
REMARK VINA RESULT:      -8.0      0.197      1.328
REMARK  Name = 
REMARK  7 active torsions:
REMARK  status: ('A' for Active; 'I' for Inactive)
REMARK    1  A    between atoms: C_1  and  O_2
REMARK    2  A    between atoms: O_2  and  C_3
REMARK    3  A    between atoms: C_3  and  C_5
REMARK    4  A    between atoms: N_9  and  C_10
REMARK    5  A    between atoms: C_13  and  S_14
REMARK    6  A    between atoms: S_14  and  N_15
REMARK    7  A    between atoms: C_20  and  C_21
REMARK                            x       y       z     vdW  Elec       q    Type
REMARK                         _______ _______ _______ _____ _____    ______ ____
ROOT
ATOM      1  C   UNL     1       3.723   3.557  18.520  0.00  0.00    +0.000 C 
ATOM      2  C   UNL     1       3.475   3.392  20.014  0.00  0.00    +0.000 C 
ATOM      3  C   UNL     1       2.732   4.642  20.406  0.00  0.00    +0.000 C 
ATOM      4  O   UNL     1       2.183   4.760  21.492  0.00  0.00    +0.000 OA
ATOM      5  N   UNL     1       2.816   5.559  19.356  0.00  0.00    +0.000 N 
ATOM      6  C   UNL     1       3.672   5.067  18.287  0.00  0.00    +0.000 C 
ENDROOT
BRANCH   6   7
ATOM      7  C   UNL     1       5.057   5.724  18.308  0.00  0.00    +0.000 A 
ATOM      8  C   UNL     1       5.445   6.707  17.376  0.00  0.00    +0.000 A 
ATOM      9  C   UNL     1       6.736   7.239  17.386  0.00  0.00    +0.000 A 
ATOM     10  C   UNL     1       7.651   6.801  18.334  0.00  0.00    +0.000 A 
ATOM     11  F   UNL     1       8.892   7.302  18.335  0.00  0.00    +0.000 F 
ATOM     12  C   UNL     1       7.294   5.843  19.273  0.00  0.00    +0.000 A 
ATOM     13  C   UNL     1       6.003   5.307  19.265  0.00  0.00    +0.000 A 
ENDBRANCH   6   7
BRANCH   5  14
ATOM     14  C   UNL     1       2.270   6.871  19.358  0.00  0.00    +0.000 A 
ATOM     15  C   UNL     1       2.222   7.633  18.182  0.00  0.00    +0.000 A 
ATOM     16  C   UNL     1       1.673   8.916  18.174  0.00  0.00    +0.000 A 
ATOM     17  C   UNL     1       1.171   9.458  19.354  0.00  0.00    +0.000 A 
ATOM     18  C   UNL     1       1.224   8.729  20.543  0.00  0.00    +0.000 A 
ATOM     19  C   UNL     1       1.753   7.435  20.535  0.00  0.00    +0.000 A 
BRANCH  17  20
ATOM     20  S   UNL     1       0.494  11.084  19.344  0.00  0.00    +0.000 S 
ATOM     21  O   UNL     1      -0.835  11.044  18.781  0.00  0.00    +0.000 OA
ATOM     22  O   UNL     1       0.792  11.738  20.594  0.00  0.00    +0.000 OA
BRANCH  20  23
ATOM     23  N   UNL     1       1.464  11.827  18.190  0.00  0.00    +0.000 NA
ATOM     24  H   UNL     1       1.690  11.167  17.446  0.00  0.00    +0.000 HD
ATOM     25  H   UNL     1       1.025  12.690  17.869  0.00  0.00    +0.000 HD
ENDBRANCH  20  23
ENDBRANCH  17  20
ENDBRANCH   5  14
BRANCH   1  26
ATOM     26  C   UNL     1       2.650   2.848  17.714  0.00  0.00    +0.000 C 
ATOM     27  O   UNL     1       2.437   3.018  16.523  0.00  0.00    +0.000 OA
BRANCH  26  29
ATOM     28  C   UNL     1       0.614   2.247  18.713  0.00  0.00    +0.000 C 
ATOM     29  O   UNL     1       1.993   1.941  18.491  0.00  0.00    +0.000 OA
ENDBRANCH  26  29
ENDBRANCH   1  26
TORSDOF 6
ENDMDL
MODEL 5
REMARK VINA RESULT:      -8.0      2.998      4.873
REMARK  Name = 
REMARK  7 active torsions:
REMARK  status: ('A' for Active; 'I' for Inactive)
REMARK    1  A    between atoms: C_1  and  O_2
REMARK    2  A    between atoms: O_2  and  C_3
REMARK    3  A    between atoms: C_3  and  C_5
REMARK    4  A    between atoms: N_9  and  C_10
REMARK    5  A    between atoms: C_13  and  S_14
REMARK    6  A    between atoms: S_14  and  N_15
REMARK    7  A    between atoms: C_20  and  C_21
REMARK                            x       y       z     vdW  Elec       q    Type
REMARK                         _______ _______ _______ _____ _____    ______ ____
ROOT
ATOM      1  C   UNL     1       5.786   4.840  18.221  0.00  0.00    +0.000 C 
ATOM      2  C   UNL     1       5.720   5.281  16.764  0.00  0.00    +0.000 C 
ATOM      3  C   UNL     1       4.765   6.446  16.773  0.00  0.00    +0.000 C 
ATOM      4  O   UNL     1       4.632   7.187  15.810  0.00  0.00    +0.000 OA
ATOM      5  N   UNL     1       4.113   6.480  18.009  0.00  0.00    +0.000 N 
ATOM      6  C   UNL     1       4.475   5.336  18.832  0.00  0.00    +0.000 C 
ENDROOT
BRANCH   6   7
ATOM      7  C   UNL     1       3.378   4.265  18.846  0.00  0.00    +0.000 A 
ATOM      8  C   UNL     1       2.801   3.754  17.667  0.00  0.00    +0.000 A 
ATOM      9  C   UNL     1       1.761   2.825  17.718  0.00  0.00    +0.000 A 
ATOM     10  C   UNL     1       1.291   2.388  18.951  0.00  0.00    +0.000 A 
ATOM     11  F   UNL     1       0.285   1.506  19.000  0.00  0.00    +0.000 F 
ATOM     12  C   UNL     1       1.849   2.864  20.130  0.00  0.00    +0.000 A 
ATOM     13  C   UNL     1       2.890   3.796  20.081  0.00  0.00    +0.000 A 
ENDBRANCH   6   7
BRANCH   5  14
ATOM     14  C   UNL     1       3.112   7.413  18.390  0.00  0.00    +0.000 A 
ATOM     15  C   UNL     1       2.488   7.329  19.642  0.00  0.00    +0.000 A 
ATOM     16  C   UNL     1       1.515   8.250  20.029  0.00  0.00    +0.000 A 
ATOM     17  C   UNL     1       1.146   9.270  19.155  0.00  0.00    +0.000 A 
ATOM     18  C   UNL     1       1.737   9.366  17.895  0.00  0.00    +0.000 A 
ATOM     19  C   UNL     1       2.728   8.452  17.527  0.00  0.00    +0.000 A 
BRANCH  17  20
ATOM     20  S   UNL     1      -0.095  10.422  19.641  0.00  0.00    +0.000 S 
ATOM     21  O   UNL     1       0.483  11.742  19.717  0.00  0.00    +0.000 OA
ATOM     22  O   UNL     1      -1.315  10.146  18.924  0.00  0.00    +0.000 OA
BRANCH  20  23
ATOM     23  N   UNL     1      -0.372   9.945  21.228  0.00  0.00    +0.000 NA
ATOM     24  H   UNL     1      -0.477  10.764  21.826  0.00  0.00    +0.000 HD
ATOM     25  H   UNL     1      -1.156   9.293  21.264  0.00  0.00    +0.000 HD
ENDBRANCH  20  23
ENDBRANCH  17  20
ENDBRANCH   5  14
BRANCH   1  26
ATOM     26  C   UNL     1       6.979   5.466  18.919  0.00  0.00    +0.000 C 
ATOM     27  O   UNL     1       7.226   5.369  20.113  0.00  0.00    +0.000 OA
BRANCH  26  29
ATOM     28  C   UNL     1       8.097   7.451  18.360  0.00  0.00    +0.000 C 
ATOM     29  O   UNL     1       7.781   6.099  18.017  0.00  0.00    +0.000 OA
ENDBRANCH  26  29
ENDBRANCH   1  26
TORSDOF 6
ENDMDL
MODEL 6
REMARK VINA RESULT:      -8.0      2.933      4.875
REMARK  Name = 
REMARK  7 active torsions:
REMARK  status: ('A' for Active; 'I' for Inactive)
REMARK    1  A    between atoms: C_1  and  O_2
REMARK    2  A    between atoms: O_2  and  C_3
REMARK    3  A    between atoms: C_3  and  C_5
REMARK    4  A    between atoms: N_9  and  C_10
REMARK    5  A    between atoms: C_13  and  S_14
REMARK    6  A    between atoms: S_14  and  N_15
REMARK    7  A    between atoms: C_20  and  C_21
REMARK                            x       y       z     vdW  Elec       q    Type
REMARK                         _______ _______ _______ _____ _____    ______ ____
ROOT
ATOM      1  C   UNL     1       5.726   4.868  18.161  0.00  0.00    +0.000 C 
ATOM      2  C   UNL     1       5.654   5.341  16.715  0.00  0.00    +0.000 C 
ATOM      3  C   UNL     1       4.705   6.511  16.755  0.00  0.00    +0.000 C 
ATOM      4  O   UNL     1       4.570   7.273  15.809  0.00  0.00    +0.000 OA
ATOM      5  N   UNL     1       4.062   6.522  17.995  0.00  0.00    +0.000 N 
ATOM      6  C   UNL     1       4.423   5.358  18.792  0.00  0.00    +0.000 C 
ENDROOT
BRANCH   6   7
ATOM      7  C   UNL     1       3.320   4.293  18.790  0.00  0.00    +0.000 A 
ATOM      8  C   UNL     1       2.358   4.198  17.765  0.00  0.00    +0.000 A 
ATOM      9  C   UNL     1       1.330   3.255  17.826  0.00  0.00    +0.000 A 
ATOM     10  C   UNL     1       1.257   2.389  18.910  0.00  0.00    +0.000 A 
ATOM     11  F   UNL     1       0.265   1.494  18.974  0.00  0.00    +0.000 F 
ATOM     12  C   UNL     1       2.198   2.450  19.929  0.00  0.00    +0.000 A 
ATOM     13  C   UNL     1       3.228   3.394  19.871  0.00  0.00    +0.000 A 
ENDBRANCH   6   7
BRANCH   5  14
ATOM     14  C   UNL     1       3.068   7.452  18.403  0.00  0.00    +0.000 A 
ATOM     15  C   UNL     1       2.648   8.479  17.547  0.00  0.00    +0.000 A 
ATOM     16  C   UNL     1       1.662   9.386  17.936  0.00  0.00    +0.000 A 
ATOM     17  C   UNL     1       1.087   9.279  19.200  0.00  0.00    +0.000 A 
ATOM     18  C   UNL     1       1.499   8.277  20.079  0.00  0.00    +0.000 A 
ATOM     19  C   UNL     1       2.471   7.359  19.671  0.00  0.00    +0.000 A 
BRANCH  17  20
ATOM     20  S   UNL     1      -0.147  10.435  19.692  0.00  0.00    +0.000 S 
ATOM     21  O   UNL     1      -1.155  10.526  18.663  0.00  0.00    +0.000 OA
ATOM     22  O   UNL     1      -0.469  10.232  21.083  0.00  0.00    +0.000 OA
BRANCH  20  23
ATOM     23  N   UNL     1       0.717  11.875  19.623  0.00  0.00    +0.000 NA
ATOM     24  H   UNL     1       1.230  11.932  18.743  0.00  0.00    +0.000 HD
ATOM     25  H   UNL     1       0.096  12.664  19.802  0.00  0.00    +0.000 HD
ENDBRANCH  20  23
ENDBRANCH  17  20
ENDBRANCH   5  14
BRANCH   1  26
ATOM     26  C   UNL     1       6.928   5.472  18.866  0.00  0.00    +0.000 C 
ATOM     27  O   UNL     1       7.164   5.377  20.061  0.00  0.00    +0.000 OA
BRANCH  26  29
ATOM     28  C   UNL     1       8.047   7.448  18.276  0.00  0.00    +0.000 C 
ATOM     29  O   UNL     1       7.749   6.084  17.966  0.00  0.00    +0.000 OA
ENDBRANCH  26  29
ENDBRANCH   1  26
TORSDOF 6
ENDMDL
MODEL 7
REMARK VINA RESULT:      -8.0      2.966      4.776
REMARK  Name = 
REMARK  7 active torsions:
REMARK  status: ('A' for Active; 'I' for Inactive)
REMARK    1  A    between atoms: C_1  and  O_2
REMARK    2  A    between atoms: O_2  and  C_3
REMARK    3  A    between atoms: C_3  and  C_5
REMARK    4  A    between atoms: N_9  and  C_10
REMARK    5  A    between atoms: C_13  and  S_14
REMARK    6  A    between atoms: S_14  and  N_15
REMARK    7  A    between atoms: C_20  and  C_21
REMARK                            x       y       z     vdW  Elec       q    Type
REMARK                         _______ _______ _______ _____ _____    ______ ____
ROOT
ATOM      1  C   UNL     1       5.594   4.822  18.162  0.00  0.00    +0.000 C 
ATOM      2  C   UNL     1       5.544   5.305  16.718  0.00  0.00    +0.000 C 
ATOM      3  C   UNL     1       4.626   6.499  16.759  0.00  0.00    +0.000 C 
ATOM      4  O   UNL     1       4.518   7.270  15.816  0.00  0.00    +0.000 OA
ATOM      5  N   UNL     1       3.974   6.520  17.994  0.00  0.00    +0.000 N 
ATOM      6  C   UNL     1       4.299   5.342  18.786  0.00  0.00    +0.000 C 
ENDROOT
BRANCH   6   7
ATOM      7  C   UNL     1       3.168   4.306  18.770  0.00  0.00    +0.000 A 
ATOM      8  C   UNL     1       2.160   4.269  19.753  0.00  0.00    +0.000 A 
ATOM      9  C   UNL     1       1.181   3.274  19.743  0.00  0.00    +0.000 A 
ATOM     10  C   UNL     1       1.193   2.309  18.743  0.00  0.00    +0.000 A 
ATOM     11  F   UNL     1       0.261   1.348  18.741  0.00  0.00    +0.000 F 
ATOM     12  C   UNL     1       2.167   2.329  17.754  0.00  0.00    +0.000 A 
ATOM     13  C   UNL     1       3.149   3.323  17.762  0.00  0.00    +0.000 A 
ENDBRANCH   6   7
BRANCH   5  14
ATOM     14  C   UNL     1       3.002   7.473  18.401  0.00  0.00    +0.000 A 
ATOM     15  C   UNL     1       2.479   7.459  19.701  0.00  0.00    +0.000 A 
ATOM     16  C   UNL     1       1.536   8.401  20.111  0.00  0.00    +0.000 A 
ATOM     17  C   UNL     1       1.095   9.370  19.214  0.00  0.00    +0.000 A 
ATOM     18  C   UNL     1       1.585   9.396  17.907  0.00  0.00    +0.000 A 
ATOM     19  C   UNL     1       2.548   8.462  17.514  0.00  0.00    +0.000 A 
BRANCH  17  20
ATOM     20  S   UNL     1      -0.108  10.548  19.731  0.00  0.00    +0.000 S 
ATOM     21  O   UNL     1      -0.611  10.178  21.031  0.00  0.00    +0.000 OA
ATOM     22  O   UNL     1       0.359  11.878  19.426  0.00  0.00    +0.000 OA
BRANCH  20  23
ATOM     23  N   UNL     1      -1.351  10.234  18.645  0.00  0.00    +0.000 NA
ATOM     24  H   UNL     1      -1.000   9.681  17.863  0.00  0.00    +0.000 HD
ATOM     25  H   UNL     1      -2.144   9.817  19.134  0.00  0.00    +0.000 HD
ENDBRANCH  20  23
ENDBRANCH  17  20
ENDBRANCH   5  14
BRANCH   1  26
ATOM     26  C   UNL     1       6.806   5.390  18.879  0.00  0.00    +0.000 C 
ATOM     27  O   UNL     1       7.019   5.301  20.079  0.00  0.00    +0.000 OA
BRANCH  26  29
ATOM     28  C   UNL     1       7.989   7.323  18.270  0.00  0.00    +0.000 C 
ATOM     29  O   UNL     1       7.663   5.959  17.985  0.00  0.00    +0.000 OA
ENDBRANCH  26  29
ENDBRANCH   1  26
TORSDOF 6
ENDMDL
MODEL 8
REMARK VINA RESULT:      -7.8      0.649      1.236
REMARK  Name = 
REMARK  7 active torsions:
REMARK  status: ('A' for Active; 'I' for Inactive)
REMARK    1  A    between atoms: C_1  and  O_2
REMARK    2  A    between atoms: O_2  and  C_3
REMARK    3  A    between atoms: C_3  and  C_5
REMARK    4  A    between atoms: N_9  and  C_10
REMARK    5  A    between atoms: C_13  and  S_14
REMARK    6  A    between atoms: S_14  and  N_15
REMARK    7  A    between atoms: C_20  and  C_21
REMARK                            x       y       z     vdW  Elec       q    Type
REMARK                         _______ _______ _______ _____ _____    ______ ____
ROOT
ATOM      1  C   UNL     1       3.402   3.699  18.506  0.00  0.00    +0.000 C 
ATOM      2  C   UNL     1       3.102   3.609  19.997  0.00  0.00    +0.000 C 
ATOM      3  C   UNL     1       2.470   4.935  20.329  0.00  0.00    +0.000 C 
ATOM      4  O   UNL     1       1.908   5.140  21.394  0.00  0.00    +0.000 OA
ATOM      5  N   UNL     1       2.665   5.805  19.252  0.00  0.00    +0.000 N 
ATOM      6  C   UNL     1       3.498   5.199  18.224  0.00  0.00    +0.000 C 
ENDROOT
BRANCH   6   7
ATOM      7  C   UNL     1       4.937   5.725  18.262  0.00  0.00    +0.000 A 
ATOM      8  C   UNL     1       5.868   5.318  19.239  0.00  0.00    +0.000 A 
ATOM      9  C   UNL     1       7.152   5.864  19.282  0.00  0.00    +0.000 A 
ATOM     10  C   UNL     1       7.524   6.818  18.343  0.00  0.00    +0.000 A 
ATOM     11  F   UNL     1       8.751   7.350  18.392  0.00  0.00    +0.000 F 
ATOM     12  C   UNL     1       6.633   7.229  17.361  0.00  0.00    +0.000 A 
ATOM     13  C   UNL     1       5.346   6.685  17.316  0.00  0.00    +0.000 A 
ENDBRANCH   6   7
BRANCH   5  14
ATOM     14  C   UNL     1       2.244   7.160  19.198  0.00  0.00    +0.000 A 
ATOM     15  C   UNL     1       2.253   7.870  17.989  0.00  0.00    +0.000 A 
ATOM     16  C   UNL     1       1.826   9.196  17.926  0.00  0.00    +0.000 A 
ATOM     17  C   UNL     1       1.392   9.836  19.084  0.00  0.00    +0.000 A 
ATOM     18  C   UNL     1       1.390   9.160  20.305  0.00  0.00    +0.000 A 
ATOM     19  C   UNL     1       1.797   7.824  20.352  0.00  0.00    +0.000 A 
BRANCH  17  20
ATOM     20  S   UNL     1       0.869  11.516  19.003  0.00  0.00    +0.000 S 
ATOM     21  O   UNL     1      -0.441  11.581  18.401  0.00  0.00    +0.000 OA
ATOM     22  O   UNL     1       1.190  12.180  20.242  0.00  0.00    +0.000 OA
BRANCH  20  23
ATOM     23  N   UNL     1       1.937  12.129  17.859  0.00  0.00    +0.000 NA
ATOM     24  H   UNL     1       1.480  12.858  17.311  0.00  0.00    +0.000 HD
ATOM     25  H   UNL     1       2.803  12.422  18.312  0.00  0.00    +0.000 HD
ENDBRANCH  20  23
ENDBRANCH  17  20
ENDBRANCH   5  14
BRANCH   1  26
ATOM     26  C   UNL     1       2.287   3.066  17.693  0.00  0.00    +0.000 C 
ATOM     27  O   UNL     1       1.285   3.646  17.302  0.00  0.00    +0.000 OA
BRANCH  26  29
ATOM     28  C   UNL     1       3.712   1.251  18.118  0.00  0.00    +0.000 C 
ATOM     29  O   UNL     1       2.590   1.770  17.398  0.00  0.00    +0.000 OA
ENDBRANCH  26  29
ENDBRANCH   1  26
TORSDOF 6
ENDMDL
MODEL 9
REMARK VINA RESULT:      -7.7      3.763      7.727
REMARK  Name = 
REMARK  7 active torsions:
REMARK  status: ('A' for Active; 'I' for Inactive)
REMARK    1  A    between atoms: C_1  and  O_2
REMARK    2  A    between atoms: O_2  and  C_3
REMARK    3  A    between atoms: C_3  and  C_5
REMARK    4  A    between atoms: N_9  and  C_10
REMARK    5  A    between atoms: C_13  and  S_14
REMARK    6  A    between atoms: S_14  and  N_15
REMARK    7  A    between atoms: C_20  and  C_21
REMARK                            x       y       z     vdW  Elec       q    Type
REMARK                         _______ _______ _______ _____ _____    ______ ____
ROOT
ATOM      1  C   UNL     1      -0.776  12.397  21.113  0.00  0.00    +0.000 C 
ATOM      2  C   UNL     1      -1.754  12.116  19.978  0.00  0.00    +0.000 C 
ATOM      3  C   UNL     1      -1.227  10.859  19.338  0.00  0.00    +0.000 C 
ATOM      4  O   UNL     1      -1.877  10.220  18.524  0.00  0.00    +0.000 OA
ATOM      5  N   UNL     1       0.060  10.614  19.825  0.00  0.00    +0.000 N 
ATOM      6  C   UNL     1       0.514  11.693  20.691  0.00  0.00    +0.000 C 
ENDROOT
BRANCH   6   7
ATOM      7  C   UNL     1       1.501  12.627  19.981  0.00  0.00    +0.000 A 
ATOM      8  C   UNL     1       1.596  12.706  18.578  0.00  0.00    +0.000 A 
ATOM      9  C   UNL     1       2.549  13.521  17.965  0.00  0.00    +0.000 A 
ATOM     10  C   UNL     1       3.413  14.275  18.749  0.00  0.00    +0.000 A 
ATOM     11  F   UNL     1       4.334  15.047  18.161  0.00  0.00    +0.000 F 
ATOM     12  C   UNL     1       3.334  14.228  20.134  0.00  0.00    +0.000 A 
ATOM     13  C   UNL     1       2.382  13.411  20.750  0.00  0.00    +0.000 A 
ENDBRANCH   6   7
BRANCH   5  14
ATOM     14  C   UNL     1       0.902   9.539  19.434  0.00  0.00    +0.000 A 
ATOM     15  C   UNL     1       1.391   9.447  18.124  0.00  0.00    +0.000 A 
ATOM     16  C   UNL     1       2.231   8.403  17.737  0.00  0.00    +0.000 A 
ATOM     17  C   UNL     1       2.586   7.425  18.663  0.00  0.00    +0.000 A 
ATOM     18  C   UNL     1       2.099   7.482  19.970  0.00  0.00    +0.000 A 
ATOM     19  C   UNL     1       1.277   8.546  20.353  0.00  0.00    +0.000 A 
BRANCH  17  20
ATOM     20  S   UNL     1       3.634   6.099  18.167  0.00  0.00    +0.000 S 
ATOM     21  O   UNL     1       2.828   5.028  17.634  0.00  0.00    +0.000 OA
ATOM     22  O   UNL     1       4.784   6.627  17.476  0.00  0.00    +0.000 OA
BRANCH  20  23
ATOM     23  N   UNL     1       4.196   5.561  19.656  0.00  0.00    +0.000 NA
ATOM     24  H   UNL     1       5.191   5.346  19.597  0.00  0.00    +0.000 HD
ATOM     25  H   UNL     1       3.951   6.232  20.385  0.00  0.00    +0.000 HD
ENDBRANCH  20  23
ENDBRANCH  17  20
ENDBRANCH   5  14
BRANCH   1  26
ATOM     26  C   UNL     1      -1.296  11.833  22.423  0.00  0.00    +0.000 C 
ATOM     27  O   UNL     1      -2.443  11.945  22.830  0.00  0.00    +0.000 OA
BRANCH  26  29
ATOM     28  C   UNL     1      -0.651   9.752  23.291  0.00  0.00    +0.000 C 
ATOM     29  O   UNL     1      -0.321  11.124  23.056  0.00  0.00    +0.000 OA
ENDBRANCH  26  29
ENDBRANCH   1  26
TORSDOF 6
ENDMDL
