MODEL 1
REMARK VINA RESULT:      -8.5      0.000      0.000
REMARK  Name = 
REMARK  6 active torsions:
REMARK  status: ('A' for Active; 'I' for Inactive)
REMARK    1  A    between atoms: C_2  and  C_3
REMARK    2  A    between atoms: C_3  and  S_4
REMARK    3  A    between atoms: S_4  and  C_5
REMARK    4  A    between atoms: C_5  and  C_6
REMARK    5  A    between atoms: N_17  and  C_18
REMARK    6  A    between atoms: C_22  and  C_23
REMARK                            x       y       z     vdW  Elec       q    Type
REMARK                         _______ _______ _______ _____ _____    ______ ____
ROOT
ATOM      1  C   UNL     1       2.540   3.107  21.377  0.00  0.00    +0.000 C 
ENDROOT
BRANCH   1   3
ATOM      2  O   UNL     1       0.980   4.028  19.838  0.00  0.00    +0.000 OA
ATOM      3  C   UNL     1       2.024   4.216  20.464  0.00  0.00    +0.000 C 
ATOM      4  N   UNL     1       2.796   5.359  20.405  0.00  0.00    +0.000 N 
ATOM      5  H   UNL     1       3.705   5.293  20.855  0.00  0.00    +0.000 HD
BRANCH   4   6
ATOM      6  C   UNL     1       2.483   6.568  19.750  0.00  0.00    +0.000 A 
ATOM      7  C   UNL     1       2.888   6.860  18.447  0.00  0.00    +0.000 A 
ATOM      8  C   UNL     1       2.524   8.063  17.840  0.00  0.00    +0.000 A 
ATOM      9  C   UNL     1       1.758   8.995  18.534  0.00  0.00    +0.000 A 
ATOM     10  C   UNL     1       1.340   8.728  19.844  0.00  0.00    +0.000 A 
ATOM     11  C   UNL     1       1.698   7.503  20.440  0.00  0.00    +0.000 A 
BRANCH  10  12
ATOM     12  C   UNL     1       0.526   9.737  20.616  0.00  0.00    +0.000 C 
ATOM     13  F   UNL     1      -0.781   9.792  20.236  0.00  0.00    +0.000 F 
ATOM     14  F   UNL     1       0.514   9.483  21.954  0.00  0.00    +0.000 F 
ATOM     15  F   UNL     1       1.006  11.004  20.481  0.00  0.00    +0.000 F 
ENDBRANCH  10  12
ENDBRANCH   4   6
ENDBRANCH   1   3
BRANCH   1  16
ATOM     16  S   UNL     1       3.936   2.154  20.699  0.00  0.00    +0.000 S 
BRANCH  16  17
ATOM     17  C   UNL     1       3.499   2.271  18.929  0.00  0.00    +0.000 C 
BRANCH  17  18
ATOM     18  C   UNL     1       4.389   3.295  18.256  0.00  0.00    +0.000 A 
ATOM     19  C   UNL     1       4.201   3.620  16.965  0.00  0.00    +0.000 A 
ATOM     20  C   UNL     1       5.055   4.656  16.337  0.00  0.00    +0.000 A 
ATOM     21  O   UNL     1       4.911   4.942  15.153  0.00  0.00    +0.000 OA
ATOM     22  C   UNL     1       6.054   5.335  17.195  0.00  0.00    +0.000 A 
ATOM     23  C   UNL     1       6.851   6.363  16.679  0.00  0.00    +0.000 A 
ATOM     24  C   UNL     1       7.790   6.983  17.503  0.00  0.00    +0.000 A 
ATOM     25  C   UNL     1       7.932   6.571  18.830  0.00  0.00    +0.000 A 
ATOM     26  C   UNL     1       7.132   5.545  19.341  0.00  0.00    +0.000 A 
ATOM     27  C   UNL     1       6.169   4.933  18.534  0.00  0.00    +0.000 A 
ATOM     28  N   UNL     1       5.399   3.863  19.019  0.00  0.00    +0.000 N 
ATOM     29  H   UNL     1       5.299   3.784  20.026  0.00  0.00    +0.000 HD
ENDBRANCH  17  18
ENDBRANCH  16  17
ENDBRANCH   1  16
TORSDOF 6
ENDMDL
MODEL 2
REMARK VINA RESULT:      -8.4      0.943      1.155
REMARK  Name = 
REMARK  6 active torsions:
REMARK  status: ('A' for Active; 'I' for Inactive)
REMARK    1  A    between atoms: C_2  and  C_3
REMARK    2  A    between atoms: C_3  and  S_4
REMARK    3  A    between atoms: S_4  and  C_5
REMARK    4  A    between atoms: C_5  and  C_6
REMARK    5  A    between atoms: N_17  and  C_18
REMARK    6  A    between atoms: C_22  and  C_23
REMARK                            x       y       z     vdW  Elec       q    Type
REMARK                         _______ _______ _______ _____ _____    ______ ____
ROOT
ATOM      1  C   UNL     1       2.482   2.579  20.184  0.00  0.00    +0.000 C 
ENDROOT
BRANCH   1   3
ATOM      2  O   UNL     1       0.741   3.912  19.266  0.00  0.00    +0.000 OA
ATOM      3  C   UNL     1       1.876   3.909  19.743  0.00  0.00    +0.000 C 
ATOM      4  N   UNL     1       2.677   5.022  19.906  0.00  0.00    +0.000 N 
ATOM      5  H   UNL     1       3.642   4.829  20.162  0.00  0.00    +0.000 HD
BRANCH   4   6
ATOM      6  C   UNL     1       2.317   6.370  19.704  0.00  0.00    +0.000 A 
ATOM      7  C   UNL     1       2.652   7.088  18.555  0.00  0.00    +0.000 A 
ATOM      8  C   UNL     1       2.243   8.414  18.399  0.00  0.00    +0.000 A 
ATOM      9  C   UNL     1       1.503   9.042  19.397  0.00  0.00    +0.000 A 
ATOM     10  C   UNL     1       1.155   8.344  20.561  0.00  0.00    +0.000 A 
ATOM     11  C   UNL     1       1.557   7.001  20.699  0.00  0.00    +0.000 A 
BRANCH  10  12
ATOM     12  C   UNL     1       0.369   9.017  21.659  0.00  0.00    +0.000 C 
ATOM     13  F   UNL     1      -0.063  10.268  21.335  0.00  0.00    +0.000 F 
ATOM     14  F   UNL     1      -0.746   8.317  22.006  0.00  0.00    +0.000 F 
ATOM     15  F   UNL     1       1.093   9.159  22.803  0.00  0.00    +0.000 F 
ENDBRANCH  10  12
ENDBRANCH   4   6
ENDBRANCH   1   3
BRANCH   1  16
ATOM     16  S   UNL     1       4.259   2.399  19.830  0.00  0.00    +0.000 S 
BRANCH  16  17
ATOM     17  C   UNL     1       4.195   2.659  18.023  0.00  0.00    +0.000 C 
BRANCH  17  18
ATOM     18  C   UNL     1       4.967   3.912  17.665  0.00  0.00    +0.000 A 
ATOM     19  C   UNL     1       4.643   4.625  16.573  0.00  0.00    +0.000 A 
ATOM     20  C   UNL     1       5.383   5.872  16.264  0.00  0.00    +0.000 A 
ATOM     21  O   UNL     1       5.115   6.517  15.255  0.00  0.00    +0.000 OA
ATOM     22  C   UNL     1       6.424   6.308  17.224  0.00  0.00    +0.000 A 
ATOM     23  C   UNL     1       7.118   7.506  17.022  0.00  0.00    +0.000 A 
ATOM     24  C   UNL     1       8.099   7.893  17.935  0.00  0.00    +0.000 A 
ATOM     25  C   UNL     1       8.385   7.083  19.035  0.00  0.00    +0.000 A 
ATOM     26  C   UNL     1       7.687   5.888  19.234  0.00  0.00    +0.000 A 
ATOM     27  C   UNL     1       6.683   5.501  18.341  0.00  0.00    +0.000 A 
ATOM     28  N   UNL     1       6.015   4.275  18.499  0.00  0.00    +0.000 N 
ATOM     29  H   UNL     1       6.015   3.865  19.426  0.00  0.00    +0.000 HD
ENDBRANCH  17  18
ENDBRANCH  16  17
ENDBRANCH   1  16
TORSDOF 6
ENDMDL
MODEL 3
REMARK VINA RESULT:      -8.2      4.640      7.384
REMARK  Name = 
REMARK  6 active torsions:
REMARK  status: ('A' for Active; 'I' for Inactive)
REMARK    1  A    between atoms: C_2  and  C_3
REMARK    2  A    between atoms: C_3  and  S_4
REMARK    3  A    between atoms: S_4  and  C_5
REMARK    4  A    between atoms: C_5  and  C_6
REMARK    5  A    between atoms: N_17  and  C_18
REMARK    6  A    between atoms: C_22  and  C_23
REMARK                            x       y       z     vdW  Elec       q    Type
REMARK                         _______ _______ _______ _____ _____    ______ ____
ROOT
ATOM      1  C   UNL     1       1.751   3.611  18.172  0.00  0.00    +0.000 C 
ENDROOT
BRANCH   1   3
ATOM      2  O   UNL     1       3.749   2.375  17.807  0.00  0.00    +0.000 OA
ATOM      3  C   UNL     1       3.152   3.431  17.593  0.00  0.00    +0.000 C 
ATOM      4  N   UNL     1       3.650   4.499  16.873  0.00  0.00    +0.000 N 
ATOM      5  H   UNL     1       3.100   5.352  16.926  0.00  0.00    +0.000 HD
BRANCH   4   6
ATOM      6  C   UNL     1       4.849   4.544  16.132  0.00  0.00    +0.000 A 
ATOM      7  C   UNL     1       6.055   5.012  16.654  0.00  0.00    +0.000 A 
ATOM      8  C   UNL     1       7.218   5.007  15.881  0.00  0.00    +0.000 A 
ATOM      9  C   UNL     1       7.184   4.542  14.569  0.00  0.00    +0.000 A 
ATOM     10  C   UNL     1       5.986   4.068  14.020  0.00  0.00    +0.000 A 
ATOM     11  C   UNL     1       4.824   4.061  14.816  0.00  0.00    +0.000 A 
BRANCH  10  12
ATOM     12  C   UNL     1       5.931   3.579  12.593  0.00  0.00    +0.000 C 
ATOM     13  F   UNL     1       4.726   3.782  11.991  0.00  0.00    +0.000 F 
ATOM     14  F   UNL     1       6.852   4.191  11.797  0.00  0.00    +0.000 F 
ATOM     15  F   UNL     1       6.177   2.244  12.492  0.00  0.00    +0.000 F 
ENDBRANCH  10  12
ENDBRANCH   4   6
ENDBRANCH   1   3
BRANCH   1  16
ATOM     16  S   UNL     1       1.711   4.113  19.922  0.00  0.00    +0.000 S 
BRANCH  16  17
ATOM     17  C   UNL     1       3.047   5.357  19.869  0.00  0.00    +0.000 C 
BRANCH  17  18
ATOM     18  C   UNL     1       2.443   6.741  19.745  0.00  0.00    +0.000 A 
ATOM     19  C   UNL     1       2.504   7.411  18.581  0.00  0.00    +0.000 A 
ATOM     20  C   UNL     1       1.870   8.746  18.468  0.00  0.00    +0.000 A 
ATOM     21  O   UNL     1       1.942   9.379  17.420  0.00  0.00    +0.000 OA
ATOM     22  C   UNL     1       1.137   9.259  19.649  0.00  0.00    +0.000 A 
ATOM     23  C   UNL     1       0.466  10.485  19.589  0.00  0.00    +0.000 A 
ATOM     24  C   UNL     1      -0.212  10.953  20.715  0.00  0.00    +0.000 A 
ATOM     25  C   UNL     1      -0.211  10.201  21.891  0.00  0.00    +0.000 A 
ATOM     26  C   UNL     1       0.460   8.974  21.945  0.00  0.00    +0.000 A 
ATOM     27  C   UNL     1       1.121   8.482  20.816  0.00  0.00    +0.000 A 
ATOM     28  N   UNL     1       1.845   7.280  20.875  0.00  0.00    +0.000 N 
ATOM     29  H   UNL     1       1.592   6.623  21.606  0.00  0.00    +0.000 HD
ENDBRANCH  17  18
ENDBRANCH  16  17
ENDBRANCH   1  16
TORSDOF 6
ENDMDL
MODEL 4
REMARK VINA RESULT:      -8.2      4.490      7.108
REMARK  Name = 
REMARK  6 active torsions:
REMARK  status: ('A' for Active; 'I' for Inactive)
REMARK    1  A    between atoms: C_2  and  C_3
REMARK    2  A    between atoms: C_3  and  S_4
REMARK    3  A    between atoms: S_4  and  C_5
REMARK    4  A    between atoms: C_5  and  C_6
REMARK    5  A    between atoms: N_17  and  C_18
REMARK    6  A    between atoms: C_22  and  C_23
REMARK                            x       y       z     vdW  Elec       q    Type
REMARK                         _______ _______ _______ _____ _____    ______ ____
ROOT
ATOM      1  C   UNL     1       2.484   2.411  18.677  0.00  0.00    +0.000 C 
ENDROOT
BRANCH   1   3
ATOM      2  O   UNL     1       2.348   3.642  16.648  0.00  0.00    +0.000 OA
ATOM      3  C   UNL     1       3.098   3.111  17.468  0.00  0.00    +0.000 C 
ATOM      4  N   UNL     1       4.476   3.078  17.386  0.00  0.00    +0.000 N 
ATOM      5  H   UNL     1       4.936   2.465  18.054  0.00  0.00    +0.000 HD
BRANCH   4   6
ATOM      6  C   UNL     1       5.292   3.750  16.453  0.00  0.00    +0.000 A 
ATOM      7  C   UNL     1       6.179   4.769  16.805  0.00  0.00    +0.000 A 
ATOM      8  C   UNL     1       6.982   5.380  15.841  0.00  0.00    +0.000 A 
ATOM      9  C   UNL     1       6.900   4.987  14.508  0.00  0.00    +0.000 A 
ATOM     10  C   UNL     1       6.017   3.968  14.127  0.00  0.00    +0.000 A 
ATOM     11  C   UNL     1       5.225   3.346  15.112  0.00  0.00    +0.000 A 
BRANCH  10  12
ATOM     12  C   UNL     1       5.903   3.545  12.684  0.00  0.00    +0.000 C 
ATOM     13  F   UNL     1       6.819   4.135  11.866  0.00  0.00    +0.000 F 
ATOM     14  F   UNL     1       6.070   2.203  12.520  0.00  0.00    +0.000 F 
ATOM     15  F   UNL     1       4.685   3.838  12.151  0.00  0.00    +0.000 F 
ENDBRANCH  10  12
ENDBRANCH   4   6
ENDBRANCH   1   3
BRANCH   1  16
ATOM     16  S   UNL     1       1.786   3.531  19.931  0.00  0.00    +0.000 S 
BRANCH  16  17
ATOM     17  C   UNL     1       3.180   4.707  20.038  0.00  0.00    +0.000 C 
BRANCH  17  18
ATOM     18  C   UNL     1       2.678   6.111  19.773  0.00  0.00    +0.000 A 
ATOM     19  C   UNL     1       2.844   6.679  18.566  0.00  0.00    +0.000 A 
ATOM     20  C   UNL     1       2.307   8.038  18.313  0.00  0.00    +0.000 A 
ATOM     21  O   UNL     1       2.476   8.577  17.224  0.00  0.00    +0.000 OA
ATOM     22  C   UNL     1       1.550   8.690  19.407  0.00  0.00    +0.000 A 
ATOM     23  C   UNL     1       0.967   9.947  19.213  0.00  0.00    +0.000 A 
ATOM     24  C   UNL     1       0.265  10.546  20.259  0.00  0.00    +0.000 A 
ATOM     25  C   UNL     1       0.155   9.893  21.488  0.00  0.00    +0.000 A 
ATOM     26  C   UNL     1       0.737   8.636  21.675  0.00  0.00    +0.000 A 
ATOM     27  C   UNL     1       1.422   8.013  20.628  0.00  0.00    +0.000 A 
ATOM     28  N   UNL     1       2.059   6.776  20.821  0.00  0.00    +0.000 N 
ATOM     29  H   UNL     1       1.725   6.198  21.585  0.00  0.00    +0.000 HD
ENDBRANCH  17  18
ENDBRANCH  16  17
ENDBRANCH   1  16
TORSDOF 6
ENDMDL
MODEL 5
REMARK VINA RESULT:      -8.2      3.139      6.113
REMARK  Name = 
REMARK  6 active torsions:
REMARK  status: ('A' for Active; 'I' for Inactive)
REMARK    1  A    between atoms: C_2  and  C_3
REMARK    2  A    between atoms: C_3  and  S_4
REMARK    3  A    between atoms: S_4  and  C_5
REMARK    4  A    between atoms: C_5  and  C_6
REMARK    5  A    between atoms: N_17  and  C_18
REMARK    6  A    between atoms: C_22  and  C_23
REMARK                            x       y       z     vdW  Elec       q    Type
REMARK                         _______ _______ _______ _____ _____    ______ ____
ROOT
ATOM      1  C   UNL     1       2.178   2.420  19.127  0.00  0.00    +0.000 C 
ENDROOT
BRANCH   1   3
ATOM      2  O   UNL     1       2.299   3.348  16.942  0.00  0.00    +0.000 OA
ATOM      3  C   UNL     1       2.928   3.056  17.960  0.00  0.00    +0.000 C 
ATOM      4  N   UNL     1       4.285   3.240  18.141  0.00  0.00    +0.000 N 
ATOM      5  H   UNL     1       4.676   2.800  18.970  0.00  0.00    +0.000 HD
BRANCH   4   6
ATOM      6  C   UNL     1       5.176   3.916  17.283  0.00  0.00    +0.000 A 
ATOM      7  C   UNL     1       5.465   3.487  15.987  0.00  0.00    +0.000 A 
ATOM      8  C   UNL     1       6.336   4.214  15.173  0.00  0.00    +0.000 A 
ATOM      9  C   UNL     1       6.939   5.374  15.651  0.00  0.00    +0.000 A 
ATOM     10  C   UNL     1       6.668   5.825  16.949  0.00  0.00    +0.000 A 
ATOM     11  C   UNL     1       5.773   5.094  17.754  0.00  0.00    +0.000 A 
BRANCH  10  12
ATOM     12  C   UNL     1       7.329   7.070  17.487  0.00  0.00    +0.000 C 
ATOM     13  F   UNL     1       7.996   6.873  18.659  0.00  0.00    +0.000 F 
ATOM     14  F   UNL     1       8.244   7.590  16.622  0.00  0.00    +0.000 F 
ATOM     15  F   UNL     1       6.436   8.068  17.731  0.00  0.00    +0.000 F 
ENDBRANCH  10  12
ENDBRANCH   4   6
ENDBRANCH   1   3
BRANCH   1  16
ATOM     16  S   UNL     1       1.148   3.574  20.087  0.00  0.00    +0.000 S 
BRANCH  16  17
ATOM     17  C   UNL     1       2.477   4.666  20.700  0.00  0.00    +0.000 C 
BRANCH  17  18
ATOM     18  C   UNL     1       2.203   6.090  20.262  0.00  0.00    +0.000 A 
ATOM     19  C   UNL     1       2.577   6.513  19.042  0.00  0.00    +0.000 A 
ATOM     20  C   UNL     1       2.261   7.898  18.616  0.00  0.00    +0.000 A 
ATOM     21  O   UNL     1       2.620   8.304  17.516  0.00  0.00    +0.000 OA
ATOM     22  C   UNL     1       1.484   8.743  19.553  0.00  0.00    +0.000 A 
ATOM     23  C   UNL     1       1.102  10.038  19.188  0.00  0.00    +0.000 A 
ATOM     24  C   UNL     1       0.377  10.819  20.089  0.00  0.00    +0.000 A 
ATOM     25  C   UNL     1       0.045  10.308  21.344  0.00  0.00    +0.000 A 
ATOM     26  C   UNL     1       0.427   9.011  21.702  0.00  0.00    +0.000 A 
ATOM     27  C   UNL     1       1.131   8.208  20.800  0.00  0.00    +0.000 A 
ATOM     28  N   UNL     1       1.569   6.926  21.170  0.00  0.00    +0.000 N 
ATOM     29  H   UNL     1       1.078   6.471  21.932  0.00  0.00    +0.000 HD
ENDBRANCH  17  18
ENDBRANCH  16  17
ENDBRANCH   1  16
TORSDOF 6
ENDMDL
MODEL 6
REMARK VINA RESULT:      -8.0      0.968      1.117
REMARK  Name = 
REMARK  6 active torsions:
REMARK  status: ('A' for Active; 'I' for Inactive)
REMARK    1  A    between atoms: C_2  and  C_3
REMARK    2  A    between atoms: C_3  and  S_4
REMARK    3  A    between atoms: S_4  and  C_5
REMARK    4  A    between atoms: C_5  and  C_6
REMARK    5  A    between atoms: N_17  and  C_18
REMARK    6  A    between atoms: C_22  and  C_23
REMARK                            x       y       z     vdW  Elec       q    Type
REMARK                         _______ _______ _______ _____ _____    ______ ____
ROOT
ATOM      1  C   UNL     1       2.648   4.159  20.512  0.00  0.00    +0.000 C 
ENDROOT
BRANCH   1   3
ATOM      2  O   UNL     1       1.608   5.087  18.587  0.00  0.00    +0.000 OA
ATOM      3  C   UNL     1       2.175   5.329  19.654  0.00  0.00    +0.000 C 
ATOM      4  N   UNL     1       2.442   6.590  20.149  0.00  0.00    +0.000 N 
ATOM      5  H   UNL     1       3.057   6.617  20.958  0.00  0.00    +0.000 HD
BRANCH   4   6
ATOM      6  C   UNL     1       2.003   7.823  19.625  0.00  0.00    +0.000 A 
ATOM      7  C   UNL     1       2.337   8.274  18.347  0.00  0.00    +0.000 A 
ATOM      8  C   UNL     1       1.850   9.493  17.872  0.00  0.00    +0.000 A 
ATOM      9  C   UNL     1       1.031  10.282  18.675  0.00  0.00    +0.000 A 
ATOM     10  C   UNL     1       0.683   9.854  19.962  0.00  0.00    +0.000 A 
ATOM     11  C   UNL     1       1.165   8.614  20.424  0.00  0.00    +0.000 A 
BRANCH  10  12
ATOM     12  C   UNL     1      -0.188  10.707  20.851  0.00  0.00    +0.000 C 
ATOM     13  F   UNL     1      -1.254  11.259  20.206  0.00  0.00    +0.000 F 
ATOM     14  F   UNL     1      -0.708  10.008  21.898  0.00  0.00    +0.000 F 
ATOM     15  F   UNL     1       0.495  11.750  21.400  0.00  0.00    +0.000 F 
ENDBRANCH  10  12
ENDBRANCH   4   6
ENDBRANCH   1   3
BRANCH   1  16
ATOM     16  S   UNL     1       2.278   2.513  19.826  0.00  0.00    +0.000 S 
BRANCH  16  17
ATOM     17  C   UNL     1       3.989   1.990  19.462  0.00  0.00    +0.000 C 
BRANCH  17  18
ATOM     18  C   UNL     1       4.680   3.059  18.641  0.00  0.00    +0.000 A 
ATOM     19  C   UNL     1       4.314   3.286  17.368  0.00  0.00    +0.000 A 
ATOM     20  C   UNL     1       4.973   4.366  16.595  0.00  0.00    +0.000 A 
ATOM     21  O   UNL     1       4.666   4.566  15.425  0.00  0.00    +0.000 OA
ATOM     22  C   UNL     1       5.982   5.194  17.297  0.00  0.00    +0.000 A 
ATOM     23  C   UNL     1       6.598   6.266  16.643  0.00  0.00    +0.000 A 
ATOM     24  C   UNL     1       7.551   7.028  17.321  0.00  0.00    +0.000 A 
ATOM     25  C   UNL     1       7.886   6.712  18.639  0.00  0.00    +0.000 A 
ATOM     26  C   UNL     1       7.265   5.640  19.289  0.00  0.00    +0.000 A 
ATOM     27  C   UNL     1       6.290   4.885  18.630  0.00  0.00    +0.000 A 
ATOM     28  N   UNL     1       5.701   3.772  19.253  0.00  0.00    +0.000 N 
ATOM     29  H   UNL     1       5.725   3.743  20.266  0.00  0.00    +0.000 HD
ENDBRANCH  17  18
ENDBRANCH  16  17
ENDBRANCH   1  16
TORSDOF 6
ENDMDL
MODEL 7
REMARK VINA RESULT:      -7.9      5.010      8.730
REMARK  Name = 
REMARK  6 active torsions:
REMARK  status: ('A' for Active; 'I' for Inactive)
REMARK    1  A    between atoms: C_2  and  C_3
REMARK    2  A    between atoms: C_3  and  S_4
REMARK    3  A    between atoms: S_4  and  C_5
REMARK    4  A    between atoms: C_5  and  C_6
REMARK    5  A    between atoms: N_17  and  C_18
REMARK    6  A    between atoms: C_22  and  C_23
REMARK                            x       y       z     vdW  Elec       q    Type
REMARK                         _______ _______ _______ _____ _____    ______ ____
ROOT
ATOM      1  C   UNL     1       0.613   9.595  22.731  0.00  0.00    +0.000 C 
ENDROOT
BRANCH   1   3
ATOM      2  O   UNL     1      -0.618   8.090  21.364  0.00  0.00    +0.000 OA
ATOM      3  C   UNL     1       0.501   8.443  21.736  0.00  0.00    +0.000 C 
ATOM      4  N   UNL     1       1.693   7.869  21.339  0.00  0.00    +0.000 N 
ATOM      5  H   UNL     1       2.513   8.168  21.859  0.00  0.00    +0.000 HD
BRANCH   4   6
ATOM      6  C   UNL     1       1.878   6.888  20.343  0.00  0.00    +0.000 A 
ATOM      7  C   UNL     1       2.382   7.172  19.073  0.00  0.00    +0.000 A 
ATOM      8  C   UNL     1       2.569   6.154  18.136  0.00  0.00    +0.000 A 
ATOM      9  C   UNL     1       2.243   4.839  18.455  0.00  0.00    +0.000 A 
ATOM     10  C   UNL     1       1.732   4.527  19.722  0.00  0.00    +0.000 A 
ATOM     11  C   UNL     1       1.565   5.560  20.665  0.00  0.00    +0.000 A 
BRANCH  10  12
ATOM     12  C   UNL     1       1.356   3.109  20.074  0.00  0.00    +0.000 C 
ATOM     13  F   UNL     1       2.365   2.213  19.891  0.00  0.00    +0.000 F 
ATOM     14  F   UNL     1       0.976   2.980  21.376  0.00  0.00    +0.000 F 
ATOM     15  F   UNL     1       0.311   2.649  19.333  0.00  0.00    +0.000 F 
ENDBRANCH  10  12
ENDBRANCH   4   6
ENDBRANCH   1   3
BRANCH   1  16
ATOM     16  S   UNL     1      -0.622  10.914  22.508  0.00  0.00    +0.000 S 
BRANCH  16  17
ATOM     17  C   UNL     1      -0.021  11.571  20.914  0.00  0.00    +0.000 C 
BRANCH  17  18
ATOM     18  C   UNL     1      -1.105  11.426  19.867  0.00  0.00    +0.000 A 
ATOM     19  C   UNL     1      -0.917  10.639  18.793  0.00  0.00    +0.000 A 
ATOM     20  C   UNL     1      -2.008  10.477  17.801  0.00  0.00    +0.000 A 
ATOM     21  O   UNL     1      -1.839   9.783  16.804  0.00  0.00    +0.000 OA
ATOM     22  C   UNL     1      -3.294  11.158  18.078  0.00  0.00    +0.000 A 
ATOM     23  C   UNL     1      -4.381  10.998  17.213  0.00  0.00    +0.000 A 
ATOM     24  C   UNL     1      -5.581  11.655  17.490  0.00  0.00    +0.000 A 
ATOM     25  C   UNL     1      -5.685  12.468  18.620  0.00  0.00    +0.000 A 
ATOM     26  C   UNL     1      -4.596  12.623  19.483  0.00  0.00    +0.000 A 
ATOM     27  C   UNL     1      -3.396  11.950  19.231  0.00  0.00    +0.000 A 
ATOM     28  N   UNL     1      -2.278  12.142  20.059  0.00  0.00    +0.000 N 
ATOM     29  H   UNL     1      -2.452  12.475  21.002  0.00  0.00    +0.000 HD
ENDBRANCH  17  18
ENDBRANCH  16  17
ENDBRANCH   1  16
TORSDOF 6
ENDMDL
MODEL 8
REMARK VINA RESULT:      -7.8      4.506      7.143
REMARK  Name = 
REMARK  6 active torsions:
REMARK  status: ('A' for Active; 'I' for Inactive)
REMARK    1  A    between atoms: C_2  and  C_3
REMARK    2  A    between atoms: C_3  and  S_4
REMARK    3  A    between atoms: S_4  and  C_5
REMARK    4  A    between atoms: C_5  and  C_6
REMARK    5  A    between atoms: N_17  and  C_18
REMARK    6  A    between atoms: C_22  and  C_23
REMARK                            x       y       z     vdW  Elec       q    Type
REMARK                         _______ _______ _______ _____ _____    ______ ____
ROOT
ATOM      1  C   UNL     1       3.979   2.892  19.678  0.00  0.00    +0.000 C 
ENDROOT
BRANCH   1   3
ATOM      2  O   UNL     1       5.963   4.151  19.322  0.00  0.00    +0.000 OA
ATOM      3  C   UNL     1       4.995   3.605  18.791  0.00  0.00    +0.000 C 
ATOM      4  N   UNL     1       4.731   3.590  17.436  0.00  0.00    +0.000 N 
ATOM      5  H   UNL     1       3.813   3.239  17.177  0.00  0.00    +0.000 HD
BRANCH   4   6
ATOM      6  C   UNL     1       5.564   4.056  16.398  0.00  0.00    +0.000 A 
ATOM      7  C   UNL     1       6.628   4.935  16.606  0.00  0.00    +0.000 A 
ATOM      8  C   UNL     1       7.437   5.340  15.543  0.00  0.00    +0.000 A 
ATOM      9  C   UNL     1       7.184   4.878  14.255  0.00  0.00    +0.000 A 
ATOM     10  C   UNL     1       6.122   3.997  14.018  0.00  0.00    +0.000 A 
ATOM     11  C   UNL     1       5.324   3.581  15.101  0.00  0.00    +0.000 A 
BRANCH  10  12
ATOM     12  C   UNL     1       5.824   3.503  12.623  0.00  0.00    +0.000 C 
ATOM     13  F   UNL     1       6.632   4.042  11.668  0.00  0.00    +0.000 F 
ATOM     14  F   UNL     1       5.962   2.153  12.508  0.00  0.00    +0.000 F 
ATOM     15  F   UNL     1       4.550   3.783  12.234  0.00  0.00    +0.000 F 
ENDBRANCH  10  12
ENDBRANCH   4   6
ENDBRANCH   1   3
BRANCH   1  16
ATOM     16  S   UNL     1       2.271   3.505  19.521  0.00  0.00    +0.000 S 
BRANCH  16  17
ATOM     17  C   UNL     1       2.334   4.793  20.814  0.00  0.00    +0.000 C 
BRANCH  17  18
ATOM     18  C   UNL     1       2.191   6.158  20.174  0.00  0.00    +0.000 A 
ATOM     19  C   UNL     1       2.599   6.366  18.910  0.00  0.00    +0.000 A 
ATOM     20  C   UNL     1       2.410   7.698  18.286  0.00  0.00    +0.000 A 
ATOM     21  O   UNL     1       2.803   7.907  17.143  0.00  0.00    +0.000 OA
ATOM     22  C   UNL     1       1.716   8.736  19.083  0.00  0.00    +0.000 A 
ATOM     23  C   UNL     1       1.454   9.995  18.533  0.00  0.00    +0.000 A 
ATOM     24  C   UNL     1       0.806  10.960  19.304  0.00  0.00    +0.000 A 
ATOM     25  C   UNL     1       0.431  10.666  20.616  0.00  0.00    +0.000 A 
ATOM     26  C   UNL     1       0.693   9.405  21.161  0.00  0.00    +0.000 A 
ATOM     27  C   UNL     1       1.318   8.420  20.390  0.00  0.00    +0.000 A 
ATOM     28  N   UNL     1       1.638   7.170  20.945  0.00  0.00    +0.000 N 
ATOM     29  H   UNL     1       1.109   6.877  21.759  0.00  0.00    +0.000 HD
ENDBRANCH  17  18
ENDBRANCH  16  17
ENDBRANCH   1  16
TORSDOF 6
ENDMDL
MODEL 9
REMARK VINA RESULT:      -7.8      4.724      7.123
REMARK  Name = 
REMARK  6 active torsions:
REMARK  status: ('A' for Active; 'I' for Inactive)
REMARK    1  A    between atoms: C_2  and  C_3
REMARK    2  A    between atoms: C_3  and  S_4
REMARK    3  A    between atoms: S_4  and  C_5
REMARK    4  A    between atoms: C_5  and  C_6
REMARK    5  A    between atoms: N_17  and  C_18
REMARK    6  A    between atoms: C_22  and  C_23
REMARK                            x       y       z     vdW  Elec       q    Type
REMARK                         _______ _______ _______ _____ _____    ______ ____
ROOT
ATOM      1  C   UNL     1       7.886   6.966  18.366  0.00  0.00    +0.000 C 
ENDROOT
BRANCH   1   3
ATOM      2  O   UNL     1       7.629   9.031  17.217  0.00  0.00    +0.000 OA
ATOM      3  C   UNL     1       8.175   8.450  18.156  0.00  0.00    +0.000 C 
ATOM      4  N   UNL     1       9.056   9.027  19.049  0.00  0.00    +0.000 N 
ATOM      5  H   UNL     1       9.540   8.377  19.663  0.00  0.00    +0.000 HD
BRANCH   4   6
ATOM      6  C   UNL     1       9.390  10.392  19.157  0.00  0.00    +0.000 A 
ATOM      7  C   UNL     1       9.939  11.132  18.108  0.00  0.00    +0.000 A 
ATOM      8  C   UNL     1      10.223  12.490  18.266  0.00  0.00    +0.000 A 
ATOM      9  C   UNL     1       9.974  13.122  19.480  0.00  0.00    +0.000 A 
ATOM     10  C   UNL     1       9.426  12.402  20.550  0.00  0.00    +0.000 A 
ATOM     11  C   UNL     1       9.125  11.037  20.373  0.00  0.00    +0.000 A 
BRANCH  10  12
ATOM     12  C   UNL     1       9.167  13.070  21.878  0.00  0.00    +0.000 C 
ATOM     13  F   UNL     1      10.031  14.086  22.157  0.00  0.00    +0.000 F 
ATOM     14  F   UNL     1       7.920  13.611  21.955  0.00  0.00    +0.000 F 
ATOM     15  F   UNL     1       9.264  12.202  22.923  0.00  0.00    +0.000 F 
ENDBRANCH  10  12
ENDBRANCH   4   6
ENDBRANCH   1   3
BRANCH   1  16
ATOM     16  S   UNL     1       7.225   6.106  16.904  0.00  0.00    +0.000 S 
BRANCH  16  17
ATOM     17  C   UNL     1       6.800   4.519  17.703  0.00  0.00    +0.000 C 
BRANCH  17  18
ATOM     18  C   UNL     1       5.422   4.618  18.322  0.00  0.00    +0.000 A 
ATOM     19  C   UNL     1       4.583   5.607  17.966  0.00  0.00    +0.000 A 
ATOM     20  C   UNL     1       3.222   5.662  18.552  0.00  0.00    +0.000 A 
ATOM     21  O   UNL     1       2.458   6.575  18.255  0.00  0.00    +0.000 OA
ATOM     22  C   UNL     1       2.827   4.572  19.473  0.00  0.00    +0.000 A 
ATOM     23  C   UNL     1       1.537   4.532  20.013  0.00  0.00    +0.000 A 
ATOM     24  C   UNL     1       1.189   3.500  20.885  0.00  0.00    +0.000 A 
ATOM     25  C   UNL     1       2.128   2.521  21.215  0.00  0.00    +0.000 A 
ATOM     26  C   UNL     1       3.415   2.564  20.670  0.00  0.00    +0.000 A 
ATOM     27  C   UNL     1       3.769   3.578  19.775  0.00  0.00    +0.000 A 
ATOM     28  N   UNL     1       5.076   3.663  19.266  0.00  0.00    +0.000 N 
ATOM     29  H   UNL     1       5.630   2.813  19.270  0.00  0.00    +0.000 HD
ENDBRANCH  17  18
ENDBRANCH  16  17
ENDBRANCH   1  16
TORSDOF 6
ENDMDL
