MODEL 1
REMARK VINA RESULT:      -7.2      0.000      0.000
REMARK  Name = 
REMARK  11 active torsions:
REMARK  status: ('A' for Active; 'I' for Inactive)
REMARK    1  A    between atoms: C_1  and  C_2
REMARK    2  A    between atoms: C_2  and  N_3
REMARK    3  A    between atoms: N_3  and  C_4
REMARK    4  A    between atoms: C_4  and  C_5
REMARK    5  A    between atoms: C_5  and  O_6
REMARK    6  A    between atoms: O_6  and  C_7
REMARK    7  A    between atoms: C_7  and  C_8
REMARK    8  A    between atoms: N_16  and  CA_17
REMARK    9  A    between atoms: CA_17  and  C_18
REMARK   10  A    between atoms: CA_17  and  CB_20
REMARK   11  A    between atoms: CB_20  and  CG_21
REMARK                            x       y       z     vdW  Elec       q    Type
REMARK                         _______ _______ _______ _____ _____    ______ ____
ROOT
ATOM      1  N   UNK A   0       5.905   6.161  16.856  0.00  0.00    +0.000 N 
ATOM      2  C   UNK A   0       4.608   5.872  17.275  0.00  0.00    +0.000 C 
ATOM      3  O   UNK A   0       4.122   4.744  17.245  0.00  0.00    +0.000 OA
ATOM      4  N   PHE A   1       3.896   6.931  17.769  0.00  0.00    +0.000 N 
ATOM      5  H   PHE A   1       4.195   7.868  17.571  0.00  0.00    +0.000 HD
ENDROOT
BRANCH   1   7
ATOM      6  C   UNK A   0       7.049   4.783  15.112  0.00  0.00    +0.000 C 
ATOM      7  C   UNK A   0       6.780   5.012  16.593  0.00  0.00    +0.000 C 
ENDBRANCH   1   7
BRANCH   1   8
ATOM      8  C   UNK A   0       6.474   7.520  16.893  0.00  0.00    +0.000 C 
BRANCH   8   9
ATOM      9  C   UNK A   0       7.698   7.792  17.782  0.00  0.00    +0.000 C 
BRANCH   9  10
ATOM     10  O   UNK A   0       7.972   9.172  18.011  0.00  0.00    +0.000 OA
BRANCH  10  11
ATOM     11  C   UNK A   0       9.039   9.415  18.924  0.00  0.00    +0.000 C 
BRANCH  11  12
ATOM     12  C   UNK A   0       9.512  10.833  18.745  0.00  0.00    +0.000 A 
ATOM     13  C   UNK A   0       8.862  11.693  17.848  0.00  0.00    +0.000 A 
ATOM     14  C   UNK A   0       9.308  13.001  17.671  0.00  0.00    +0.000 A 
ATOM     15  C   UNK A   0      10.408  13.466  18.391  0.00  0.00    +0.000 A 
ATOM     16  C   UNK A   0      11.064  12.621  19.283  0.00  0.00    +0.000 A 
ATOM     17  C   UNK A   0      10.618  11.310  19.462  0.00  0.00    +0.000 A 
ENDBRANCH  11  12
ENDBRANCH  10  11
ENDBRANCH   9  10
ENDBRANCH   8   9
ENDBRANCH   1   8
BRANCH   4  18
ATOM     18  CA  PHE A   1       2.506   6.789  18.180  0.00  0.00    +0.000 C 
BRANCH  18  19
ATOM     19  C   PHE A   1       1.799   8.092  17.844  0.00  0.00    +0.000 C 
ATOM     20  O   PHE A   1       2.384   9.127  17.525  0.00  0.00    +0.000 OA
ENDBRANCH  18  19
BRANCH  18  21
ATOM     21  CB  PHE A   1       2.386   6.541  19.692  0.00  0.00    +0.000 C 
BRANCH  21  22
ATOM     22  CG  PHE A   1       2.010   5.117  20.034  0.00  0.00    +0.000 A 
ATOM     23  CD1 PHE A   1       2.324   4.580  21.291  0.00  0.00    +0.000 A 
ATOM     24  CE1 PHE A   1       2.003   3.255  21.593  0.00  0.00    +0.000 A 
ATOM     25  CZ  PHE A   1       1.366   2.457  20.646  0.00  0.00    +0.000 A 
ATOM     26  CE2 PHE A   1       1.037   2.984  19.399  0.00  0.00    +0.000 A 
ATOM     27  CD2 PHE A   1       1.352   4.310  19.097  0.00  0.00    +0.000 A 
ENDBRANCH  21  22
ENDBRANCH  18  21
ENDBRANCH   4  18
TORSDOF 10
ENDMDL
MODEL 2
REMARK VINA RESULT:      -7.2      0.723      1.472
REMARK  Name = 
REMARK  11 active torsions:
REMARK  status: ('A' for Active; 'I' for Inactive)
REMARK    1  A    between atoms: C_1  and  C_2
REMARK    2  A    between atoms: C_2  and  N_3
REMARK    3  A    between atoms: N_3  and  C_4
REMARK    4  A    between atoms: C_4  and  C_5
REMARK    5  A    between atoms: C_5  and  O_6
REMARK    6  A    between atoms: O_6  and  C_7
REMARK    7  A    between atoms: C_7  and  C_8
REMARK    8  A    between atoms: N_16  and  CA_17
REMARK    9  A    between atoms: CA_17  and  C_18
REMARK   10  A    between atoms: CA_17  and  CB_20
REMARK   11  A    between atoms: CB_20  and  CG_21
REMARK                            x       y       z     vdW  Elec       q    Type
REMARK                         _______ _______ _______ _____ _____    ______ ____
ROOT
ATOM      1  N   UNK A   0       6.054   5.660  17.365  0.00  0.00    +0.000 N 
ATOM      2  C   UNK A   0       4.666   5.637  17.466  0.00  0.00    +0.000 C 
ATOM      3  O   UNK A   0       3.956   4.823  16.879  0.00  0.00    +0.000 OA
ATOM      4  N   PHE A   1       4.118   6.570  18.305  0.00  0.00    +0.000 N 
ATOM      5  H   PHE A   1       4.659   7.367  18.585  0.00  0.00    +0.000 HD
ENDROOT
BRANCH   1   7
ATOM      6  C   UNK A   0       6.939   4.723  15.222  0.00  0.00    +0.000 C 
ATOM      7  C   UNK A   0       6.682   4.507  16.707  0.00  0.00    +0.000 C 
ENDBRANCH   1   7
BRANCH   1   8
ATOM      8  C   UNK A   0       6.893   6.645  18.072  0.00  0.00    +0.000 C 
BRANCH   8   9
ATOM      9  C   UNK A   0       7.633   7.718  17.257  0.00  0.00    +0.000 C 
BRANCH   9  10
ATOM     10  O   UNK A   0       7.782   8.970  17.920  0.00  0.00    +0.000 OA
BRANCH  10  11
ATOM     11  C   UNK A   0       8.913   9.045  18.784  0.00  0.00    +0.000 C 
BRANCH  11  12
ATOM     12  C   UNK A   0       9.205  10.494  19.071  0.00  0.00    +0.000 A 
ATOM     13  C   UNK A   0       9.533  10.910  20.370  0.00  0.00    +0.000 A 
ATOM     14  C   UNK A   0       9.788  12.253  20.640  0.00  0.00    +0.000 A 
ATOM     15  C   UNK A   0       9.720  13.196  19.615  0.00  0.00    +0.000 A 
ATOM     16  C   UNK A   0       9.393  12.796  18.322  0.00  0.00    +0.000 A 
ATOM     17  C   UNK A   0       9.137  11.451  18.049  0.00  0.00    +0.000 A 
ENDBRANCH  11  12
ENDBRANCH  10  11
ENDBRANCH   9  10
ENDBRANCH   8   9
ENDBRANCH   1   8
BRANCH   4  18
ATOM     18  CA  PHE A   1       2.676   6.705  18.456  0.00  0.00    +0.000 C 
BRANCH  18  19
ATOM     19  C   PHE A   1       2.320   8.145  18.123  0.00  0.00    +0.000 C 
ATOM     20  O   PHE A   1       2.662   8.714  17.087  0.00  0.00    +0.000 OA
ENDBRANCH  18  19
BRANCH  18  21
ATOM     21  CB  PHE A   1       2.227   6.409  19.896  0.00  0.00    +0.000 C 
BRANCH  21  22
ATOM     22  CG  PHE A   1       1.974   4.940  20.150  0.00  0.00    +0.000 A 
ATOM     23  CD1 PHE A   1       1.298   4.159  19.202  0.00  0.00    +0.000 A 
ATOM     24  CE1 PHE A   1       1.037   2.810  19.453  0.00  0.00    +0.000 A 
ATOM     25  CZ  PHE A   1       1.451   2.230  20.650  0.00  0.00    +0.000 A 
ATOM     26  CE2 PHE A   1       2.135   2.994  21.593  0.00  0.00    +0.000 A 
ATOM     27  CD2 PHE A   1       2.401   4.340  21.342  0.00  0.00    +0.000 A 
ENDBRANCH  21  22
ENDBRANCH  18  21
ENDBRANCH   4  18
TORSDOF 10
ENDMDL
MODEL 3
REMARK VINA RESULT:      -7.2      4.421      7.932
REMARK  Name = 
REMARK  11 active torsions:
REMARK  status: ('A' for Active; 'I' for Inactive)
REMARK    1  A    between atoms: C_1  and  C_2
REMARK    2  A    between atoms: C_2  and  N_3
REMARK    3  A    between atoms: N_3  and  C_4
REMARK    4  A    between atoms: C_4  and  C_5
REMARK    5  A    between atoms: C_5  and  O_6
REMARK    6  A    between atoms: O_6  and  C_7
REMARK    7  A    between atoms: C_7  and  C_8
REMARK    8  A    between atoms: N_16  and  CA_17
REMARK    9  A    between atoms: CA_17  and  C_18
REMARK   10  A    between atoms: CA_17  and  CB_20
REMARK   11  A    between atoms: CB_20  and  CG_21
REMARK                            x       y       z     vdW  Elec       q    Type
REMARK                         _______ _______ _______ _____ _____    ______ ____
ROOT
ATOM      1  N   UNK A   0       2.639   4.733  19.072  0.00  0.00    +0.000 N 
ATOM      2  C   UNK A   0       3.538   4.241  18.129  0.00  0.00    +0.000 C 
ATOM      3  O   UNK A   0       3.374   3.185  17.521  0.00  0.00    +0.000 OA
ATOM      4  N   PHE A   1       4.625   5.034  17.879  0.00  0.00    +0.000 N 
ATOM      5  H   PHE A   1       4.879   5.752  18.532  0.00  0.00    +0.000 HD
ENDROOT
BRANCH   1   7
ATOM      6  C   UNK A   0       1.108   3.338  20.474  0.00  0.00    +0.000 C 
ATOM      7  C   UNK A   0       1.337   4.057  19.152  0.00  0.00    +0.000 C 
ENDBRANCH   1   7
BRANCH   1   8
ATOM      8  C   UNK A   0       2.850   5.999  19.797  0.00  0.00    +0.000 C 
BRANCH   8   9
ATOM      9  C   UNK A   0       2.631   7.328  19.056  0.00  0.00    +0.000 C 
BRANCH   9  10
ATOM     10  O   UNK A   0       1.553   8.115  19.553  0.00  0.00    +0.000 OA
BRANCH  10  11
ATOM     11  C   UNK A   0       1.328   7.985  20.955  0.00  0.00    +0.000 C 
BRANCH  11  12
ATOM     12  C   UNK A   0       0.504   9.155  21.422  0.00  0.00    +0.000 A 
ATOM     13  C   UNK A   0       0.040   9.216  22.744  0.00  0.00    +0.000 A 
ATOM     14  C   UNK A   0      -0.735  10.291  23.173  0.00  0.00    +0.000 A 
ATOM     15  C   UNK A   0      -1.055  11.319  22.286  0.00  0.00    +0.000 A 
ATOM     16  C   UNK A   0      -0.603  11.268  20.970  0.00  0.00    +0.000 A 
ATOM     17  C   UNK A   0       0.175  10.192  20.538  0.00  0.00    +0.000 A 
ENDBRANCH  11  12
ENDBRANCH  10  11
ENDBRANCH   9  10
ENDBRANCH   8   9
ENDBRANCH   1   8
BRANCH   4  18
ATOM     18  CA  PHE A   1       5.681   4.613  16.967  0.00  0.00    +0.000 C 
BRANCH  18  19
ATOM     19  C   PHE A   1       6.971   4.548  17.769  0.00  0.00    +0.000 C 
ATOM     20  O   PHE A   1       8.064   4.257  17.285  0.00  0.00    +0.000 OA
ENDBRANCH  18  19
BRANCH  18  21
ATOM     21  CB  PHE A   1       5.866   5.615  15.817  0.00  0.00    +0.000 C 
BRANCH  21  22
ATOM     22  CG  PHE A   1       6.218   4.955  14.503  0.00  0.00    +0.000 A 
ATOM     23  CD1 PHE A   1       7.387   5.312  13.817  0.00  0.00    +0.000 A 
ATOM     24  CE1 PHE A   1       7.693   4.724  12.588  0.00  0.00    +0.000 A 
ATOM     25  CZ  PHE A   1       6.837   3.774  12.036  0.00  0.00    +0.000 A 
ATOM     26  CE2 PHE A   1       5.679   3.402  12.715  0.00  0.00    +0.000 A 
ATOM     27  CD2 PHE A   1       5.374   3.985  13.946  0.00  0.00    +0.000 A 
ENDBRANCH  21  22
ENDBRANCH  18  21
ENDBRANCH   4  18
TORSDOF 10
ENDMDL
MODEL 4
REMARK VINA RESULT:      -7.0      1.114      1.668
REMARK  Name = 
REMARK  11 active torsions:
REMARK  status: ('A' for Active; 'I' for Inactive)
REMARK    1  A    between atoms: C_1  and  C_2
REMARK    2  A    between atoms: C_2  and  N_3
REMARK    3  A    between atoms: N_3  and  C_4
REMARK    4  A    between atoms: C_4  and  C_5
REMARK    5  A    between atoms: C_5  and  O_6
REMARK    6  A    between atoms: O_6  and  C_7
REMARK    7  A    between atoms: C_7  and  C_8
REMARK    8  A    between atoms: N_16  and  CA_17
REMARK    9  A    between atoms: CA_17  and  C_18
REMARK   10  A    between atoms: CA_17  and  CB_20
REMARK   11  A    between atoms: CB_20  and  CG_21
REMARK                            x       y       z     vdW  Elec       q    Type
REMARK                         _______ _______ _______ _____ _____    ______ ____
ROOT
ATOM      1  N   UNK A   0       6.324   6.567  16.854  0.00  0.00    +0.000 N 
ATOM      2  C   UNK A   0       4.959   6.349  17.021  0.00  0.00    +0.000 C 
ATOM      3  O   UNK A   0       4.371   5.360  16.587  0.00  0.00    +0.000 OA
ATOM      4  N   PHE A   1       4.292   7.301  17.744  0.00  0.00    +0.000 N 
ATOM      5  H   PHE A   1       4.708   8.203  17.884  0.00  0.00    +0.000 HD
ENDROOT
BRANCH   1   7
ATOM      6  C   UNK A   0       7.593   4.489  17.425  0.00  0.00    +0.000 C 
ATOM      7  C   UNK A   0       7.109   5.438  16.337  0.00  0.00    +0.000 C 
ENDBRANCH   1   7
BRANCH   1   8
ATOM      8  C   UNK A   0       7.015   7.759  17.376  0.00  0.00    +0.000 C 
BRANCH   8   9
ATOM      9  C   UNK A   0       8.259   7.574  18.259  0.00  0.00    +0.000 C 
BRANCH   9  10
ATOM     10  O   UNK A   0       8.673   8.745  18.957  0.00  0.00    +0.000 OA
BRANCH  10  11
ATOM     11  C   UNK A   0       8.686   9.928  18.162  0.00  0.00    +0.000 C 
BRANCH  11  12
ATOM     12  C   UNK A   0       9.736  10.862  18.704  0.00  0.00    +0.000 A 
ATOM     13  C   UNK A   0       9.802  11.138  20.077  0.00  0.00    +0.000 A 
ATOM     14  C   UNK A   0      10.764  12.013  20.578  0.00  0.00    +0.000 A 
ATOM     15  C   UNK A   0      11.672  12.620  19.712  0.00  0.00    +0.000 A 
ATOM     16  C   UNK A   0      11.615  12.356  18.346  0.00  0.00    +0.000 A 
ATOM     17  C   UNK A   0      10.652  11.480  17.842  0.00  0.00    +0.000 A 
ENDBRANCH  11  12
ENDBRANCH  10  11
ENDBRANCH   9  10
ENDBRANCH   8   9
ENDBRANCH   1   8
BRANCH   4  18
ATOM     18  CA  PHE A   1       2.850   7.237  17.940  0.00  0.00    +0.000 C 
BRANCH  18  19
ATOM     19  C   PHE A   1       2.325   8.663  17.900  0.00  0.00    +0.000 C 
ATOM     20  O   PHE A   1       1.132   8.952  17.809  0.00  0.00    +0.000 OA
ENDBRANCH  18  19
BRANCH  18  21
ATOM     21  CB  PHE A   1       2.491   6.619  19.301  0.00  0.00    +0.000 C 
BRANCH  21  22
ATOM     22  CG  PHE A   1       2.383   5.111  19.261  0.00  0.00    +0.000 A 
ATOM     23  CD1 PHE A   1       1.467   4.486  18.403  0.00  0.00    +0.000 A 
ATOM     24  CE1 PHE A   1       1.347   3.095  18.391  0.00  0.00    +0.000 A 
ATOM     25  CZ  PHE A   1       2.140   2.318  19.232  0.00  0.00    +0.000 A 
ATOM     26  CE2 PHE A   1       3.063   2.928  20.078  0.00  0.00    +0.000 A 
ATOM     27  CD2 PHE A   1       3.188   4.318  20.088  0.00  0.00    +0.000 A 
ENDBRANCH  21  22
ENDBRANCH  18  21
ENDBRANCH   4  18
TORSDOF 10
ENDMDL
MODEL 5
REMARK VINA RESULT:      -7.0      4.437      8.020
REMARK  Name = 
REMARK  11 active torsions:
REMARK  status: ('A' for Active; 'I' for Inactive)
REMARK    1  A    between atoms: C_1  and  C_2
REMARK    2  A    between atoms: C_2  and  N_3
REMARK    3  A    between atoms: N_3  and  C_4
REMARK    4  A    between atoms: C_4  and  C_5
REMARK    5  A    between atoms: C_5  and  O_6
REMARK    6  A    between atoms: O_6  and  C_7
REMARK    7  A    between atoms: C_7  and  C_8
REMARK    8  A    between atoms: N_16  and  CA_17
REMARK    9  A    between atoms: CA_17  and  C_18
REMARK   10  A    between atoms: CA_17  and  CB_20
REMARK   11  A    between atoms: CB_20  and  CG_21
REMARK                            x       y       z     vdW  Elec       q    Type
REMARK                         _______ _______ _______ _____ _____    ______ ____
ROOT
ATOM      1  N   UNK A   0       2.807   4.529  19.056  0.00  0.00    +0.000 N 
ATOM      2  C   UNK A   0       3.734   4.093  18.112  0.00  0.00    +0.000 C 
ATOM      3  O   UNK A   0       3.660   3.008  17.539  0.00  0.00    +0.000 OA
ATOM      4  N   PHE A   1       4.739   4.975  17.819  0.00  0.00    +0.000 N 
ATOM      5  H   PHE A   1       4.934   5.734  18.445  0.00  0.00    +0.000 HD
ENDROOT
BRANCH   1   7
ATOM      6  C   UNK A   0       1.561   2.826  20.397  0.00  0.00    +0.000 C 
ATOM      7  C   UNK A   0       1.576   3.738  19.178  0.00  0.00    +0.000 C 
ENDBRANCH   1   7
BRANCH   1   8
ATOM      8  C   UNK A   0       2.910   5.831  19.738  0.00  0.00    +0.000 C 
BRANCH   8   9
ATOM      9  C   UNK A   0       1.631   6.502  20.263  0.00  0.00    +0.000 C 
BRANCH   9  10
ATOM     10  O   UNK A   0       1.733   7.911  20.451  0.00  0.00    +0.000 OA
BRANCH  10  11
ATOM     11  C   UNK A   0       1.508   8.342  21.790  0.00  0.00    +0.000 C 
BRANCH  11  12
ATOM     12  C   UNK A   0       0.533   9.490  21.769  0.00  0.00    +0.000 A 
ATOM     13  C   UNK A   0      -0.140   9.873  22.938  0.00  0.00    +0.000 A 
ATOM     14  C   UNK A   0      -1.054  10.925  22.917  0.00  0.00    +0.000 A 
ATOM     15  C   UNK A   0      -1.303  11.608  21.728  0.00  0.00    +0.000 A 
ATOM     16  C   UNK A   0      -0.642  11.236  20.560  0.00  0.00    +0.000 A 
ATOM     17  C   UNK A   0       0.273  10.182  20.579  0.00  0.00    +0.000 A 
ENDBRANCH  11  12
ENDBRANCH  10  11
ENDBRANCH   9  10
ENDBRANCH   8   9
ENDBRANCH   1   8
BRANCH   4  18
ATOM     18  CA  PHE A   1       5.816   4.625  16.902  0.00  0.00    +0.000 C 
BRANCH  18  19
ATOM     19  C   PHE A   1       7.113   4.657  17.694  0.00  0.00    +0.000 C 
ATOM     20  O   PHE A   1       8.176   4.189  17.287  0.00  0.00    +0.000 OA
ENDBRANCH  18  19
BRANCH  18  21
ATOM     21  CB  PHE A   1       5.921   5.631  15.745  0.00  0.00    +0.000 C 
BRANCH  21  22
ATOM     22  CG  PHE A   1       6.259   4.984  14.421  0.00  0.00    +0.000 A 
ATOM     23  CD1 PHE A   1       5.429   3.990  13.882  0.00  0.00    +0.000 A 
ATOM     24  CE1 PHE A   1       5.759   3.370  12.675  0.00  0.00    +0.000 A 
ATOM     25  CZ  PHE A   1       6.918   3.740  11.996  0.00  0.00    +0.000 A 
ATOM     26  CE2 PHE A   1       7.742   4.735  12.515  0.00  0.00    +0.000 A 
ATOM     27  CD2 PHE A   1       7.412   5.359  13.719  0.00  0.00    +0.000 A 
ENDBRANCH  21  22
ENDBRANCH  18  21
ENDBRANCH   4  18
TORSDOF 10
ENDMDL
MODEL 6
REMARK VINA RESULT:      -6.9      4.367      7.292
REMARK  Name = 
REMARK  11 active torsions:
REMARK  status: ('A' for Active; 'I' for Inactive)
REMARK    1  A    between atoms: C_1  and  C_2
REMARK    2  A    between atoms: C_2  and  N_3
REMARK    3  A    between atoms: N_3  and  C_4
REMARK    4  A    between atoms: C_4  and  C_5
REMARK    5  A    between atoms: C_5  and  O_6
REMARK    6  A    between atoms: O_6  and  C_7
REMARK    7  A    between atoms: C_7  and  C_8
REMARK    8  A    between atoms: N_16  and  CA_17
REMARK    9  A    between atoms: CA_17  and  C_18
REMARK   10  A    between atoms: CA_17  and  CB_20
REMARK   11  A    between atoms: CB_20  and  CG_21
REMARK                            x       y       z     vdW  Elec       q    Type
REMARK                         _______ _______ _______ _____ _____    ______ ____
ROOT
ATOM      1  N   UNK A   0       2.998   3.660  19.435  0.00  0.00    +0.000 N 
ATOM      2  C   UNK A   0       3.892   3.410  18.396  0.00  0.00    +0.000 C 
ATOM      3  O   UNK A   0       3.939   2.345  17.784  0.00  0.00    +0.000 OA
ATOM      4  N   PHE A   1       4.712   4.452  18.057  0.00  0.00    +0.000 N 
ATOM      5  H   PHE A   1       4.840   5.213  18.698  0.00  0.00    +0.000 HD
ENDROOT
BRANCH   1   7
ATOM      6  C   UNK A   0       1.306   2.721  21.018  0.00  0.00    +0.000 C 
ATOM      7  C   UNK A   0       1.926   2.676  19.628  0.00  0.00    +0.000 C 
ENDBRANCH   1   7
BRANCH   1   8
ATOM      8  C   UNK A   0       2.955   4.941  20.163  0.00  0.00    +0.000 C 
BRANCH   8   9
ATOM      9  C   UNK A   0       2.138   6.104  19.579  0.00  0.00    +0.000 C 
BRANCH   9  10
ATOM     10  O   UNK A   0       2.905   7.069  18.864  0.00  0.00    +0.000 OA
BRANCH  10  11
ATOM     11  C   UNK A   0       2.150   7.858  17.948  0.00  0.00    +0.000 C 
BRANCH  11  12
ATOM     12  C   UNK A   0       1.729   9.128  18.639  0.00  0.00    +0.000 A 
ATOM     13  C   UNK A   0       1.920  10.372  18.020  0.00  0.00    +0.000 A 
ATOM     14  C   UNK A   0       1.544  11.548  18.664  0.00  0.00    +0.000 A 
ATOM     15  C   UNK A   0       0.970  11.495  19.934  0.00  0.00    +0.000 A 
ATOM     16  C   UNK A   0       0.777  10.267  20.560  0.00  0.00    +0.000 A 
ATOM     17  C   UNK A   0       1.153   9.087  19.916  0.00  0.00    +0.000 A 
ENDBRANCH  11  12
ENDBRANCH  10  11
ENDBRANCH   9  10
ENDBRANCH   8   9
ENDBRANCH   1   8
BRANCH   4  18
ATOM     18  CA  PHE A   1       5.741   4.309  17.036  0.00  0.00    +0.000 C 
BRANCH  18  19
ATOM     19  C   PHE A   1       7.081   4.573  17.704  0.00  0.00    +0.000 C 
ATOM     20  O   PHE A   1       8.162   4.222  17.234  0.00  0.00    +0.000 OA
ENDBRANCH  18  19
BRANCH  18  21
ATOM     21  CB  PHE A   1       5.551   5.325  15.898  0.00  0.00    +0.000 C 
BRANCH  21  22
ATOM     22  CG  PHE A   1       6.093   4.842  14.572  0.00  0.00    +0.000 A 
ATOM     23  CD1 PHE A   1       7.260   5.400  14.033  0.00  0.00    +0.000 A 
ATOM     24  CE1 PHE A   1       7.741   4.974  12.793  0.00  0.00    +0.000 A 
ATOM     25  CZ  PHE A   1       7.062   3.987  12.083  0.00  0.00    +0.000 A 
ATOM     26  CE2 PHE A   1       5.908   3.416  12.615  0.00  0.00    +0.000 A 
ATOM     27  CD2 PHE A   1       5.429   3.837  13.856  0.00  0.00    +0.000 A 
ENDBRANCH  21  22
ENDBRANCH  18  21
ENDBRANCH   4  18
TORSDOF 10
ENDMDL
MODEL 7
REMARK VINA RESULT:      -6.8      4.488      7.452
REMARK  Name = 
REMARK  11 active torsions:
REMARK  status: ('A' for Active; 'I' for Inactive)
REMARK    1  A    between atoms: C_1  and  C_2
REMARK    2  A    between atoms: C_2  and  N_3
REMARK    3  A    between atoms: N_3  and  C_4
REMARK    4  A    between atoms: C_4  and  C_5
REMARK    5  A    between atoms: C_5  and  O_6
REMARK    6  A    between atoms: O_6  and  C_7
REMARK    7  A    between atoms: C_7  and  C_8
REMARK    8  A    between atoms: N_16  and  CA_17
REMARK    9  A    between atoms: CA_17  and  C_18
REMARK   10  A    between atoms: CA_17  and  CB_20
REMARK   11  A    between atoms: CB_20  and  CG_21
REMARK                            x       y       z     vdW  Elec       q    Type
REMARK                         _______ _______ _______ _____ _____    ______ ____
ROOT
ATOM      1  N   UNK A   0       2.603   3.757  18.729  0.00  0.00    +0.000 N 
ATOM      2  C   UNK A   0       3.513   3.757  17.674  0.00  0.00    +0.000 C 
ATOM      3  O   UNK A   0       3.229   3.397  16.534  0.00  0.00    +0.000 OA
ATOM      4  N   PHE A   1       4.763   4.227  17.972  0.00  0.00    +0.000 N 
ATOM      5  H   PHE A   1       5.058   4.287  18.929  0.00  0.00    +0.000 HD
ENDROOT
BRANCH   1   7
ATOM      6  C   UNK A   0       0.638   2.223  18.917  0.00  0.00    +0.000 C 
ATOM      7  C   UNK A   0       1.194   3.534  18.379  0.00  0.00    +0.000 C 
ENDBRANCH   1   7
BRANCH   1   8
ATOM      8  C   UNK A   0       2.958   4.188  20.093  0.00  0.00    +0.000 C 
BRANCH   8   9
ATOM      9  C   UNK A   0       2.044   5.186  20.822  0.00  0.00    +0.000 C 
BRANCH   9  10
ATOM     10  O   UNK A   0       2.344   6.557  20.575  0.00  0.00    +0.000 OA
BRANCH  10  11
ATOM     11  C   UNK A   0       1.308   7.461  20.949  0.00  0.00    +0.000 C 
BRANCH  11  12
ATOM     12  C   UNK A   0       1.352   8.652  20.028  0.00  0.00    +0.000 A 
ATOM     13  C   UNK A   0       0.826   9.886  20.436  0.00  0.00    +0.000 A 
ATOM     14  C   UNK A   0       0.853  10.985  19.580  0.00  0.00    +0.000 A 
ATOM     15  C   UNK A   0       1.409  10.863  18.307  0.00  0.00    +0.000 A 
ATOM     16  C   UNK A   0       1.933   9.643  17.889  0.00  0.00    +0.000 A 
ATOM     17  C   UNK A   0       1.906   8.541  18.746  0.00  0.00    +0.000 A 
ENDBRANCH  11  12
ENDBRANCH  10  11
ENDBRANCH   9  10
ENDBRANCH   8   9
ENDBRANCH   1   8
BRANCH   4  18
ATOM     18  CA  PHE A   1       5.834   4.221  16.983  0.00  0.00    +0.000 C 
BRANCH  18  19
ATOM     19  C   PHE A   1       7.121   4.576  17.709  0.00  0.00    +0.000 C 
ATOM     20  O   PHE A   1       8.237   4.208  17.345  0.00  0.00    +0.000 OA
ENDBRANCH  18  19
BRANCH  18  21
ATOM     21  CB  PHE A   1       5.589   5.262  15.879  0.00  0.00    +0.000 C 
BRANCH  21  22
ATOM     22  CG  PHE A   1       6.110   4.829  14.527  0.00  0.00    +0.000 A 
ATOM     23  CD1 PHE A   1       5.433   3.853  13.782  0.00  0.00    +0.000 A 
ATOM     24  CE1 PHE A   1       5.934   3.432  12.548  0.00  0.00    +0.000 A 
ATOM     25  CZ  PHE A   1       7.111   3.984  12.048  0.00  0.00    +0.000 A 
ATOM     26  CE2 PHE A   1       7.784   4.964  12.774  0.00  0.00    +0.000 A 
ATOM     27  CD2 PHE A   1       7.283   5.389  14.005  0.00  0.00    +0.000 A 
ENDBRANCH  21  22
ENDBRANCH  18  21
ENDBRANCH   4  18
TORSDOF 10
ENDMDL
MODEL 8
REMARK VINA RESULT:      -6.7      3.443      7.106
REMARK  Name = 
REMARK  11 active torsions:
REMARK  status: ('A' for Active; 'I' for Inactive)
REMARK    1  A    between atoms: C_1  and  C_2
REMARK    2  A    between atoms: C_2  and  N_3
REMARK    3  A    between atoms: N_3  and  C_4
REMARK    4  A    between atoms: C_4  and  C_5
REMARK    5  A    between atoms: C_5  and  O_6
REMARK    6  A    between atoms: O_6  and  C_7
REMARK    7  A    between atoms: C_7  and  C_8
REMARK    8  A    between atoms: N_16  and  CA_17
REMARK    9  A    between atoms: CA_17  and  C_18
REMARK   10  A    between atoms: CA_17  and  CB_20
REMARK   11  A    between atoms: CB_20  and  CG_21
REMARK                            x       y       z     vdW  Elec       q    Type
REMARK                         _______ _______ _______ _____ _____    ______ ____
ROOT
ATOM      1  N   UNK A   0       6.961   4.994  18.008  0.00  0.00    +0.000 N 
ATOM      2  C   UNK A   0       5.735   4.714  18.606  0.00  0.00    +0.000 C 
ATOM      3  O   UNK A   0       5.366   5.217  19.666  0.00  0.00    +0.000 OA
ATOM      4  N   PHE A   1       4.922   3.855  17.917  0.00  0.00    +0.000 N 
ATOM      5  H   PHE A   1       5.310   3.271  17.199  0.00  0.00    +0.000 HD
ENDROOT
BRANCH   1   7
ATOM      6  C   UNK A   0       7.648   7.381  17.725  0.00  0.00    +0.000 C 
ATOM      7  C   UNK A   0       7.723   6.117  18.570  0.00  0.00    +0.000 C 
ENDBRANCH   1   7
BRANCH   1   8
ATOM      8  C   UNK A   0       7.391   4.381  16.739  0.00  0.00    +0.000 C 
BRANCH   8   9
ATOM      9  C   UNK A   0       6.325   3.931  15.727  0.00  0.00    +0.000 C 
BRANCH   9  10
ATOM     10  O   UNK A   0       6.012   4.896  14.726  0.00  0.00    +0.000 OA
BRANCH  10  11
ATOM     11  C   UNK A   0       6.888   4.881  13.602  0.00  0.00    +0.000 C 
BRANCH  11  12
ATOM     12  C   UNK A   0       6.456   3.782  12.669  0.00  0.00    +0.000 A 
ATOM     13  C   UNK A   0       7.406   2.949  12.061  0.00  0.00    +0.000 A 
ATOM     14  C   UNK A   0       7.009   1.941  11.186  0.00  0.00    +0.000 A 
ATOM     15  C   UNK A   0       5.655   1.752  10.909  0.00  0.00    +0.000 A 
ATOM     16  C   UNK A   0       4.702   2.573  11.504  0.00  0.00    +0.000 A 
ATOM     17  C   UNK A   0       5.098   3.584  12.381  0.00  0.00    +0.000 A 
ENDBRANCH  11  12
ENDBRANCH  10  11
ENDBRANCH   9  10
ENDBRANCH   8   9
ENDBRANCH   1   8
BRANCH   4  18
ATOM     18  CA  PHE A   1       3.641   3.421  18.457  0.00  0.00    +0.000 C 
BRANCH  18  19
ATOM     19  C   PHE A   1       3.430   1.980  18.018  0.00  0.00    +0.000 C 
ATOM     20  O   PHE A   1       3.888   1.007  18.615  0.00  0.00    +0.000 OA
ENDBRANCH  18  19
BRANCH  18  21
ATOM     21  CB  PHE A   1       2.482   4.273  17.917  0.00  0.00    +0.000 C 
BRANCH  21  22
ATOM     22  CG  PHE A   1       2.264   5.547  18.701  0.00  0.00    +0.000 A 
ATOM     23  CD1 PHE A   1       1.892   5.497  20.052  0.00  0.00    +0.000 A 
ATOM     24  CE1 PHE A   1       1.660   6.674  20.766  0.00  0.00    +0.000 A 
ATOM     25  CZ  PHE A   1       1.800   7.910  20.138  0.00  0.00    +0.000 A 
ATOM     26  CE2 PHE A   1       2.182   7.972  18.801  0.00  0.00    +0.000 A 
ATOM     27  CD2 PHE A   1       2.419   6.797  18.086  0.00  0.00    +0.000 A 
ENDBRANCH  21  22
ENDBRANCH  18  21
ENDBRANCH   4  18
TORSDOF 10
ENDMDL
MODEL 9
REMARK VINA RESULT:      -6.5      4.217      7.633
REMARK  Name = 
REMARK  11 active torsions:
REMARK  status: ('A' for Active; 'I' for Inactive)
REMARK    1  A    between atoms: C_1  and  C_2
REMARK    2  A    between atoms: C_2  and  N_3
REMARK    3  A    between atoms: N_3  and  C_4
REMARK    4  A    between atoms: C_4  and  C_5
REMARK    5  A    between atoms: C_5  and  O_6
REMARK    6  A    between atoms: O_6  and  C_7
REMARK    7  A    between atoms: C_7  and  C_8
REMARK    8  A    between atoms: N_16  and  CA_17
REMARK    9  A    between atoms: CA_17  and  C_18
REMARK   10  A    between atoms: CA_17  and  CB_20
REMARK   11  A    between atoms: CB_20  and  CG_21
REMARK                            x       y       z     vdW  Elec       q    Type
REMARK                         _______ _______ _______ _____ _____    ______ ____
ROOT
ATOM      1  N   UNK A   0       3.135   3.862  18.862  0.00  0.00    +0.000 N 
ATOM      2  C   UNK A   0       4.091   3.754  17.855  0.00  0.00    +0.000 C 
ATOM      3  O   UNK A   0       4.046   2.907  16.965  0.00  0.00    +0.000 OA
ATOM      4  N   PHE A   1       5.091   4.688  17.886  0.00  0.00    +0.000 N 
ATOM      5  H   PHE A   1       5.260   5.209  18.726  0.00  0.00    +0.000 HD
ENDROOT
BRANCH   1   7
ATOM      6  C   UNK A   0       1.671   2.079  19.825  0.00  0.00    +0.000 C 
ATOM      7  C   UNK A   0       1.912   3.068  18.692  0.00  0.00    +0.000 C 
ENDBRANCH   1   7
BRANCH   1   8
ATOM      8  C   UNK A   0       3.204   4.881  19.925  0.00  0.00    +0.000 C 
BRANCH   8   9
ATOM      9  C   UNK A   0       1.916   5.275  20.665  0.00  0.00    +0.000 C 
BRANCH   9  10
ATOM     10  O   UNK A   0       1.744   6.677  20.853  0.00  0.00    +0.000 OA
BRANCH  10  11
ATOM     11  C   UNK A   0       2.309   7.481  19.822  0.00  0.00    +0.000 C 
BRANCH  11  12
ATOM     12  C   UNK A   0       1.366   8.617  19.524  0.00  0.00    +0.000 A 
ATOM     13  C   UNK A   0       1.177   9.058  18.207  0.00  0.00    +0.000 A 
ATOM     14  C   UNK A   0       0.316  10.119  17.932  0.00  0.00    +0.000 A 
ATOM     15  C   UNK A   0      -0.368  10.749  18.971  0.00  0.00    +0.000 A 
ATOM     16  C   UNK A   0      -0.187  10.321  20.284  0.00  0.00    +0.000 A 
ATOM     17  C   UNK A   0       0.676   9.259  20.561  0.00  0.00    +0.000 A 
ENDBRANCH  11  12
ENDBRANCH  10  11
ENDBRANCH   9  10
ENDBRANCH   8   9
ENDBRANCH   1   8
BRANCH   4  18
ATOM     18  CA  PHE A   1       6.194   4.653  16.935  0.00  0.00    +0.000 C 
BRANCH  18  19
ATOM     19  C   PHE A   1       7.440   5.123  17.670  0.00  0.00    +0.000 C 
ATOM     20  O   PHE A   1       8.128   4.397  18.385  0.00  0.00    +0.000 OA
ENDBRANCH  18  19
BRANCH  18  21
ATOM     21  CB  PHE A   1       5.943   5.592  15.744  0.00  0.00    +0.000 C 
BRANCH  21  22
ATOM     22  CG  PHE A   1       6.279   4.964  14.410  0.00  0.00    +0.000 A 
ATOM     23  CD1 PHE A   1       5.439   3.992  13.848  0.00  0.00    +0.000 A 
ATOM     24  CE1 PHE A   1       5.768   3.391  12.631  0.00  0.00    +0.000 A 
ATOM     25  CZ  PHE A   1       6.936   3.756  11.965  0.00  0.00    +0.000 A 
ATOM     26  CE2 PHE A   1       7.771   4.730  12.508  0.00  0.00    +0.000 A 
ATOM     27  CD2 PHE A   1       7.442   5.336  13.721  0.00  0.00    +0.000 A 
ENDBRANCH  21  22
ENDBRANCH  18  21
ENDBRANCH   4  18
TORSDOF 10
ENDMDL
