MODEL 1
REMARK VINA RESULT:      -9.0      0.000      0.000
REMARK  Name = 
REMARK  6 active torsions:
REMARK  status: ('A' for Active; 'I' for Inactive)
REMARK    1  A    between atoms: C_2  and  C_3
REMARK    2  A    between atoms: C_9  and  C_10
REMARK    3  A    between atoms: C_13  and  C_14
REMARK    4  A    between atoms: C_19  and  O_20
REMARK    5  A    between atoms: O_20  and  C_21
REMARK    6  A    between atoms: C_25  and  N_26
REMARK                            x       y       z     vdW  Elec       q    Type
REMARK                         _______ _______ _______ _____ _____    ______ ____
ROOT
ATOM      1  C   UNL     1       1.127   9.609  19.495  0.00  0.00    +0.000 A 
ATOM      2  C   UNL     1       1.794   8.914  18.467  0.00  0.00    +0.000 A 
ATOM      3  C   UNL     1       2.176   7.568  18.605  0.00  0.00    +0.000 A 
ATOM      4  C   UNL     1       1.914   6.852  19.778  0.00  0.00    +0.000 A 
ATOM      5  C   UNL     1       1.293   7.569  20.820  0.00  0.00    +0.000 A 
ATOM      6  C   UNL     1       0.889   8.892  20.665  0.00  0.00    +0.000 A 
ATOM      7  F   UNL     1       0.168   9.421  21.663  0.00  0.00    +0.000 F 
ENDROOT
BRANCH   1  14
ATOM      8  C   UNL     1      -0.575  11.339  18.636  0.00  0.00    +0.000 A 
ATOM      9  N   UNL     1      -0.926  12.643  18.410  0.00  0.00    +0.000 NA
ATOM     10  C   UNL     1      -0.066  13.578  18.833  0.00  0.00    +0.000 A 
ATOM     11  N   UNL     1      -0.374  14.896  18.512  0.00  0.00    +0.000 N 
ATOM     12  C   UNL     1       1.104  13.230  19.489  0.00  0.00    +0.000 A 
ATOM     13  N   UNL     1       1.456  11.946  19.740  0.00  0.00    +0.000 NA
ATOM     14  C   UNL     1       0.614  10.975  19.280  0.00  0.00    +0.000 A 
ATOM     15  H   UNL     1      -1.303  14.906  18.095  0.00  0.00    +0.000 HD
ATOM     16  H   UNL     1      -0.293  15.530  19.295  0.00  0.00    +0.000 HD
BRANCH   8  18
ATOM     17  N   UNL     1      -2.364   9.632  17.827  0.00  0.00    +0.000 NA
ATOM     18  C   UNL     1      -1.561  10.400  18.190  0.00  0.00    +0.000 C 
ENDBRANCH   8  18
ENDBRANCH   1  14
BRANCH   4  19
ATOM     19  C   UNL     1       2.225   5.407  19.948  0.00  0.00    +0.000 A 
ATOM     20  C   UNL     1       1.136   4.516  20.124  0.00  0.00    +0.000 A 
ATOM     21  C   UNL     1       1.297   3.134  20.187  0.00  0.00    +0.000 A 
ATOM     22  C   UNL     1       2.559   2.587  20.055  0.00  0.00    +0.000 A 
ATOM     23  C   UNL     1       3.653   3.424  19.881  0.00  0.00    +0.000 A 
ATOM     24  C   UNL     1       3.520   4.825  19.889  0.00  0.00    +0.000 A 
BRANCH  24  25
ATOM     25  O   UNL     1       4.655   5.615  19.755  0.00  0.00    +0.000 OA
BRANCH  25  26
ATOM     26  C   UNL     1       5.460   5.413  18.624  0.00  0.00    +0.000 A 
ATOM     27  N   UNL     1       6.642   4.811  18.843  0.00  0.00    +0.000 NA
ATOM     28  C   UNL     1       7.435   4.667  17.761  0.00  0.00    +0.000 A 
ATOM     29  C   UNL     1       7.091   5.090  16.500  0.00  0.00    +0.000 A 
ATOM     30  C   UNL     1       5.848   5.665  16.380  0.00  0.00    +0.000 A 
ATOM     31  N   UNL     1       5.017   5.820  17.416  0.00  0.00    +0.000 NA
BRANCH  30  32
ATOM     32  N   UNL     1       5.415   6.151  15.147  0.00  0.00    +0.000 N 
ATOM     33  H   UNL     1       4.476   5.836  14.929  0.00  0.00    +0.000 HD
ATOM     34  H   UNL     1       5.468   7.167  15.181  0.00  0.00    +0.000 HD
ENDBRANCH  30  32
ENDBRANCH  25  26
ENDBRANCH  24  25
ENDBRANCH   4  19
TORSDOF 6
ENDMDL
MODEL 2
REMARK VINA RESULT:      -8.9      1.231      1.769
REMARK  Name = 
REMARK  6 active torsions:
REMARK  status: ('A' for Active; 'I' for Inactive)
REMARK    1  A    between atoms: C_2  and  C_3
REMARK    2  A    between atoms: C_9  and  C_10
REMARK    3  A    between atoms: C_13  and  C_14
REMARK    4  A    between atoms: C_19  and  O_20
REMARK    5  A    between atoms: O_20  and  C_21
REMARK    6  A    between atoms: C_25  and  N_26
REMARK                            x       y       z     vdW  Elec       q    Type
REMARK                         _______ _______ _______ _____ _____    ______ ____
ROOT
ATOM      1  C   UNL     1       1.338   9.669  19.036  0.00  0.00    +0.000 A 
ATOM      2  C   UNL     1       1.841   9.060  17.869  0.00  0.00    +0.000 A 
ATOM      3  C   UNL     1       2.301   7.732  17.861  0.00  0.00    +0.000 A 
ATOM      4  C   UNL     1       2.286   6.948  19.020  0.00  0.00    +0.000 A 
ATOM      5  C   UNL     1       1.831   7.580  20.194  0.00  0.00    +0.000 A 
ATOM      6  C   UNL     1       1.346   8.885  20.188  0.00  0.00    +0.000 A 
ATOM      7  F   UNL     1       0.794   9.327  21.325  0.00  0.00    +0.000 F 
ENDROOT
BRANCH   1  14
ATOM      8  C   UNL     1      -0.531  11.356  18.499  0.00  0.00    +0.000 A 
ATOM      9  N   UNL     1      -0.972  12.650  18.424  0.00  0.00    +0.000 NA
ATOM     10  C   UNL     1      -0.124  13.598  18.844  0.00  0.00    +0.000 A 
ATOM     11  N   UNL     1      -0.533  14.917  18.672  0.00  0.00    +0.000 N 
ATOM     12  C   UNL     1       1.123  13.270  19.352  0.00  0.00    +0.000 A 
ATOM     13  N   UNL     1       1.565  11.994  19.455  0.00  0.00    +0.000 NA
ATOM     14  C   UNL     1       0.735  11.014  18.992  0.00  0.00    +0.000 A 
ATOM     15  H   UNL     1      -1.498  14.904  18.347  0.00  0.00    +0.000 HD
ATOM     16  H   UNL     1      -0.407  15.487  19.496  0.00  0.00    +0.000 HD
BRANCH   8  18
ATOM     17  N   UNL     1      -2.302   9.618  17.716  0.00  0.00    +0.000 NA
ATOM     18  C   UNL     1      -1.505  10.398  18.068  0.00  0.00    +0.000 C 
ENDBRANCH   8  18
ENDBRANCH   1  14
BRANCH   4  19
ATOM     19  C   UNL     1       2.687   5.515  19.050  0.00  0.00    +0.000 A 
ATOM     20  C   UNL     1       2.007   4.662  19.956  0.00  0.00    +0.000 A 
ATOM     21  C   UNL     1       2.223   3.287  19.998  0.00  0.00    +0.000 A 
ATOM     22  C   UNL     1       3.116   2.707  19.118  0.00  0.00    +0.000 A 
ATOM     23  C   UNL     1       3.802   3.508  18.213  0.00  0.00    +0.000 A 
ATOM     24  C   UNL     1       3.654   4.907  18.205  0.00  0.00    +0.000 A 
BRANCH  24  25
ATOM     25  O   UNL     1       4.399   5.663  17.308  0.00  0.00    +0.000 OA
BRANCH  25  26
ATOM     26  C   UNL     1       5.647   6.137  17.736  0.00  0.00    +0.000 A 
ATOM     27  N   UNL     1       6.134   7.198  17.070  0.00  0.00    +0.000 NA
ATOM     28  C   UNL     1       7.358   7.617  17.449  0.00  0.00    +0.000 A 
ATOM     29  C   UNL     1       8.092   7.028  18.451  0.00  0.00    +0.000 A 
ATOM     30  C   UNL     1       7.489   5.970  19.090  0.00  0.00    +0.000 A 
ATOM     31  N   UNL     1       6.272   5.521  18.762  0.00  0.00    +0.000 NA
BRANCH  30  32
ATOM     32  N   UNL     1       8.160   5.286  20.103  0.00  0.00    +0.000 N 
ATOM     33  H   UNL     1       8.696   4.508  19.737  0.00  0.00    +0.000 HD
ATOM     34  H   UNL     1       8.757   5.956  20.583  0.00  0.00    +0.000 HD
ENDBRANCH  30  32
ENDBRANCH  25  26
ENDBRANCH  24  25
ENDBRANCH   4  19
TORSDOF 6
ENDMDL
MODEL 3
REMARK VINA RESULT:      -8.9      0.541      1.214
REMARK  Name = 
REMARK  6 active torsions:
REMARK  status: ('A' for Active; 'I' for Inactive)
REMARK    1  A    between atoms: C_2  and  C_3
REMARK    2  A    between atoms: C_9  and  C_10
REMARK    3  A    between atoms: C_13  and  C_14
REMARK    4  A    between atoms: C_19  and  O_20
REMARK    5  A    between atoms: O_20  and  C_21
REMARK    6  A    between atoms: C_25  and  N_26
REMARK                            x       y       z     vdW  Elec       q    Type
REMARK                         _______ _______ _______ _____ _____    ______ ____
ROOT
ATOM      1  C   UNL     1       1.026   9.715  19.597  0.00  0.00    +0.000 A 
ATOM      2  C   UNL     1       1.662   8.988  18.572  0.00  0.00    +0.000 A 
ATOM      3  C   UNL     1       2.026   7.639  18.731  0.00  0.00    +0.000 A 
ATOM      4  C   UNL     1       1.777   6.952  19.923  0.00  0.00    +0.000 A 
ATOM      5  C   UNL     1       1.188   7.700  20.962  0.00  0.00    +0.000 A 
ATOM      6  C   UNL     1       0.800   9.026  20.787  0.00  0.00    +0.000 A 
ATOM      7  F   UNL     1       0.108   9.587  21.787  0.00  0.00    +0.000 F 
ENDROOT
BRANCH   1  14
ATOM      8  C   UNL     1      -0.633  11.454  18.674  0.00  0.00    +0.000 A 
ATOM      9  N   UNL     1      -0.967  12.761  18.436  0.00  0.00    +0.000 NA
ATOM     10  C   UNL     1      -0.118  13.690  18.892  0.00  0.00    +0.000 A 
ATOM     11  N   UNL     1      -0.407  15.011  18.560  0.00  0.00    +0.000 N 
ATOM     12  C   UNL     1       1.024  13.336  19.592  0.00  0.00    +0.000 A 
ATOM     13  N   UNL     1       1.358  12.050  19.856  0.00  0.00    +0.000 NA
ATOM     14  C   UNL     1       0.530  11.084  19.363  0.00  0.00    +0.000 A 
ATOM     15  H   UNL     1      -1.319  15.025  18.107  0.00  0.00    +0.000 HD
ATOM     16  H   UNL     1      -0.351  15.643  19.346  0.00  0.00    +0.000 HD
BRANCH   8  18
ATOM     17  N   UNL     1      -2.400   9.758  17.798  0.00  0.00    +0.000 NA
ATOM     18  C   UNL     1      -1.606  10.521  18.191  0.00  0.00    +0.000 C 
ENDBRANCH   8  18
ENDBRANCH   1  14
BRANCH   4  19
ATOM     19  C   UNL     1       2.069   5.506  20.118  0.00  0.00    +0.000 A 
ATOM     20  C   UNL     1       0.978   4.648  20.406  0.00  0.00    +0.000 A 
ATOM     21  C   UNL     1       1.115   3.265  20.503  0.00  0.00    +0.000 A 
ATOM     22  C   UNL     1       2.351   2.684  20.294  0.00  0.00    +0.000 A 
ATOM     23  C   UNL     1       3.446   3.490  20.009  0.00  0.00    +0.000 A 
ATOM     24  C   UNL     1       3.344   4.892  19.981  0.00  0.00    +0.000 A 
BRANCH  24  25
ATOM     25  O   UNL     1       4.481   5.651  19.734  0.00  0.00    +0.000 OA
BRANCH  25  26
ATOM     26  C   UNL     1       5.223   5.358  18.580  0.00  0.00    +0.000 A 
ATOM     27  N   UNL     1       4.582   5.523  17.411  0.00  0.00    +0.000 NA
ATOM     28  C   UNL     1       5.281   5.188  16.307  0.00  0.00    +0.000 A 
ATOM     29  C   UNL     1       6.570   4.710  16.334  0.00  0.00    +0.000 A 
ATOM     30  C   UNL     1       7.143   4.608  17.579  0.00  0.00    +0.000 A 
ATOM     31  N   UNL     1       6.500   4.938  18.705  0.00  0.00    +0.000 NA
BRANCH  30  32
ATOM     32  N   UNL     1       8.438   4.108  17.718  0.00  0.00    +0.000 N 
ATOM     33  H   UNL     1       8.452   3.095  17.688  0.00  0.00    +0.000 HD
ATOM     34  H   UNL     1       9.004   4.511  16.974  0.00  0.00    +0.000 HD
ENDBRANCH  30  32
ENDBRANCH  25  26
ENDBRANCH  24  25
ENDBRANCH   4  19
TORSDOF 6
ENDMDL
MODEL 4
REMARK VINA RESULT:      -8.8      2.651      8.164
REMARK  Name = 
REMARK  6 active torsions:
REMARK  status: ('A' for Active; 'I' for Inactive)
REMARK    1  A    between atoms: C_2  and  C_3
REMARK    2  A    between atoms: C_9  and  C_10
REMARK    3  A    between atoms: C_13  and  C_14
REMARK    4  A    between atoms: C_19  and  O_20
REMARK    5  A    between atoms: O_20  and  C_21
REMARK    6  A    between atoms: C_25  and  N_26
REMARK                            x       y       z     vdW  Elec       q    Type
REMARK                         _______ _______ _______ _____ _____    ______ ____
ROOT
ATOM      1  C   UNL     1       3.093   7.004  18.356  0.00  0.00    +0.000 A 
ATOM      2  C   UNL     1       2.560   8.217  17.876  0.00  0.00    +0.000 A 
ATOM      3  C   UNL     1       1.676   8.997  18.643  0.00  0.00    +0.000 A 
ATOM      4  C   UNL     1       1.279   8.602  19.924  0.00  0.00    +0.000 A 
ATOM      5  C   UNL     1       1.776   7.364  20.377  0.00  0.00    +0.000 A 
ATOM      6  C   UNL     1       2.675   6.612  19.627  0.00  0.00    +0.000 A 
ATOM      7  F   UNL     1       3.201   5.534  20.221  0.00  0.00    +0.000 F 
ENDROOT
BRANCH   1  14
ATOM      8  C   UNL     1       4.060   4.943  17.155  0.00  0.00    +0.000 A 
ATOM      9  N   UNL     1       5.105   4.322  16.524  0.00  0.00    +0.000 NA
ATOM     10  C   UNL     1       6.215   5.050  16.346  0.00  0.00    +0.000 A 
ATOM     11  N   UNL     1       7.310   4.388  15.799  0.00  0.00    +0.000 N 
ATOM     12  C   UNL     1       6.280   6.371  16.759  0.00  0.00    +0.000 A 
ATOM     13  N   UNL     1       5.248   7.006  17.364  0.00  0.00    +0.000 NA
ATOM     14  C   UNL     1       4.121   6.272  17.595  0.00  0.00    +0.000 A 
ATOM     15  H   UNL     1       7.003   3.458  15.518  0.00  0.00    +0.000 HD
ATOM     16  H   UNL     1       7.751   4.896  15.045  0.00  0.00    +0.000 HD
BRANCH   8  18
ATOM     17  N   UNL     1       1.947   3.440  17.375  0.00  0.00    +0.000 NA
ATOM     18  C   UNL     1       2.897   4.115  17.275  0.00  0.00    +0.000 C 
ENDBRANCH   8  18
ENDBRANCH   1  14
BRANCH   4  19
ATOM     19  C   UNL     1       0.411   9.427  20.808  0.00  0.00    +0.000 A 
ATOM     20  C   UNL     1       0.316   9.051  22.172  0.00  0.00    +0.000 A 
ATOM     21  C   UNL     1      -0.380   9.806  23.113  0.00  0.00    +0.000 A 
ATOM     22  C   UNL     1      -0.993  10.983  22.727  0.00  0.00    +0.000 A 
ATOM     23  C   UNL     1      -0.923  11.388  21.400  0.00  0.00    +0.000 A 
ATOM     24  C   UNL     1      -0.289  10.602  20.421  0.00  0.00    +0.000 A 
BRANCH  24  25
ATOM     25  O   UNL     1      -0.287  11.034  19.100  0.00  0.00    +0.000 OA
BRANCH  25  26
ATOM     26  C   UNL     1      -1.469  10.874  18.361  0.00  0.00    +0.000 A 
ATOM     27  N   UNL     1      -1.437   9.944  17.392  0.00  0.00    +0.000 NA
ATOM     28  C   UNL     1      -2.557   9.832  16.650  0.00  0.00    +0.000 A 
ATOM     29  C   UNL     1      -3.682  10.598  16.843  0.00  0.00    +0.000 A 
ATOM     30  C   UNL     1      -3.621  11.499  17.880  0.00  0.00    +0.000 A 
ATOM     31  N   UNL     1      -2.540  11.642  18.655  0.00  0.00    +0.000 NA
BRANCH  30  32
ATOM     32  N   UNL     1      -4.700  12.342  18.142  0.00  0.00    +0.000 N 
ATOM     33  H   UNL     1      -4.713  12.642  19.110  0.00  0.00    +0.000 HD
ATOM     34  H   UNL     1      -4.631  13.135  17.508  0.00  0.00    +0.000 HD
ENDBRANCH  30  32
ENDBRANCH  25  26
ENDBRANCH  24  25
ENDBRANCH   4  19
TORSDOF 6
ENDMDL
MODEL 5
REMARK VINA RESULT:      -8.6      1.041      1.091
REMARK  Name = 
REMARK  6 active torsions:
REMARK  status: ('A' for Active; 'I' for Inactive)
REMARK    1  A    between atoms: C_2  and  C_3
REMARK    2  A    between atoms: C_9  and  C_10
REMARK    3  A    between atoms: C_13  and  C_14
REMARK    4  A    between atoms: C_19  and  O_20
REMARK    5  A    between atoms: O_20  and  C_21
REMARK    6  A    between atoms: C_25  and  N_26
REMARK                            x       y       z     vdW  Elec       q    Type
REMARK                         _______ _______ _______ _____ _____    ______ ____
ROOT
ATOM      1  C   UNL     1       1.192   9.763  19.362  0.00  0.00    +0.000 A 
ATOM      2  C   UNL     1       1.793   9.078  18.288  0.00  0.00    +0.000 A 
ATOM      3  C   UNL     1       2.208   7.738  18.397  0.00  0.00    +0.000 A 
ATOM      4  C   UNL     1       2.045   7.020  19.585  0.00  0.00    +0.000 A 
ATOM      5  C   UNL     1       1.491   7.727  20.671  0.00  0.00    +0.000 A 
ATOM      6  C   UNL     1       1.054   9.042  20.547  0.00  0.00    +0.000 A 
ATOM      7  F   UNL     1       0.400   9.561  21.595  0.00  0.00    +0.000 F 
ENDROOT
BRANCH   1  14
ATOM      8  C   UNL     1      -0.573  11.466  18.581  0.00  0.00    +0.000 A 
ATOM      9  N   UNL     1      -0.961  12.765  18.389  0.00  0.00    +0.000 NA
ATOM     10  C   UNL     1      -0.111  13.713  18.806  0.00  0.00    +0.000 A 
ATOM     11  N   UNL     1      -0.459  15.029  18.518  0.00  0.00    +0.000 N 
ATOM     12  C   UNL     1       1.084  13.382  19.424  0.00  0.00    +0.000 A 
ATOM     13  N   UNL     1       1.472  12.102  19.642  0.00  0.00    +0.000 NA
ATOM     14  C   UNL     1       0.642  11.119  19.186  0.00  0.00    +0.000 A 
ATOM     15  H   UNL     1      -1.399  15.023  18.125  0.00  0.00    +0.000 HD
ATOM     16  H   UNL     1      -0.372  15.650  19.310  0.00  0.00    +0.000 HD
BRANCH   8  18
ATOM     17  N   UNL     1      -2.344   9.734  17.785  0.00  0.00    +0.000 NA
ATOM     18  C   UNL     1      -1.548  10.511  18.144  0.00  0.00    +0.000 C 
ENDBRANCH   8  18
ENDBRANCH   1  14
BRANCH   4  19
ATOM     19  C   UNL     1       2.392   5.580  19.731  0.00  0.00    +0.000 A 
ATOM     20  C   UNL     1       2.039   4.938  20.945  0.00  0.00    +0.000 A 
ATOM     21  C   UNL     1       2.218   3.572  21.153  0.00  0.00    +0.000 A 
ATOM     22  C   UNL     1       2.741   2.790  20.142  0.00  0.00    +0.000 A 
ATOM     23  C   UNL     1       3.100   3.379  18.936  0.00  0.00    +0.000 A 
ATOM     24  C   UNL     1       2.997   4.768  18.734  0.00  0.00    +0.000 A 
BRANCH  24  25
ATOM     25  O   UNL     1       3.413   5.310  17.524  0.00  0.00    +0.000 OA
BRANCH  25  26
ATOM     26  C   UNL     1       4.714   5.017  17.092  0.00  0.00    +0.000 A 
ATOM     27  N   UNL     1       5.708   5.413  17.905  0.00  0.00    +0.000 NA
ATOM     28  C   UNL     1       6.959   5.177  17.460  0.00  0.00    +0.000 A 
ATOM     29  C   UNL     1       7.242   4.569  16.260  0.00  0.00    +0.000 A 
ATOM     30  C   UNL     1       6.153   4.175  15.519  0.00  0.00    +0.000 A 
ATOM     31  N   UNL     1       4.892   4.373  15.919  0.00  0.00    +0.000 NA
BRANCH  30  32
ATOM     32  N   UNL     1       6.331   3.572  14.274  0.00  0.00    +0.000 N 
ATOM     33  H   UNL     1       5.783   2.724  14.187  0.00  0.00    +0.000 HD
ATOM     34  H   UNL     1       6.077   4.255  13.563  0.00  0.00    +0.000 HD
ENDBRANCH  30  32
ENDBRANCH  25  26
ENDBRANCH  24  25
ENDBRANCH   4  19
TORSDOF 6
ENDMDL
MODEL 6
REMARK VINA RESULT:      -8.6      1.120      1.179
REMARK  Name = 
REMARK  6 active torsions:
REMARK  status: ('A' for Active; 'I' for Inactive)
REMARK    1  A    between atoms: C_2  and  C_3
REMARK    2  A    between atoms: C_9  and  C_10
REMARK    3  A    between atoms: C_13  and  C_14
REMARK    4  A    between atoms: C_19  and  O_20
REMARK    5  A    between atoms: O_20  and  C_21
REMARK    6  A    between atoms: C_25  and  N_26
REMARK                            x       y       z     vdW  Elec       q    Type
REMARK                         _______ _______ _______ _____ _____    ______ ____
ROOT
ATOM      1  C   UNL     1       1.260   9.640  19.246  0.00  0.00    +0.000 A 
ATOM      2  C   UNL     1       1.783   8.921  18.154  0.00  0.00    +0.000 A 
ATOM      3  C   UNL     1       2.181   7.577  18.268  0.00  0.00    +0.000 A 
ATOM      4  C   UNL     1       2.077   6.887  19.480  0.00  0.00    +0.000 A 
ATOM      5  C   UNL     1       1.601   7.627  20.580  0.00  0.00    +0.000 A 
ATOM      6  C   UNL     1       1.180   8.947  20.453  0.00  0.00    +0.000 A 
ATOM      7  F   UNL     1       0.600   9.500  21.526  0.00  0.00    +0.000 F 
ENDROOT
BRANCH   1  14
ATOM      8  C   UNL     1      -0.530  11.357  18.555  0.00  0.00    +0.000 A 
ATOM      9  N   UNL     1      -0.906  12.658  18.354  0.00  0.00    +0.000 NA
ATOM     10  C   UNL     1      -0.009  13.599  18.674  0.00  0.00    +0.000 A 
ATOM     11  N   UNL     1      -0.354  14.913  18.375  0.00  0.00    +0.000 N 
ATOM     12  C   UNL     1       1.225  13.260  19.206  0.00  0.00    +0.000 A 
ATOM     13  N   UNL     1       1.605  11.980  19.432  0.00  0.00    +0.000 NA
ATOM     14  C   UNL     1       0.723  11.002  19.073  0.00  0.00    +0.000 A 
ATOM     15  H   UNL     1      -1.322  14.916  18.058  0.00  0.00    +0.000 HD
ATOM     16  H   UNL     1      -0.192  15.555  19.139  0.00  0.00    +0.000 HD
BRANCH   8  18
ATOM     17  N   UNL     1      -2.388   9.638  17.955  0.00  0.00    +0.000 NA
ATOM     18  C   UNL     1      -1.554  10.411  18.225  0.00  0.00    +0.000 C 
ENDBRANCH   8  18
ENDBRANCH   1  14
BRANCH   4  19
ATOM     19  C   UNL     1       2.408   5.444  19.637  0.00  0.00    +0.000 A 
ATOM     20  C   UNL     1       1.725   4.719  20.645  0.00  0.00    +0.000 A 
ATOM     21  C   UNL     1       1.874   3.345  20.815  0.00  0.00    +0.000 A 
ATOM     22  C   UNL     1       2.701   2.637  19.965  0.00  0.00    +0.000 A 
ATOM     23  C   UNL     1       3.389   3.310  18.963  0.00  0.00    +0.000 A 
ATOM     24  C   UNL     1       3.310   4.707  18.822  0.00  0.00    +0.000 A 
BRANCH  24  25
ATOM     25  O   UNL     1       4.054   5.333  17.830  0.00  0.00    +0.000 OA
BRANCH  25  26
ATOM     26  C   UNL     1       5.379   5.682  18.132  0.00  0.00    +0.000 A 
ATOM     27  N   UNL     1       5.959   4.989  19.126  0.00  0.00    +0.000 NA
ATOM     28  C   UNL     1       7.214   5.364  19.448  0.00  0.00    +0.000 A 
ATOM     29  C   UNL     1       7.892   6.382  18.821  0.00  0.00    +0.000 A 
ATOM     30  C   UNL     1       7.220   7.006  17.797  0.00  0.00    +0.000 A 
ATOM     31  N   UNL     1       5.980   6.665  17.428  0.00  0.00    +0.000 NA
BRANCH  30  32
ATOM     32  N   UNL     1       7.810   8.069  17.114  0.00  0.00    +0.000 N 
ATOM     33  H   UNL     1       7.935   8.875  17.715  0.00  0.00    +0.000 HD
ATOM     34  H   UNL     1       8.698   7.739  16.742  0.00  0.00    +0.000 HD
ENDBRANCH  30  32
ENDBRANCH  25  26
ENDBRANCH  24  25
ENDBRANCH   4  19
TORSDOF 6
ENDMDL
MODEL 7
REMARK VINA RESULT:      -8.6      1.372      2.089
REMARK  Name = 
REMARK  6 active torsions:
REMARK  status: ('A' for Active; 'I' for Inactive)
REMARK    1  A    between atoms: C_2  and  C_3
REMARK    2  A    between atoms: C_9  and  C_10
REMARK    3  A    between atoms: C_13  and  C_14
REMARK    4  A    between atoms: C_19  and  O_20
REMARK    5  A    between atoms: O_20  and  C_21
REMARK    6  A    between atoms: C_25  and  N_26
REMARK                            x       y       z     vdW  Elec       q    Type
REMARK                         _______ _______ _______ _____ _____    ______ ____
ROOT
ATOM      1  C   UNL     1       1.151   9.401  19.444  0.00  0.00    +0.000 A 
ATOM      2  C   UNL     1       0.975   8.716  20.662  0.00  0.00    +0.000 A 
ATOM      3  C   UNL     1       1.432   7.400  20.850  0.00  0.00    +0.000 A 
ATOM      4  C   UNL     1       2.084   6.702  19.828  0.00  0.00    +0.000 A 
ATOM      5  C   UNL     1       2.210   7.375  18.596  0.00  0.00    +0.000 A 
ATOM      6  C   UNL     1       1.785   8.689  18.427  0.00  0.00    +0.000 A 
ATOM      7  F   UNL     1       2.098   9.279  17.266  0.00  0.00    +0.000 F 
ENDROOT
BRANCH   1  14
ATOM      8  C   UNL     1      -0.287  11.358  18.590  0.00  0.00    +0.000 A 
ATOM      9  N   UNL     1      -0.494  12.706  18.458  0.00  0.00    +0.000 NA
ATOM     10  C   UNL     1       0.395  13.511  19.054  0.00  0.00    +0.000 A 
ATOM     11  N   UNL     1       0.241  14.876  18.834  0.00  0.00    +0.000 N 
ATOM     12  C   UNL     1       1.450  12.994  19.787  0.00  0.00    +0.000 A 
ATOM     13  N   UNL     1       1.657  11.664  19.947  0.00  0.00    +0.000 NA
ATOM     14  C   UNL     1       0.788  10.824  19.312  0.00  0.00    +0.000 A 
ATOM     15  H   UNL     1      -0.632  15.013  18.327  0.00  0.00    +0.000 HD
ATOM     16  H   UNL     1       0.292  15.427  19.679  0.00  0.00    +0.000 HD
BRANCH   8  18
ATOM     17  N   UNL     1      -2.122   9.916  17.440  0.00  0.00    +0.000 NA
ATOM     18  C   UNL     1      -1.297  10.563  17.958  0.00  0.00    +0.000 C 
ENDBRANCH   8  18
ENDBRANCH   1  14
BRANCH   4  19
ATOM     19  C   UNL     1       2.657   5.339  19.997  0.00  0.00    +0.000 A 
ATOM     20  C   UNL     1       2.177   4.553  21.074  0.00  0.00    +0.000 A 
ATOM     21  C   UNL     1       2.561   3.228  21.268  0.00  0.00    +0.000 A 
ATOM     22  C   UNL     1       3.429   2.631  20.375  0.00  0.00    +0.000 A 
ATOM     23  C   UNL     1       3.923   3.366  19.304  0.00  0.00    +0.000 A 
ATOM     24  C   UNL     1       3.606   4.726  19.134  0.00  0.00    +0.000 A 
BRANCH  24  25
ATOM     25  O   UNL     1       4.163   5.425  18.071  0.00  0.00    +0.000 OA
BRANCH  25  26
ATOM     26  C   UNL     1       5.474   5.901  18.219  0.00  0.00    +0.000 A 
ATOM     27  N   UNL     1       5.875   6.816  17.320  0.00  0.00    +0.000 NA
ATOM     28  C   UNL     1       7.153   7.230  17.435  0.00  0.00    +0.000 A 
ATOM     29  C   UNL     1       8.021   6.774  18.399  0.00  0.00    +0.000 A 
ATOM     30  C   UNL     1       7.501   5.863  19.288  0.00  0.00    +0.000 A 
ATOM     31  N   UNL     1       6.238   5.428  19.227  0.00  0.00    +0.000 NA
BRANCH  30  32
ATOM     32  N   UNL     1       8.308   5.319  20.287  0.00  0.00    +0.000 N 
ATOM     33  H   UNL     1       8.225   5.835  21.156  0.00  0.00    +0.000 HD
ATOM     34  H   UNL     1       8.036   4.345  20.404  0.00  0.00    +0.000 HD
ENDBRANCH  30  32
ENDBRANCH  25  26
ENDBRANCH  24  25
ENDBRANCH   4  19
TORSDOF 6
ENDMDL
MODEL 8
REMARK VINA RESULT:      -8.5      2.681      8.197
REMARK  Name = 
REMARK  6 active torsions:
REMARK  status: ('A' for Active; 'I' for Inactive)
REMARK    1  A    between atoms: C_2  and  C_3
REMARK    2  A    between atoms: C_9  and  C_10
REMARK    3  A    between atoms: C_13  and  C_14
REMARK    4  A    between atoms: C_19  and  O_20
REMARK    5  A    between atoms: O_20  and  C_21
REMARK    6  A    between atoms: C_25  and  N_26
REMARK                            x       y       z     vdW  Elec       q    Type
REMARK                         _______ _______ _______ _____ _____    ______ ____
ROOT
ATOM      1  C   UNL     1       2.817   6.933  18.723  0.00  0.00    +0.000 A 
ATOM      2  C   UNL     1       2.398   6.576  20.020  0.00  0.00    +0.000 A 
ATOM      3  C   UNL     1       1.576   7.413  20.795  0.00  0.00    +0.000 A 
ATOM      4  C   UNL     1       1.134   8.649  20.313  0.00  0.00    +0.000 A 
ATOM      5  C   UNL     1       1.599   9.022  19.036  0.00  0.00    +0.000 A 
ATOM      6  C   UNL     1       2.386   8.175  18.262  0.00  0.00    +0.000 A 
ATOM      7  F   UNL     1       2.636   8.566  17.005  0.00  0.00    +0.000 F 
ENDROOT
BRANCH   1  14
ATOM      8  C   UNL     1       3.182   4.682  17.529  0.00  0.00    +0.000 A 
ATOM      9  N   UNL     1       3.986   3.844  16.803  0.00  0.00    +0.000 NA
ATOM     10  C   UNL     1       5.180   4.326  16.437  0.00  0.00    +0.000 A 
ATOM     11  N   UNL     1       6.035   3.440  15.789  0.00  0.00    +0.000 N 
ATOM     12  C   UNL     1       5.560   5.619  16.758  0.00  0.00    +0.000 A 
ATOM     13  N   UNL     1       4.768   6.469  17.456  0.00  0.00    +0.000 NA
ATOM     14  C   UNL     1       3.564   5.984  17.877  0.00  0.00    +0.000 A 
ATOM     15  H   UNL     1       5.516   2.583  15.607  0.00  0.00    +0.000 HD
ATOM     16  H   UNL     1       6.456   3.825  14.955  0.00  0.00    +0.000 HD
BRANCH   8  18
ATOM     17  N   UNL     1       0.868   3.645  18.114  0.00  0.00    +0.000 NA
ATOM     18  C   UNL     1       1.909   4.110  17.851  0.00  0.00    +0.000 C 
ENDBRANCH   8  18
ENDBRANCH   1  14
BRANCH   4  19
ATOM     19  C   UNL     1       0.200   9.537  21.057  0.00  0.00    +0.000 A 
ATOM     20  C   UNL     1      -0.005   9.270  22.434  0.00  0.00    +0.000 A 
ATOM     21  C   UNL     1      -0.772  10.094  23.253  0.00  0.00    +0.000 A 
ATOM     22  C   UNL     1      -1.349  11.234  22.729  0.00  0.00    +0.000 A 
ATOM     23  C   UNL     1      -1.172  11.533  21.383  0.00  0.00    +0.000 A 
ATOM     24  C   UNL     1      -0.464  10.675  20.523  0.00  0.00    +0.000 A 
BRANCH  24  25
ATOM     25  O   UNL     1      -0.356  11.001  19.177  0.00  0.00    +0.000 OA
BRANCH  25  26
ATOM     26  C   UNL     1      -1.497  10.851  18.376  0.00  0.00    +0.000 A 
ATOM     27  N   UNL     1      -1.413   9.937  17.395  0.00  0.00    +0.000 NA
ATOM     28  C   UNL     1      -2.493   9.834  16.594  0.00  0.00    +0.000 A 
ATOM     29  C   UNL     1      -3.629  10.594  16.743  0.00  0.00    +0.000 A 
ATOM     30  C   UNL     1      -3.625  11.476  17.797  0.00  0.00    +0.000 A 
ATOM     31  N   UNL     1      -2.585  11.610  18.628  0.00  0.00    +0.000 NA
BRANCH  30  32
ATOM     32  N   UNL     1      -4.719  12.312  18.018  0.00  0.00    +0.000 N 
ATOM     33  H   UNL     1      -5.544  11.785  18.279  0.00  0.00    +0.000 HD
ATOM     34  H   UNL     1      -4.456  12.977  18.742  0.00  0.00    +0.000 HD
ENDBRANCH  30  32
ENDBRANCH  25  26
ENDBRANCH  24  25
ENDBRANCH   4  19
TORSDOF 6
ENDMDL
MODEL 9
REMARK VINA RESULT:      -8.4      2.645      8.081
REMARK  Name = 
REMARK  6 active torsions:
REMARK  status: ('A' for Active; 'I' for Inactive)
REMARK    1  A    between atoms: C_2  and  C_3
REMARK    2  A    between atoms: C_9  and  C_10
REMARK    3  A    between atoms: C_13  and  C_14
REMARK    4  A    between atoms: C_19  and  O_20
REMARK    5  A    between atoms: O_20  and  C_21
REMARK    6  A    between atoms: C_25  and  N_26
REMARK                            x       y       z     vdW  Elec       q    Type
REMARK                         _______ _______ _______ _____ _____    ______ ____
ROOT
ATOM      1  C   UNL     1       3.057   7.006  18.364  0.00  0.00    +0.000 A 
ATOM      2  C   UNL     1       2.507   8.215  17.893  0.00  0.00    +0.000 A 
ATOM      3  C   UNL     1       1.631   8.988  18.674  0.00  0.00    +0.000 A 
ATOM      4  C   UNL     1       1.259   8.591  19.963  0.00  0.00    +0.000 A 
ATOM      5  C   UNL     1       1.773   7.356  20.407  0.00  0.00    +0.000 A 
ATOM      6  C   UNL     1       2.665   6.611  19.641  0.00  0.00    +0.000 A 
ATOM      7  F   UNL     1       3.210   5.537  20.227  0.00  0.00    +0.000 F 
ENDROOT
BRANCH   1  14
ATOM      8  C   UNL     1       4.020   4.952  17.147  0.00  0.00    +0.000 A 
ATOM      9  N   UNL     1       5.059   4.339  16.498  0.00  0.00    +0.000 NA
ATOM     10  C   UNL     1       6.160   5.075  16.300  0.00  0.00    +0.000 A 
ATOM     11  N   UNL     1       7.250   4.422  15.734  0.00  0.00    +0.000 N 
ATOM     12  C   UNL     1       6.221   6.397  16.711  0.00  0.00    +0.000 A 
ATOM     13  N   UNL     1       5.195   7.025  17.334  0.00  0.00    +0.000 NA
ATOM     14  C   UNL     1       4.078   6.281  17.585  0.00  0.00    +0.000 A 
ATOM     15  H   UNL     1       6.945   3.489  15.459  0.00  0.00    +0.000 HD
ATOM     16  H   UNL     1       7.673   4.933  14.972  0.00  0.00    +0.000 HD
BRANCH   8  18
ATOM     17  N   UNL     1       1.925   3.430  17.403  0.00  0.00    +0.000 NA
ATOM     18  C   UNL     1       2.866   4.115  17.288  0.00  0.00    +0.000 C 
ENDBRANCH   8  18
ENDBRANCH   1  14
BRANCH   4  19
ATOM     19  C   UNL     1       0.400   9.409  20.862  0.00  0.00    +0.000 A 
ATOM     20  C   UNL     1       0.300   9.009  22.218  0.00  0.00    +0.000 A 
ATOM     21  C   UNL     1      -0.388   9.755  23.172  0.00  0.00    +0.000 A 
ATOM     22  C   UNL     1      -0.987  10.945  22.808  0.00  0.00    +0.000 A 
ATOM     23  C   UNL     1      -0.912  11.374  21.489  0.00  0.00    +0.000 A 
ATOM     24  C   UNL     1      -0.286  10.598  20.495  0.00  0.00    +0.000 A 
BRANCH  24  25
ATOM     25  O   UNL     1      -0.279  11.054  19.183  0.00  0.00    +0.000 OA
BRANCH  25  26
ATOM     26  C   UNL     1      -1.493  11.036  18.481  0.00  0.00    +0.000 A 
ATOM     27  N   UNL     1      -2.509  11.714  19.042  0.00  0.00    +0.000 NA
ATOM     28  C   UNL     1      -3.688  11.649  18.391  0.00  0.00    +0.000 A 
ATOM     29  C   UNL     1      -3.878  10.950  17.223  0.00  0.00    +0.000 A 
ATOM     30  C   UNL     1      -2.767  10.318  16.716  0.00  0.00    +0.000 A 
ATOM     31  N   UNL     1      -1.572  10.360  17.315  0.00  0.00    +0.000 NA
BRANCH  30  32
ATOM     32  N   UNL     1      -2.861   9.560  15.549  0.00  0.00    +0.000 N 
ATOM     33  H   UNL     1      -2.076   8.927  15.451  0.00  0.00    +0.000 HD
ATOM     34  H   UNL     1      -3.745   9.056  15.581  0.00  0.00    +0.000 HD
ENDBRANCH  30  32
ENDBRANCH  25  26
ENDBRANCH  24  25
ENDBRANCH   4  19
TORSDOF 6
ENDMDL
