MODEL 1
REMARK VINA RESULT:      -6.8      0.000      0.000
REMARK  Name = 
REMARK  18 active torsions:
REMARK  status: ('A' for Active; 'I' for Inactive)
REMARK    1  A    between atoms: C_1  and  C_2
REMARK    2  A    between atoms: C_2  and  O_3
REMARK    3  A    between atoms: O_3  and  C_4
REMARK    4  A    between atoms: C_4  and  C_6
REMARK    5  A    between atoms: C_7  and  O_8
REMARK    6  A    between atoms: C_7  and  C_11
REMARK    7  A    between atoms: O_8  and  C_9
REMARK    8  A    between atoms: C_9  and  C_10
REMARK    9  A    between atoms: C_12  and  C_13
REMARK   10  A    between atoms: C_13  and  C_15
REMARK   11  A    between atoms: C_22  and  C_23
REMARK   12  A    between atoms: C_23  and  O_30
REMARK   13  A    between atoms: C_24  and  C_25
REMARK   14  A    between atoms: C_25  and  O_27
REMARK   15  A    between atoms: O_27  and  C_28
REMARK   16  A    between atoms: C_28  and  C_29
REMARK   17  A    between atoms: O_30  and  C_31
REMARK   18  A    between atoms: C_31  and  C_32
REMARK                            x       y       z     vdW  Elec       q    Type
REMARK                         _______ _______ _______ _____ _____    ______ ____
ROOT
ATOM      1  C   UNL     1       4.104   6.486  18.817  0.00  0.00    +0.000 C 
ATOM      2  C   UNL     1       2.679   6.743  18.443  0.00  0.00    +0.000 C 
ATOM      3  C   UNL     1       3.612   6.235  17.375  0.00  0.00    +0.000 C 
ENDROOT
BRANCH   1   5
ATOM      4  C   UNL     1       5.843   4.766  19.551  0.00  0.00    +0.000 C 
ATOM      5  C   UNL     1       4.607   5.309  19.569  0.00  0.00    +0.000 C 
BRANCH   4   6
ATOM      6  C   UNL     1       6.926   5.180  18.641  0.00  0.00    +0.000 C 
ATOM      7  O   UNL     1       7.673   4.437  18.034  0.00  0.00    +0.000 OA
BRANCH   6   8
ATOM      8  O   UNL     1       7.036   6.535  18.705  0.00  0.00    +0.000 OA
BRANCH   8  10
ATOM      9  C   UNL     1       8.080   8.544  17.946  0.00  0.00    +0.000 C 
ATOM     10  C   UNL     1       7.653   7.139  17.555  0.00  0.00    +0.000 C 
ENDBRANCH   8  10
ENDBRANCH   6   8
ENDBRANCH   4   6
BRANCH   5  11
ATOM     11  O   UNL     1       3.585   4.743  20.306  0.00  0.00    +0.000 OA
BRANCH  11  12
ATOM     12  C   UNL     1       3.626   3.396  20.747  0.00  0.00    +0.000 C 
ATOM     13  C   UNL     1       2.402   3.205  21.630  0.00  0.00    +0.000 C 
ENDBRANCH  11  12
ENDBRANCH   5  11
ENDBRANCH   1   5
BRANCH   2  14
ATOM     14  C   UNL     1       2.154   8.168  18.320  0.00  0.00    +0.000 C 
ATOM     15  O   UNL     1       2.287   8.799  17.288  0.00  0.00    +0.000 OA
BRANCH  14  16
ATOM     16  C   UNL     1       1.449   8.780  19.509  0.00  0.00    +0.000 A 
ATOM     17  C   UNL     1       1.497   8.186  20.773  0.00  0.00    +0.000 A 
ATOM     18  C   UNL     1       0.766   8.689  21.851  0.00  0.00    +0.000 A 
ATOM     19  C   UNL     1       0.009   9.837  21.682  0.00  0.00    +0.000 A 
ATOM     20 CL   UNL     1      -0.901  10.441  23.010  0.00  0.00    +0.000 Cl
ATOM     21  C   UNL     1      -0.015  10.490  20.448  0.00  0.00    +0.000 A 
ATOM     22  C   UNL     1       0.699   9.957  19.358  0.00  0.00    +0.000 A 
ENDBRANCH  14  16
ENDBRANCH   2  14
BRANCH   3  23
ATOM     23  C   UNL     1       3.499   4.851  16.796  0.00  0.00    +0.000 C 
ATOM     24  C   UNL     1       4.345   4.225  15.948  0.00  0.00    +0.000 C 
BRANCH  24  25
ATOM     25  C   UNL     1       5.518   4.759  15.230  0.00  0.00    +0.000 C 
ATOM     26  O   UNL     1       5.810   5.928  15.072  0.00  0.00    +0.000 OA
BRANCH  25  27
ATOM     27  O   UNL     1       6.142   3.698  14.649  0.00  0.00    +0.000 OA
BRANCH  27  28
ATOM     28  C   UNL     1       6.578   3.914  13.299  0.00  0.00    +0.000 C 
ATOM     29  C   UNL     1       5.525   3.303  12.390  0.00  0.00    +0.000 C 
ENDBRANCH  27  28
ENDBRANCH  25  27
ENDBRANCH  24  25
BRANCH  23  30
ATOM     30  O   UNL     1       2.404   4.141  17.307  0.00  0.00    +0.000 OA
BRANCH  30  31
ATOM     31  C   UNL     1       2.527   2.727  17.512  0.00  0.00    +0.000 C 
ATOM     32  C   UNL     1       1.378   2.276  18.386  0.00  0.00    +0.000 C 
ENDBRANCH  30  31
ENDBRANCH  23  30
ENDBRANCH   3  23
TORSDOF 14
ENDMDL
MODEL 2
REMARK VINA RESULT:      -6.3      1.205      4.684
REMARK  Name = 
REMARK  18 active torsions:
REMARK  status: ('A' for Active; 'I' for Inactive)
REMARK    1  A    between atoms: C_1  and  C_2
REMARK    2  A    between atoms: C_2  and  O_3
REMARK    3  A    between atoms: O_3  and  C_4
REMARK    4  A    between atoms: C_4  and  C_6
REMARK    5  A    between atoms: C_7  and  O_8
REMARK    6  A    between atoms: C_7  and  C_11
REMARK    7  A    between atoms: O_8  and  C_9
REMARK    8  A    between atoms: C_9  and  C_10
REMARK    9  A    between atoms: C_12  and  C_13
REMARK   10  A    between atoms: C_13  and  C_15
REMARK   11  A    between atoms: C_22  and  C_23
REMARK   12  A    between atoms: C_23  and  O_30
REMARK   13  A    between atoms: C_24  and  C_25
REMARK   14  A    between atoms: C_25  and  O_27
REMARK   15  A    between atoms: O_27  and  C_28
REMARK   16  A    between atoms: C_28  and  C_29
REMARK   17  A    between atoms: O_30  and  C_31
REMARK   18  A    between atoms: C_31  and  C_32
REMARK                            x       y       z     vdW  Elec       q    Type
REMARK                         _______ _______ _______ _____ _____    ______ ____
ROOT
ATOM      1  C   UNL     1       4.192   6.969  16.889  0.00  0.00    +0.000 C 
ATOM      2  C   UNL     1       3.572   7.538  18.124  0.00  0.00    +0.000 C 
ATOM      3  C   UNL     1       3.438   6.057  17.882  0.00  0.00    +0.000 C 
ENDROOT
BRANCH   1   5
ATOM      4  C   UNL     1       6.212   5.690  15.991  0.00  0.00    +0.000 C 
ATOM      5  C   UNL     1       5.637   6.693  16.689  0.00  0.00    +0.000 C 
BRANCH   4   6
ATOM      6  C   UNL     1       5.479   4.563  15.386  0.00  0.00    +0.000 C 
ATOM      7  O   UNL     1       5.189   3.520  15.938  0.00  0.00    +0.000 OA
BRANCH   6   8
ATOM      8  O   UNL     1       5.308   4.834  14.063  0.00  0.00    +0.000 OA
BRANCH   8  10
ATOM      9  C   UNL     1       6.695   3.822  12.405  0.00  0.00    +0.000 C 
ATOM     10  C   UNL     1       5.408   3.688  13.200  0.00  0.00    +0.000 C 
ENDBRANCH   8  10
ENDBRANCH   6   8
ENDBRANCH   4   6
BRANCH   5  11
ATOM     11  O   UNL     1       6.398   7.604  17.395  0.00  0.00    +0.000 OA
BRANCH  11  12
ATOM     12  C   UNL     1       7.801   7.716  17.221  0.00  0.00    +0.000 C 
ATOM     13  C   UNL     1       8.228   8.934  18.026  0.00  0.00    +0.000 C 
ENDBRANCH  11  12
ENDBRANCH   5  11
ENDBRANCH   1   5
BRANCH   2  14
ATOM     14  C   UNL     1       2.316   8.397  18.036  0.00  0.00    +0.000 C 
ATOM     15  O   UNL     1       1.881   8.767  16.962  0.00  0.00    +0.000 OA
BRANCH  14  16
ATOM     16  C   UNL     1       1.610   8.771  19.320  0.00  0.00    +0.000 A 
ATOM     17  C   UNL     1       1.709   7.978  20.468  0.00  0.00    +0.000 A 
ATOM     18  C   UNL     1       0.980   8.262  21.623  0.00  0.00    +0.000 A 
ATOM     19  C   UNL     1       0.172   9.387  21.658  0.00  0.00    +0.000 A 
ATOM     20 CL   UNL     1      -0.736   9.720  23.080  0.00  0.00    +0.000 Cl
ATOM     21  C   UNL     1       0.093  10.233  20.551  0.00  0.00    +0.000 A 
ATOM     22  C   UNL     1       0.807   9.921  19.377  0.00  0.00    +0.000 A 
ENDBRANCH  14  16
ENDBRANCH   2  14
BRANCH   3  23
ATOM     23  C   UNL     1       4.145   5.034  18.727  0.00  0.00    +0.000 C 
ATOM     24  C   UNL     1       3.850   3.724  18.881  0.00  0.00    +0.000 C 
BRANCH  24  25
ATOM     25  C   UNL     1       2.678   2.966  18.405  0.00  0.00    +0.000 C 
ATOM     26  O   UNL     1       2.249   2.918  17.269  0.00  0.00    +0.000 OA
BRANCH  25  27
ATOM     27  O   UNL     1       2.076   2.438  19.506  0.00  0.00    +0.000 OA
BRANCH  27  28
ATOM     28  C   UNL     1       1.909   3.349  20.602  0.00  0.00    +0.000 C 
ATOM     29  C   UNL     1       1.430   2.530  21.789  0.00  0.00    +0.000 C 
ENDBRANCH  27  28
ENDBRANCH  25  27
ENDBRANCH  24  25
BRANCH  23  30
ATOM     30  O   UNL     1       5.299   5.544  19.337  0.00  0.00    +0.000 OA
BRANCH  30  31
ATOM     31  C   UNL     1       6.468   4.716  19.417  0.00  0.00    +0.000 C 
ATOM     32  C   UNL     1       7.639   5.590  19.808  0.00  0.00    +0.000 C 
ENDBRANCH  30  31
ENDBRANCH  23  30
ENDBRANCH   3  23
TORSDOF 14
ENDMDL
MODEL 3
REMARK VINA RESULT:      -6.2      1.292      4.755
REMARK  Name = 
REMARK  18 active torsions:
REMARK  status: ('A' for Active; 'I' for Inactive)
REMARK    1  A    between atoms: C_1  and  C_2
REMARK    2  A    between atoms: C_2  and  O_3
REMARK    3  A    between atoms: O_3  and  C_4
REMARK    4  A    between atoms: C_4  and  C_6
REMARK    5  A    between atoms: C_7  and  O_8
REMARK    6  A    between atoms: C_7  and  C_11
REMARK    7  A    between atoms: O_8  and  C_9
REMARK    8  A    between atoms: C_9  and  C_10
REMARK    9  A    between atoms: C_12  and  C_13
REMARK   10  A    between atoms: C_13  and  C_15
REMARK   11  A    between atoms: C_22  and  C_23
REMARK   12  A    between atoms: C_23  and  O_30
REMARK   13  A    between atoms: C_24  and  C_25
REMARK   14  A    between atoms: C_25  and  O_27
REMARK   15  A    between atoms: O_27  and  C_28
REMARK   16  A    between atoms: C_28  and  C_29
REMARK   17  A    between atoms: O_30  and  C_31
REMARK   18  A    between atoms: C_31  and  C_32
REMARK                            x       y       z     vdW  Elec       q    Type
REMARK                         _______ _______ _______ _____ _____    ______ ____
ROOT
ATOM      1  C   UNL     1       4.120   7.008  16.937  0.00  0.00    +0.000 C 
ATOM      2  C   UNL     1       3.543   7.658  18.153  0.00  0.00    +0.000 C 
ATOM      3  C   UNL     1       3.385   6.167  18.003  0.00  0.00    +0.000 C 
ENDROOT
BRANCH   1   5
ATOM      4  C   UNL     1       6.097   5.709  15.975  0.00  0.00    +0.000 C 
ATOM      5  C   UNL     1       5.555   6.702  16.712  0.00  0.00    +0.000 C 
BRANCH   4   6
ATOM      6  C   UNL     1       5.329   4.622  15.341  0.00  0.00    +0.000 C 
ATOM      7  O   UNL     1       4.401   4.017  15.840  0.00  0.00    +0.000 OA
BRANCH   6   8
ATOM      8  O   UNL     1       5.928   4.318  14.157  0.00  0.00    +0.000 OA
BRANCH   8  10
ATOM      9  C   UNL     1       7.508   4.957  12.485  0.00  0.00    +0.000 C 
ATOM     10  C   UNL     1       7.228   4.906  13.977  0.00  0.00    +0.000 C 
ENDBRANCH   8  10
ENDBRANCH   6   8
ENDBRANCH   4   6
BRANCH   5  11
ATOM     11  O   UNL     1       6.346   7.571  17.439  0.00  0.00    +0.000 OA
BRANCH  11  12
ATOM     12  C   UNL     1       7.736   7.712  17.197  0.00  0.00    +0.000 C 
ATOM     13  C   UNL     1       8.185   8.916  18.011  0.00  0.00    +0.000 C 
ENDBRANCH  11  12
ENDBRANCH   5  11
ENDBRANCH   1   5
BRANCH   2  14
ATOM     14  C   UNL     1       2.294   8.526  18.052  0.00  0.00    +0.000 C 
ATOM     15  O   UNL     1       1.921   8.965  16.981  0.00  0.00    +0.000 OA
BRANCH  14  16
ATOM     16  C   UNL     1       1.519   8.820  19.316  0.00  0.00    +0.000 A 
ATOM     17  C   UNL     1       0.630   9.897  19.396  0.00  0.00    +0.000 A 
ATOM     18  C   UNL     1      -0.010  10.235  20.589  0.00  0.00    +0.000 A 
ATOM     19  C   UNL     1       0.197   9.456  21.716  0.00  0.00    +0.000 A 
ATOM     20 CL   UNL     1      -0.584   9.889  23.185  0.00  0.00    +0.000 Cl
ATOM     21  C   UNL     1       1.032   8.339  21.658  0.00  0.00    +0.000 A 
ATOM     22  C   UNL     1       1.700   8.025  20.459  0.00  0.00    +0.000 A 
ENDBRANCH  14  16
ENDBRANCH   2  14
BRANCH   3  23
ATOM     23  C   UNL     1       4.106   5.186  18.887  0.00  0.00    +0.000 C 
ATOM     24  C   UNL     1       3.745   3.923  19.208  0.00  0.00    +0.000 C 
BRANCH  24  25
ATOM     25  C   UNL     1       2.486   3.208  18.924  0.00  0.00    +0.000 C 
ATOM     26  O   UNL     1       2.302   2.358  18.075  0.00  0.00    +0.000 OA
BRANCH  25  27
ATOM     27  O   UNL     1       1.525   3.780  19.699  0.00  0.00    +0.000 OA
BRANCH  27  28
ATOM     28  C   UNL     1       1.858   3.903  21.090  0.00  0.00    +0.000 C 
ATOM     29  C   UNL     1       1.505   2.580  21.749  0.00  0.00    +0.000 C 
ENDBRANCH  27  28
ENDBRANCH  25  27
ENDBRANCH  24  25
BRANCH  23  30
ATOM     30  O   UNL     1       5.344   5.670  19.331  0.00  0.00    +0.000 OA
BRANCH  30  31
ATOM     31  C   UNL     1       6.449   4.761  19.434  0.00  0.00    +0.000 C 
ATOM     32  C   UNL     1       7.694   5.565  19.738  0.00  0.00    +0.000 C 
ENDBRANCH  30  31
ENDBRANCH  23  30
ENDBRANCH   3  23
TORSDOF 14
ENDMDL
MODEL 4
REMARK VINA RESULT:      -6.1      0.980      1.258
REMARK  Name = 
REMARK  18 active torsions:
REMARK  status: ('A' for Active; 'I' for Inactive)
REMARK    1  A    between atoms: C_1  and  C_2
REMARK    2  A    between atoms: C_2  and  O_3
REMARK    3  A    between atoms: O_3  and  C_4
REMARK    4  A    between atoms: C_4  and  C_6
REMARK    5  A    between atoms: C_7  and  O_8
REMARK    6  A    between atoms: C_7  and  C_11
REMARK    7  A    between atoms: O_8  and  C_9
REMARK    8  A    between atoms: C_9  and  C_10
REMARK    9  A    between atoms: C_12  and  C_13
REMARK   10  A    between atoms: C_13  and  C_15
REMARK   11  A    between atoms: C_22  and  C_23
REMARK   12  A    between atoms: C_23  and  O_30
REMARK   13  A    between atoms: C_24  and  C_25
REMARK   14  A    between atoms: C_25  and  O_27
REMARK   15  A    between atoms: O_27  and  C_28
REMARK   16  A    between atoms: C_28  and  C_29
REMARK   17  A    between atoms: O_30  and  C_31
REMARK   18  A    between atoms: C_31  and  C_32
REMARK                            x       y       z     vdW  Elec       q    Type
REMARK                         _______ _______ _______ _____ _____    ______ ____
ROOT
ATOM      1  C   UNL     1       4.703   6.930  18.189  0.00  0.00    +0.000 C 
ATOM      2  C   UNL     1       3.221   6.865  18.371  0.00  0.00    +0.000 C 
ATOM      3  C   UNL     1       3.807   6.272  17.116  0.00  0.00    +0.000 C 
ENDROOT
BRANCH   1   5
ATOM      4  C   UNL     1       7.047   6.103  18.772  0.00  0.00    +0.000 C 
ATOM      5  C   UNL     1       5.701   6.058  18.857  0.00  0.00    +0.000 C 
BRANCH   4   6
ATOM      6  C   UNL     1       7.799   6.980  17.856  0.00  0.00    +0.000 C 
ATOM      7  O   UNL     1       7.881   6.852  16.649  0.00  0.00    +0.000 OA
BRANCH   6   8
ATOM      8  O   UNL     1       8.500   7.873  18.607  0.00  0.00    +0.000 OA
BRANCH   8  10
ATOM      9  C   UNL     1       9.226  10.092  19.105  0.00  0.00    +0.000 C 
ATOM     10  C   UNL     1       8.382   9.239  18.174  0.00  0.00    +0.000 C 
ENDBRANCH   8  10
ENDBRANCH   6   8
ENDBRANCH   4   6
BRANCH   5  11
ATOM     11  O   UNL     1       5.061   5.077  19.590  0.00  0.00    +0.000 OA
BRANCH  11  12
ATOM     12  C   UNL     1       5.521   3.736  19.625  0.00  0.00    +0.000 C 
ATOM     13  C   UNL     1       4.385   2.917  20.218  0.00  0.00    +0.000 C 
ENDBRANCH  11  12
ENDBRANCH   5  11
ENDBRANCH   1   5
BRANCH   2  14
ATOM     14  C   UNL     1       2.366   8.120  18.242  0.00  0.00    +0.000 C 
ATOM     15  O   UNL     1       2.267   8.705  17.180  0.00  0.00    +0.000 OA
BRANCH  14  16
ATOM     16  C   UNL     1       1.630   8.618  19.465  0.00  0.00    +0.000 A 
ATOM     17  C   UNL     1       1.641   7.904  20.667  0.00  0.00    +0.000 A 
ATOM     18  C   UNL     1       0.882   8.304  21.768  0.00  0.00    +0.000 A 
ATOM     19  C   UNL     1       0.134   9.468  21.690  0.00  0.00    +0.000 A 
ATOM     20 CL   UNL     1      -0.811   9.946  23.045  0.00  0.00    +0.000 Cl
ATOM     21  C   UNL     1       0.145  10.237  20.525  0.00  0.00    +0.000 A 
ATOM     22  C   UNL     1       0.888   9.808  19.408  0.00  0.00    +0.000 A 
ENDBRANCH  14  16
ENDBRANCH   2  14
BRANCH   3  23
ATOM     23  C   UNL     1       3.826   4.791  16.855  0.00  0.00    +0.000 C 
ATOM     24  C   UNL     1       4.614   4.100  16.002  0.00  0.00    +0.000 C 
BRANCH  24  25
ATOM     25  C   UNL     1       5.555   4.599  14.981  0.00  0.00    +0.000 C 
ATOM     26  O   UNL     1       5.796   5.760  14.714  0.00  0.00    +0.000 OA
BRANCH  25  27
ATOM     27  O   UNL     1       6.001   3.514  14.292  0.00  0.00    +0.000 OA
BRANCH  27  28
ATOM     28  C   UNL     1       6.417   3.780  12.944  0.00  0.00    +0.000 C 
ATOM     29  C   UNL     1       5.562   2.912  12.037  0.00  0.00    +0.000 C 
ENDBRANCH  27  28
ENDBRANCH  25  27
ENDBRANCH  24  25
BRANCH  23  30
ATOM     30  O   UNL     1       2.955   4.085  17.696  0.00  0.00    +0.000 OA
BRANCH  30  31
ATOM     31  C   UNL     1       2.356   2.873  17.216  0.00  0.00    +0.000 C 
ATOM     32  C   UNL     1       1.455   2.330  18.303  0.00  0.00    +0.000 C 
ENDBRANCH  30  31
ENDBRANCH  23  30
ENDBRANCH   3  23
TORSDOF 14
ENDMDL
MODEL 5
REMARK VINA RESULT:      -6.1      0.850      1.213
REMARK  Name = 
REMARK  18 active torsions:
REMARK  status: ('A' for Active; 'I' for Inactive)
REMARK    1  A    between atoms: C_1  and  C_2
REMARK    2  A    between atoms: C_2  and  O_3
REMARK    3  A    between atoms: O_3  and  C_4
REMARK    4  A    between atoms: C_4  and  C_6
REMARK    5  A    between atoms: C_7  and  O_8
REMARK    6  A    between atoms: C_7  and  C_11
REMARK    7  A    between atoms: O_8  and  C_9
REMARK    8  A    between atoms: C_9  and  C_10
REMARK    9  A    between atoms: C_12  and  C_13
REMARK   10  A    between atoms: C_13  and  C_15
REMARK   11  A    between atoms: C_22  and  C_23
REMARK   12  A    between atoms: C_23  and  O_30
REMARK   13  A    between atoms: C_24  and  C_25
REMARK   14  A    between atoms: C_25  and  O_27
REMARK   15  A    between atoms: O_27  and  C_28
REMARK   16  A    between atoms: C_28  and  C_29
REMARK   17  A    between atoms: O_30  and  C_31
REMARK   18  A    between atoms: C_31  and  C_32
REMARK                            x       y       z     vdW  Elec       q    Type
REMARK                         _______ _______ _______ _____ _____    ______ ____
ROOT
ATOM      1  C   UNL     1       4.643   6.251  18.576  0.00  0.00    +0.000 C 
ATOM      2  C   UNL     1       3.229   6.392  18.109  0.00  0.00    +0.000 C 
ATOM      3  C   UNL     1       4.274   5.998  17.098  0.00  0.00    +0.000 C 
ENDROOT
BRANCH   1   5
ATOM      4  C   UNL     1       6.464   4.636  19.346  0.00  0.00    +0.000 C 
ATOM      5  C   UNL     1       5.197   5.103  19.336  0.00  0.00    +0.000 C 
BRANCH   4   6
ATOM      6  C   UNL     1       7.542   5.120  18.465  0.00  0.00    +0.000 C 
ATOM      7  O   UNL     1       8.117   4.469  17.614  0.00  0.00    +0.000 OA
BRANCH   6   8
ATOM      8  O   UNL     1       7.880   6.377  18.864  0.00  0.00    +0.000 OA
BRANCH   8  10
ATOM      9  C   UNL     1       8.402   8.656  18.380  0.00  0.00    +0.000 C 
ATOM     10  C   UNL     1       7.808   7.372  17.828  0.00  0.00    +0.000 C 
ENDBRANCH   8  10
ENDBRANCH   6   8
ENDBRANCH   4   6
BRANCH   5  11
ATOM     11  O   UNL     1       4.193   4.471  20.044  0.00  0.00    +0.000 OA
BRANCH  11  12
ATOM     12  C   UNL     1       4.167   3.066  20.229  0.00  0.00    +0.000 C 
ATOM     13  C   UNL     1       2.998   2.787  21.162  0.00  0.00    +0.000 C 
ENDBRANCH  11  12
ENDBRANCH   5  11
ENDBRANCH   1   5
BRANCH   2  14
ATOM     14  C   UNL     1       2.588   7.769  17.981  0.00  0.00    +0.000 C 
ATOM     15  O   UNL     1       2.699   8.420  16.959  0.00  0.00    +0.000 OA
BRANCH  14  16
ATOM     16  C   UNL     1       1.796   8.305  19.152  0.00  0.00    +0.000 A 
ATOM     17  C   UNL     1       1.060   9.490  19.056  0.00  0.00    +0.000 A 
ATOM     18  C   UNL     1       0.411  10.044  20.161  0.00  0.00    +0.000 A 
ATOM     19  C   UNL     1       0.451   9.379  21.376  0.00  0.00    +0.000 A 
ATOM     20 CL   UNL     1      -0.338  10.076  22.736  0.00  0.00    +0.000 Cl
ATOM     21  C   UNL     1       1.127   8.164  21.493  0.00  0.00    +0.000 A 
ATOM     22  C   UNL     1       1.807   7.629  20.382  0.00  0.00    +0.000 A 
ENDBRANCH  14  16
ENDBRANCH   2  14
BRANCH   3  23
ATOM     23  C   UNL     1       4.325   4.626  16.483  0.00  0.00    +0.000 C 
ATOM     24  C   UNL     1       5.167   4.164  15.532  0.00  0.00    +0.000 C 
BRANCH  24  25
ATOM     25  C   UNL     1       6.156   4.897  14.720  0.00  0.00    +0.000 C 
ATOM     26  O   UNL     1       6.828   5.848  15.067  0.00  0.00    +0.000 OA
BRANCH  25  27
ATOM     27  O   UNL     1       6.075   4.399  13.456  0.00  0.00    +0.000 OA
BRANCH  27  28
ATOM     28  C   UNL     1       5.101   3.361  13.273  0.00  0.00    +0.000 C 
ATOM     29  C   UNL     1       4.766   3.324  11.791  0.00  0.00    +0.000 C 
ENDBRANCH  27  28
ENDBRANCH  25  27
ENDBRANCH  24  25
BRANCH  23  30
ATOM     30  O   UNL     1       3.417   3.737  17.074  0.00  0.00    +0.000 OA
BRANCH  30  31
ATOM     31  C   UNL     1       2.019   4.057  17.057  0.00  0.00    +0.000 C 
ATOM     32  C   UNL     1       1.325   3.193  18.087  0.00  0.00    +0.000 C 
ENDBRANCH  30  31
ENDBRANCH  23  30
ENDBRANCH   3  23
TORSDOF 14
ENDMDL
MODEL 6
REMARK VINA RESULT:      -6.1      1.924      4.710
REMARK  Name = 
REMARK  18 active torsions:
REMARK  status: ('A' for Active; 'I' for Inactive)
REMARK    1  A    between atoms: C_1  and  C_2
REMARK    2  A    between atoms: C_2  and  O_3
REMARK    3  A    between atoms: O_3  and  C_4
REMARK    4  A    between atoms: C_4  and  C_6
REMARK    5  A    between atoms: C_7  and  O_8
REMARK    6  A    between atoms: C_7  and  C_11
REMARK    7  A    between atoms: O_8  and  C_9
REMARK    8  A    between atoms: C_9  and  C_10
REMARK    9  A    between atoms: C_12  and  C_13
REMARK   10  A    between atoms: C_13  and  C_15
REMARK   11  A    between atoms: C_22  and  C_23
REMARK   12  A    between atoms: C_23  and  O_30
REMARK   13  A    between atoms: C_24  and  C_25
REMARK   14  A    between atoms: C_25  and  O_27
REMARK   15  A    between atoms: O_27  and  C_28
REMARK   16  A    between atoms: C_28  and  C_29
REMARK   17  A    between atoms: O_30  and  C_31
REMARK   18  A    between atoms: C_31  and  C_32
REMARK                            x       y       z     vdW  Elec       q    Type
REMARK                         _______ _______ _______ _____ _____    ______ ____
ROOT
ATOM      1  C   UNL     1       3.873   4.193  19.768  0.00  0.00    +0.000 C 
ATOM      2  C   UNL     1       3.060   5.310  19.197  0.00  0.00    +0.000 C 
ATOM      3  C   UNL     1       4.557   5.474  19.242  0.00  0.00    +0.000 C 
ENDROOT
BRANCH   1   5
ATOM      4  C   UNL     1       3.559   2.321  18.060  0.00  0.00    +0.000 C 
ATOM      5  C   UNL     1       4.209   2.921  19.080  0.00  0.00    +0.000 C 
BRANCH   4   6
ATOM      6  C   UNL     1       2.268   2.770  17.510  0.00  0.00    +0.000 C 
ATOM      7  O   UNL     1       2.107   3.658  16.695  0.00  0.00    +0.000 OA
BRANCH   6   8
ATOM      8  O   UNL     1       1.276   2.116  18.175  0.00  0.00    +0.000 OA
BRANCH   8  10
ATOM      9  C   UNL     1       0.789   2.675  20.444  0.00  0.00    +0.000 C 
ATOM     10  C   UNL     1       0.447   2.960  18.992  0.00  0.00    +0.000 C 
ENDBRANCH   8  10
ENDBRANCH   6   8
ENDBRANCH   4   6
BRANCH   5  11
ATOM     11  O   UNL     1       5.310   2.335  19.674  0.00  0.00    +0.000 OA
BRANCH  11  12
ATOM     12  C   UNL     1       5.230   1.668  20.923  0.00  0.00    +0.000 C 
ATOM     13  C   UNL     1       5.570   0.212  20.643  0.00  0.00    +0.000 C 
ENDBRANCH  11  12
ENDBRANCH   5  11
ENDBRANCH   1   5
BRANCH   2  14
ATOM     14  C   UNL     1       2.213   6.196  20.102  0.00  0.00    +0.000 C 
ATOM     15  O   UNL     1       1.772   5.778  21.156  0.00  0.00    +0.000 OA
BRANCH  14  16
ATOM     16  C   UNL     1       1.940   7.618  19.665  0.00  0.00    +0.000 A 
ATOM     17  C   UNL     1       1.296   8.531  20.505  0.00  0.00    +0.000 A 
ATOM     18  C   UNL     1       0.950   9.812  20.073  0.00  0.00    +0.000 A 
ATOM     19  C   UNL     1       1.298  10.214  18.793  0.00  0.00    +0.000 A 
ATOM     20 CL   UNL     1       0.855  11.788  18.263  0.00  0.00    +0.000 Cl
ATOM     21  C   UNL     1       1.994   9.349  17.947  0.00  0.00    +0.000 A 
ATOM     22  C   UNL     1       2.309   8.046  18.380  0.00  0.00    +0.000 A 
ENDBRANCH  14  16
ENDBRANCH   2  14
BRANCH   3  23
ATOM     23  C   UNL     1       5.407   5.477  18.001  0.00  0.00    +0.000 C 
ATOM     24  C   UNL     1       6.753   5.552  17.907  0.00  0.00    +0.000 C 
BRANCH  24  25
ATOM     25  C   UNL     1       7.754   5.810  18.960  0.00  0.00    +0.000 C 
ATOM     26  O   UNL     1       8.209   5.006  19.750  0.00  0.00    +0.000 OA
BRANCH  25  27
ATOM     27  O   UNL     1       7.969   7.154  18.977  0.00  0.00    +0.000 OA
BRANCH  27  28
ATOM     28  C   UNL     1       7.896   7.797  17.697  0.00  0.00    +0.000 C 
ATOM     29  C   UNL     1       8.324   9.241  17.902  0.00  0.00    +0.000 C 
ENDBRANCH  27  28
ENDBRANCH  25  27
ENDBRANCH  24  25
BRANCH  23  30
ATOM     30  O   UNL     1       4.656   5.287  16.833  0.00  0.00    +0.000 OA
BRANCH  30  31
ATOM     31  C   UNL     1       5.296   5.453  15.560  0.00  0.00    +0.000 C 
ATOM     32  C   UNL     1       5.604   4.079  15.005  0.00  0.00    +0.000 C 
ENDBRANCH  30  31
ENDBRANCH  23  30
ENDBRANCH   3  23
TORSDOF 14
ENDMDL
MODEL 7
REMARK VINA RESULT:      -5.9      1.382      4.610
REMARK  Name = 
REMARK  18 active torsions:
REMARK  status: ('A' for Active; 'I' for Inactive)
REMARK    1  A    between atoms: C_1  and  C_2
REMARK    2  A    between atoms: C_2  and  O_3
REMARK    3  A    between atoms: O_3  and  C_4
REMARK    4  A    between atoms: C_4  and  C_6
REMARK    5  A    between atoms: C_7  and  O_8
REMARK    6  A    between atoms: C_7  and  C_11
REMARK    7  A    between atoms: O_8  and  C_9
REMARK    8  A    between atoms: C_9  and  C_10
REMARK    9  A    between atoms: C_12  and  C_13
REMARK   10  A    between atoms: C_13  and  C_15
REMARK   11  A    between atoms: C_22  and  C_23
REMARK   12  A    between atoms: C_23  and  O_30
REMARK   13  A    between atoms: C_24  and  C_25
REMARK   14  A    between atoms: C_25  and  O_27
REMARK   15  A    between atoms: O_27  and  C_28
REMARK   16  A    between atoms: C_28  and  C_29
REMARK   17  A    between atoms: O_30  and  C_31
REMARK   18  A    between atoms: C_31  and  C_32
REMARK                            x       y       z     vdW  Elec       q    Type
REMARK                         _______ _______ _______ _____ _____    ______ ____
ROOT
ATOM      1  C   UNL     1       4.569   6.727  16.967  0.00  0.00    +0.000 C 
ATOM      2  C   UNL     1       3.876   7.286  18.168  0.00  0.00    +0.000 C 
ATOM      3  C   UNL     1       3.923   5.788  18.010  0.00  0.00    +0.000 C 
ENDROOT
BRANCH   1   5
ATOM      4  C   UNL     1       6.729   5.705  16.067  0.00  0.00    +0.000 C 
ATOM      5  C   UNL     1       6.038   6.617  16.784  0.00  0.00    +0.000 C 
BRANCH   4   6
ATOM      6  C   UNL     1       6.132   4.524  15.418  0.00  0.00    +0.000 C 
ATOM      7  O   UNL     1       5.776   3.504  15.977  0.00  0.00    +0.000 OA
BRANCH   6   8
ATOM      8  O   UNL     1       6.178   4.714  14.071  0.00  0.00    +0.000 OA
BRANCH   8  10
ATOM      9  C   UNL     1       6.363   3.291  12.163  0.00  0.00    +0.000 C 
ATOM     10  C   UNL     1       5.462   3.732  13.304  0.00  0.00    +0.000 C 
ENDBRANCH   8  10
ENDBRANCH   6   8
ENDBRANCH   4   6
BRANCH   5  11
ATOM     11  O   UNL     1       6.684   7.585  17.528  0.00  0.00    +0.000 OA
BRANCH  11  12
ATOM     12  C   UNL     1       8.053   7.902  17.333  0.00  0.00    +0.000 C 
ATOM     13  C   UNL     1       8.326   9.130  18.187  0.00  0.00    +0.000 C 
ENDBRANCH  11  12
ENDBRANCH   5  11
ENDBRANCH   1   5
BRANCH   2  14
ATOM     14  C   UNL     1       2.526   7.980  18.033  0.00  0.00    +0.000 C 
ATOM     15  O   UNL     1       2.045   8.210  16.939  0.00  0.00    +0.000 OA
BRANCH  14  16
ATOM     16  C   UNL     1       1.787   8.368  19.294  0.00  0.00    +0.000 A 
ATOM     17  C   UNL     1       1.054   9.555  19.377  0.00  0.00    +0.000 A 
ATOM     18  C   UNL     1       0.456   9.969  20.568  0.00  0.00    +0.000 A 
ATOM     19  C   UNL     1       0.544   9.160  21.689  0.00  0.00    +0.000 A 
ATOM     20 CL   UNL     1      -0.183   9.685  23.157  0.00  0.00    +0.000 Cl
ATOM     21  C   UNL     1       1.219   7.940  21.627  0.00  0.00    +0.000 A 
ATOM     22  C   UNL     1       1.848   7.546  20.431  0.00  0.00    +0.000 A 
ENDBRANCH  14  16
ENDBRANCH   2  14
BRANCH   3  23
ATOM     23  C   UNL     1       4.743   4.907  18.912  0.00  0.00    +0.000 C 
ATOM     24  C   UNL     1       4.592   3.586  19.158  0.00  0.00    +0.000 C 
BRANCH  24  25
ATOM     25  C   UNL     1       3.505   2.676  18.750  0.00  0.00    +0.000 C 
ATOM     26  O   UNL     1       3.570   1.776  17.936  0.00  0.00    +0.000 OA
BRANCH  25  27
ATOM     27  O   UNL     1       2.370   3.123  19.353  0.00  0.00    +0.000 OA
BRANCH  27  28
ATOM     28  C   UNL     1       1.187   3.060  18.543  0.00  0.00    +0.000 C 
ATOM     29  C   UNL     1       1.271   4.204  17.547  0.00  0.00    +0.000 C 
ENDBRANCH  27  28
ENDBRANCH  25  27
ENDBRANCH  24  25
BRANCH  23  30
ATOM     30  O   UNL     1       5.840   5.578  19.469  0.00  0.00    +0.000 OA
BRANCH  30  31
ATOM     31  C   UNL     1       7.128   4.948  19.442  0.00  0.00    +0.000 C 
ATOM     32  C   UNL     1       8.115   5.862  20.135  0.00  0.00    +0.000 C 
ENDBRANCH  30  31
ENDBRANCH  23  30
ENDBRANCH   3  23
TORSDOF 14
ENDMDL
MODEL 8
REMARK VINA RESULT:      -5.9      1.275      3.772
REMARK  Name = 
REMARK  18 active torsions:
REMARK  status: ('A' for Active; 'I' for Inactive)
REMARK    1  A    between atoms: C_1  and  C_2
REMARK    2  A    between atoms: C_2  and  O_3
REMARK    3  A    between atoms: O_3  and  C_4
REMARK    4  A    between atoms: C_4  and  C_6
REMARK    5  A    between atoms: C_7  and  O_8
REMARK    6  A    between atoms: C_7  and  C_11
REMARK    7  A    between atoms: O_8  and  C_9
REMARK    8  A    between atoms: C_9  and  C_10
REMARK    9  A    between atoms: C_12  and  C_13
REMARK   10  A    between atoms: C_13  and  C_15
REMARK   11  A    between atoms: C_22  and  C_23
REMARK   12  A    between atoms: C_23  and  O_30
REMARK   13  A    between atoms: C_24  and  C_25
REMARK   14  A    between atoms: C_25  and  O_27
REMARK   15  A    between atoms: O_27  and  C_28
REMARK   16  A    between atoms: C_28  and  C_29
REMARK   17  A    between atoms: O_30  and  C_31
REMARK   18  A    between atoms: C_31  and  C_32
REMARK                            x       y       z     vdW  Elec       q    Type
REMARK                         _______ _______ _______ _____ _____    ______ ____
ROOT
ATOM      1  C   UNL     1       4.009   6.731  17.543  0.00  0.00    +0.000 C 
ATOM      2  C   UNL     1       3.214   7.330  18.658  0.00  0.00    +0.000 C 
ATOM      3  C   UNL     1       2.894   5.919  18.237  0.00  0.00    +0.000 C 
ENDROOT
BRANCH   1   5
ATOM      4  C   UNL     1       6.233   5.844  16.654  0.00  0.00    +0.000 C 
ATOM      5  C   UNL     1       5.391   6.200  17.648  0.00  0.00    +0.000 C 
BRANCH   4   6
ATOM      6  C   UNL     1       5.868   5.792  15.227  0.00  0.00    +0.000 C 
ATOM      7  O   UNL     1       5.109   6.549  14.654  0.00  0.00    +0.000 OA
BRANCH   6   8
ATOM      8  O   UNL     1       6.417   4.667  14.692  0.00  0.00    +0.000 OA
BRANCH   8  10
ATOM      9  C   UNL     1       6.559   3.717  12.506  0.00  0.00    +0.000 C 
ATOM     10  C   UNL     1       5.629   4.050  13.660  0.00  0.00    +0.000 C 
ENDBRANCH   8  10
ENDBRANCH   6   8
ENDBRANCH   4   6
BRANCH   5  11
ATOM     11  O   UNL     1       5.738   6.036  18.975  0.00  0.00    +0.000 OA
BRANCH  11  12
ATOM     12  C   UNL     1       6.780   5.164  19.383  0.00  0.00    +0.000 C 
ATOM     13  C   UNL     1       8.048   6.004  19.403  0.00  0.00    +0.000 C 
ENDBRANCH  11  12
ENDBRANCH   5  11
ENDBRANCH   1   5
BRANCH   2  14
ATOM     14  C   UNL     1       2.180   8.415  18.379  0.00  0.00    +0.000 C 
ATOM     15  O   UNL     1       1.966   8.801  17.245  0.00  0.00    +0.000 OA
BRANCH  14  16
ATOM     16  C   UNL     1       1.414   8.994  19.546  0.00  0.00    +0.000 A 
ATOM     17  C   UNL     1       1.448   8.401  20.811  0.00  0.00    +0.000 A 
ATOM     18  C   UNL     1       0.663   8.870  21.866  0.00  0.00    +0.000 A 
ATOM     19  C   UNL     1      -0.135   9.987  21.674  0.00  0.00    +0.000 A 
ATOM     20 CL   UNL     1      -1.110  10.550  22.974  0.00  0.00    +0.000 Cl
ATOM     21  C   UNL     1      -0.149  10.640  20.441  0.00  0.00    +0.000 A 
ATOM     22  C   UNL     1       0.620  10.140  19.372  0.00  0.00    +0.000 A 
ENDBRANCH  14  16
ENDBRANCH   2  14
BRANCH   3  23
ATOM     23  C   UNL     1       3.192   4.730  19.108  0.00  0.00    +0.000 C 
ATOM     24  C   UNL     1       3.507   3.471  18.730  0.00  0.00    +0.000 C 
BRANCH  24  25
ATOM     25  C   UNL     1       3.492   2.865  17.385  0.00  0.00    +0.000 C 
ATOM     26  O   UNL     1       4.300   3.041  16.494  0.00  0.00    +0.000 OA
BRANCH  25  27
ATOM     27  O   UNL     1       2.322   2.179  17.275  0.00  0.00    +0.000 OA
BRANCH  27  28
ATOM     28  C   UNL     1       1.794   1.676  18.511  0.00  0.00    +0.000 C 
ATOM     29  C   UNL     1       0.457   2.362  18.733  0.00  0.00    +0.000 C 
ENDBRANCH  27  28
ENDBRANCH  25  27
ENDBRANCH  24  25
BRANCH  23  30
ATOM     30  O   UNL     1       3.217   5.054  20.472  0.00  0.00    +0.000 OA
BRANCH  30  31
ATOM     31  C   UNL     1       2.057   4.786  21.271  0.00  0.00    +0.000 C 
ATOM     32  C   UNL     1       2.182   3.385  21.830  0.00  0.00    +0.000 C 
ENDBRANCH  30  31
ENDBRANCH  23  30
ENDBRANCH   3  23
TORSDOF 14
ENDMDL
MODEL 9
REMARK VINA RESULT:      -5.8      1.178      4.642
REMARK  Name = 
REMARK  18 active torsions:
REMARK  status: ('A' for Active; 'I' for Inactive)
REMARK    1  A    between atoms: C_1  and  C_2
REMARK    2  A    between atoms: C_2  and  O_3
REMARK    3  A    between atoms: O_3  and  C_4
REMARK    4  A    between atoms: C_4  and  C_6
REMARK    5  A    between atoms: C_7  and  O_8
REMARK    6  A    between atoms: C_7  and  C_11
REMARK    7  A    between atoms: O_8  and  C_9
REMARK    8  A    between atoms: C_9  and  C_10
REMARK    9  A    between atoms: C_12  and  C_13
REMARK   10  A    between atoms: C_13  and  C_15
REMARK   11  A    between atoms: C_22  and  C_23
REMARK   12  A    between atoms: C_23  and  O_30
REMARK   13  A    between atoms: C_24  and  C_25
REMARK   14  A    between atoms: C_25  and  O_27
REMARK   15  A    between atoms: O_27  and  C_28
REMARK   16  A    between atoms: C_28  and  C_29
REMARK   17  A    between atoms: O_30  and  C_31
REMARK   18  A    between atoms: C_31  and  C_32
REMARK                            x       y       z     vdW  Elec       q    Type
REMARK                         _______ _______ _______ _____ _____    ______ ____
ROOT
ATOM      1  C   UNL     1       4.086   6.863  17.129  0.00  0.00    +0.000 C 
ATOM      2  C   UNL     1       3.556   7.664  18.274  0.00  0.00    +0.000 C 
ATOM      3  C   UNL     1       3.489   6.162  18.369  0.00  0.00    +0.000 C 
ENDROOT
BRANCH   1   5
ATOM      4  C   UNL     1       6.072   5.539  16.221  0.00  0.00    +0.000 C 
ATOM      5  C   UNL     1       5.519   6.605  16.838  0.00  0.00    +0.000 C 
BRANCH   4   6
ATOM      6  C   UNL     1       5.336   4.325  15.826  0.00  0.00    +0.000 C 
ATOM      7  O   UNL     1       4.257   3.970  16.260  0.00  0.00    +0.000 OA
BRANCH   6   8
ATOM      8  O   UNL     1       6.135   3.598  14.998  0.00  0.00    +0.000 OA
BRANCH   8  10
ATOM      9  C   UNL     1       5.923   3.451  12.625  0.00  0.00    +0.000 C 
ATOM     10  C   UNL     1       6.491   4.264  13.775  0.00  0.00    +0.000 C 
ENDBRANCH   8  10
ENDBRANCH   6   8
ENDBRANCH   4   6
BRANCH   5  11
ATOM     11  O   UNL     1       6.300   7.620  17.356  0.00  0.00    +0.000 OA
BRANCH  11  12
ATOM     12  C   UNL     1       7.703   7.671  17.158  0.00  0.00    +0.000 C 
ATOM     13  C   UNL     1       8.192   8.886  17.933  0.00  0.00    +0.000 C 
ENDBRANCH  11  12
ENDBRANCH   5  11
ENDBRANCH   1   5
BRANCH   2  14
ATOM     14  C   UNL     1       2.247   8.435  18.142  0.00  0.00    +0.000 C 
ATOM     15  O   UNL     1       1.824   8.772  17.053  0.00  0.00    +0.000 OA
BRANCH  14  16
ATOM     16  C   UNL     1       1.476   8.762  19.401  0.00  0.00    +0.000 A 
ATOM     17  C   UNL     1       0.579   9.832  19.452  0.00  0.00    +0.000 A 
ATOM     18  C   UNL     1      -0.059  10.203  20.637  0.00  0.00    +0.000 A 
ATOM     19  C   UNL     1       0.161   9.461  21.787  0.00  0.00    +0.000 A 
ATOM     20 CL   UNL     1      -0.616   9.933  23.246  0.00  0.00    +0.000 Cl
ATOM     21  C   UNL     1       1.005   8.350  21.759  0.00  0.00    +0.000 A 
ATOM     22  C   UNL     1       1.670   8.004  20.567  0.00  0.00    +0.000 A 
ENDBRANCH  14  16
ENDBRANCH   2  14
BRANCH   3  23
ATOM     23  C   UNL     1       4.336   5.375  19.331  0.00  0.00    +0.000 C 
ATOM     24  C   UNL     1       4.002   4.268  20.032  0.00  0.00    +0.000 C 
BRANCH  24  25
ATOM     25  C   UNL     1       2.689   3.614  20.180  0.00  0.00    +0.000 C 
ATOM     26  O   UNL     1       1.898   3.755  21.092  0.00  0.00    +0.000 OA
BRANCH  25  27
ATOM     27  O   UNL     1       2.584   2.708  19.170  0.00  0.00    +0.000 OA
BRANCH  27  28
ATOM     28  C   UNL     1       1.289   2.630  18.555  0.00  0.00    +0.000 C 
ATOM     29  C   UNL     1       1.154   3.842  17.650  0.00  0.00    +0.000 C 
ENDBRANCH  27  28
ENDBRANCH  25  27
ENDBRANCH  24  25
BRANCH  23  30
ATOM     30  O   UNL     1       5.653   5.849  19.400  0.00  0.00    +0.000 OA
BRANCH  30  31
ATOM     31  C   UNL     1       6.727   4.903  19.506  0.00  0.00    +0.000 C 
ATOM     32  C   UNL     1       8.011   5.671  19.732  0.00  0.00    +0.000 C 
ENDBRANCH  30  31
ENDBRANCH  23  30
ENDBRANCH   3  23
TORSDOF 14
ENDMDL
