MODEL 1
REMARK VINA RESULT:      -7.5      0.000      0.000
REMARK  Name = 
REMARK  4 active torsions:
REMARK  status: ('A' for Active; 'I' for Inactive)
REMARK    1  A    between atoms: C_2  and  C_10
REMARK    2  A    between atoms: N_3  and  C_4
REMARK    3  A    between atoms: C_4  and  C_5
REMARK    4  A    between atoms: N_17  and  C_18
REMARK                            x       y       z     vdW  Elec       q    Type
REMARK                         _______ _______ _______ _____ _____    ______ ____
ROOT
ATOM      1  C   UNL     1       5.169   4.789  17.183  0.00  0.00    +0.000 C 
ATOM      2  C   UNL     1       6.690   4.799  16.989  0.00  0.00    +0.000 C 
ATOM      3  C   UNL     1       6.992   6.198  16.487  0.00  0.00    +0.000 C 
ATOM      4  C   UNL     1       5.924   7.068  17.127  0.00  0.00    +0.000 C 
ATOM      5  N   UNL     1       4.900   6.161  17.636  0.00  0.00    +0.000 N 
ATOM      6  C   UNL     1       3.630   6.532  18.060  0.00  0.00    +0.000 C 
ATOM      7  O   UNL     1       2.811   5.695  18.426  0.00  0.00    +0.000 OA
ATOM      8  N   UNL     1       3.404   7.892  18.034  0.00  0.00    +0.000 N 
ATOM      9  H   UNL     1       4.002   8.422  17.424  0.00  0.00    +0.000 HD
ENDROOT
BRANCH   8  10
ATOM     10  C   UNL     1       2.243   8.572  18.449  0.00  0.00    +0.000 A 
ATOM     11  C   UNL     1       1.434   9.321  17.595  0.00  0.00    +0.000 A 
ATOM     12  C   UNL     1       0.314   9.993  18.097  0.00  0.00    +0.000 A 
ATOM     13  C   UNL     1       0.007   9.916  19.456  0.00  0.00    +0.000 A 
ATOM     14 CL   UNL     1      -1.341  10.784  20.082  0.00  0.00    +0.000 Cl
ATOM     15  C   UNL     1       0.790   9.150  20.311  0.00  0.00    +0.000 A 
ATOM     16  C   UNL     1       1.895   8.466  19.806  0.00  0.00    +0.000 A 
ENDBRANCH   8  10
BRANCH   1  18
ATOM     17  O   UNL     1       5.423   3.407  19.144  0.00  0.00    +0.000 OA
ATOM     18  C   UNL     1       4.833   3.584  18.077  0.00  0.00    +0.000 C 
ATOM     19  N   UNL     1       3.715   2.871  17.726  0.00  0.00    +0.000 N 
ATOM     20  H   UNL     1       3.309   3.028  16.813  0.00  0.00    +0.000 HD
BRANCH  19  21
ATOM     21  C   UNL     1       3.272   1.753  18.522  0.00  0.00    +0.000 C 
BRANCH  21  22
ATOM     22  C   UNL     1       2.471   2.253  19.662  0.00  0.00    +0.000 A 
ATOM     23  C   UNL     1       1.172   2.698  19.782  0.00  0.00    +0.000 A 
ATOM     24  C   UNL     1       0.978   3.010  21.148  0.00  0.00    +0.000 A 
ATOM     25  C   UNL     1       2.172   2.739  21.775  0.00  0.00    +0.000 A 
ATOM     26  O   UNL     1       3.087   2.284  20.881  0.00  0.00    +0.000 OA
ENDBRANCH  21  22
ENDBRANCH  19  21
ENDBRANCH   1  18
TORSDOF 4
ENDMDL
MODEL 2
REMARK VINA RESULT:      -7.5      2.092      4.874
REMARK  Name = 
REMARK  4 active torsions:
REMARK  status: ('A' for Active; 'I' for Inactive)
REMARK    1  A    between atoms: C_2  and  C_10
REMARK    2  A    between atoms: N_3  and  C_4
REMARK    3  A    between atoms: C_4  and  C_5
REMARK    4  A    between atoms: N_17  and  C_18
REMARK                            x       y       z     vdW  Elec       q    Type
REMARK                         _______ _______ _______ _____ _____    ______ ____
ROOT
ATOM      1  C   UNL     1       3.497   3.714  19.679  0.00  0.00    +0.000 C 
ATOM      2  C   UNL     1       2.834   2.340  19.520  0.00  0.00    +0.000 C 
ATOM      3  C   UNL     1       1.644   2.391  20.459  0.00  0.00    +0.000 C 
ATOM      4  C   UNL     1       1.236   3.853  20.473  0.00  0.00    +0.000 C 
ATOM      5  N   UNL     1       2.343   4.599  19.883  0.00  0.00    +0.000 N 
ATOM      6  C   UNL     1       2.506   5.978  19.935  0.00  0.00    +0.000 C 
ATOM      7  O   UNL     1       3.497   6.520  19.455  0.00  0.00    +0.000 OA
ATOM      8  N   UNL     1       1.468   6.645  20.551  0.00  0.00    +0.000 N 
ATOM      9  H   UNL     1       0.904   6.093  21.173  0.00  0.00    +0.000 HD
ENDROOT
BRANCH   8  10
ATOM     10  C   UNL     1       1.323   8.036  20.710  0.00  0.00    +0.000 A 
ATOM     11  C   UNL     1       1.236   8.672  21.948  0.00  0.00    +0.000 A 
ATOM     12  C   UNL     1       1.059  10.059  22.015  0.00  0.00    +0.000 A 
ATOM     13  C   UNL     1       0.966  10.806  20.841  0.00  0.00    +0.000 A 
ATOM     14 CL   UNL     1       0.697  12.505  20.923  0.00  0.00    +0.000 Cl
ATOM     15  C   UNL     1       1.078  10.186  19.602  0.00  0.00    +0.000 A 
ATOM     16  C   UNL     1       1.273   8.808  19.537  0.00  0.00    +0.000 A 
ENDBRANCH   8  10
BRANCH   1  18
ATOM     17  O   UNL     1       3.985   4.003  17.334  0.00  0.00    +0.000 OA
ATOM     18  C   UNL     1       4.436   3.908  18.477  0.00  0.00    +0.000 C 
ATOM     19  N   UNL     1       5.745   4.184  18.777  0.00  0.00    +0.000 N 
ATOM     20  H   UNL     1       6.065   4.034  19.725  0.00  0.00    +0.000 HD
BRANCH  19  21
ATOM     21  C   UNL     1       6.706   4.437  17.732  0.00  0.00    +0.000 C 
BRANCH  21  22
ATOM     22  C   UNL     1       7.244   5.807  17.887  0.00  0.00    +0.000 A 
ATOM     23  C   UNL     1       8.033   6.410  18.843  0.00  0.00    +0.000 A 
ATOM     24  C   UNL     1       8.241   7.741  18.412  0.00  0.00    +0.000 A 
ATOM     25  C   UNL     1       7.563   7.868  17.222  0.00  0.00    +0.000 A 
ATOM     26  O   UNL     1       6.950   6.701  16.897  0.00  0.00    +0.000 OA
ENDBRANCH  21  22
ENDBRANCH  19  21
ENDBRANCH   1  18
TORSDOF 4
ENDMDL
MODEL 3
REMARK VINA RESULT:      -7.5      0.647      1.172
REMARK  Name = 
REMARK  4 active torsions:
REMARK  status: ('A' for Active; 'I' for Inactive)
REMARK    1  A    between atoms: C_2  and  C_10
REMARK    2  A    between atoms: N_3  and  C_4
REMARK    3  A    between atoms: C_4  and  C_5
REMARK    4  A    between atoms: N_17  and  C_18
REMARK                            x       y       z     vdW  Elec       q    Type
REMARK                         _______ _______ _______ _____ _____    ______ ____
ROOT
ATOM      1  C   UNL     1       4.483   4.577  16.625  0.00  0.00    +0.000 C 
ATOM      2  C   UNL     1       5.855   4.519  15.942  0.00  0.00    +0.000 C 
ATOM      3  C   UNL     1       5.988   5.868  15.262  0.00  0.00    +0.000 C 
ATOM      4  C   UNL     1       5.200   6.817  16.148  0.00  0.00    +0.000 C 
ATOM      5  N   UNL     1       4.393   5.985  17.033  0.00  0.00    +0.000 N 
ATOM      6  C   UNL     1       3.339   6.429  17.820  0.00  0.00    +0.000 C 
ATOM      7  O   UNL     1       2.678   5.649  18.499  0.00  0.00    +0.000 OA
ATOM      8  N   UNL     1       3.131   7.791  17.766  0.00  0.00    +0.000 N 
ATOM      9  H   UNL     1       3.499   8.256  16.954  0.00  0.00    +0.000 HD
ENDROOT
BRANCH   8  10
ATOM     10  C   UNL     1       2.179   8.539  18.485  0.00  0.00    +0.000 A 
ATOM     11  C   UNL     1       1.862   8.312  19.824  0.00  0.00    +0.000 A 
ATOM     12  C   UNL     1       0.877   9.082  20.453  0.00  0.00    +0.000 A 
ATOM     13  C   UNL     1       0.209  10.077  19.739  0.00  0.00    +0.000 A 
ATOM     14 CL   UNL     1      -1.038  10.989  20.499  0.00  0.00    +0.000 Cl
ATOM     15  C   UNL     1       0.536  10.329  18.412  0.00  0.00    +0.000 A 
ATOM     16  C   UNL     1       1.529   9.574  17.792  0.00  0.00    +0.000 A 
ENDBRANCH   8  10
BRANCH   1  18
ATOM     17  O   UNL     1       5.284   3.402  18.574  0.00  0.00    +0.000 OA
ATOM     18  C   UNL     1       4.448   3.449  17.669  0.00  0.00    +0.000 C 
ATOM     19  N   UNL     1       3.329   2.656  17.659  0.00  0.00    +0.000 N 
ATOM     20  H   UNL     1       2.710   2.706  16.861  0.00  0.00    +0.000 HD
BRANCH  19  21
ATOM     21  C   UNL     1       3.162   1.601  18.628  0.00  0.00    +0.000 C 
BRANCH  21  22
ATOM     22  C   UNL     1       2.460   2.137  19.815  0.00  0.00    +0.000 A 
ATOM     23  C   UNL     1       1.142   2.451  20.073  0.00  0.00    +0.000 A 
ATOM     24  C   UNL     1       1.089   2.891  21.416  0.00  0.00    +0.000 A 
ATOM     25  C   UNL     1       2.377   2.822  21.892  0.00  0.00    +0.000 A 
ATOM     26  O   UNL     1       3.219   2.371  20.927  0.00  0.00    +0.000 OA
ENDBRANCH  21  22
ENDBRANCH  19  21
ENDBRANCH   1  18
TORSDOF 4
ENDMDL
MODEL 4
REMARK VINA RESULT:      -7.4      1.995      4.722
REMARK  Name = 
REMARK  4 active torsions:
REMARK  status: ('A' for Active; 'I' for Inactive)
REMARK    1  A    between atoms: C_2  and  C_10
REMARK    2  A    between atoms: N_3  and  C_4
REMARK    3  A    between atoms: C_4  and  C_5
REMARK    4  A    between atoms: N_17  and  C_18
REMARK                            x       y       z     vdW  Elec       q    Type
REMARK                         _______ _______ _______ _____ _____    ______ ____
ROOT
ATOM      1  C   UNL     1       3.536   3.797  19.933  0.00  0.00    +0.000 C 
ATOM      2  C   UNL     1       2.895   2.404  19.956  0.00  0.00    +0.000 C 
ATOM      3  C   UNL     1       1.696   2.561  20.872  0.00  0.00    +0.000 C 
ATOM      4  C   UNL     1       1.266   4.006  20.686  0.00  0.00    +0.000 C 
ATOM      5  N   UNL     1       2.367   4.683  20.008  0.00  0.00    +0.000 N 
ATOM      6  C   UNL     1       2.509   6.058  19.874  0.00  0.00    +0.000 C 
ATOM      7  O   UNL     1       3.496   6.546  19.332  0.00  0.00    +0.000 OA
ATOM      8  N   UNL     1       1.456   6.786  20.388  0.00  0.00    +0.000 N 
ATOM      9  H   UNL     1       0.895   6.314  21.075  0.00  0.00    +0.000 HD
ENDROOT
BRANCH   8  10
ATOM     10  C   UNL     1       1.289   8.183  20.357  0.00  0.00    +0.000 A 
ATOM     11  C   UNL     1       1.373   8.951  19.196  0.00  0.00    +0.000 A 
ATOM     12  C   UNL     1       1.226  10.341  19.261  0.00  0.00    +0.000 A 
ATOM     13  C   UNL     1       0.998  10.961  20.489  0.00  0.00    +0.000 A 
ATOM     14 CL   UNL     1       0.869  12.676  20.575  0.00  0.00    +0.000 Cl
ATOM     15  C   UNL     1       0.886  10.203  21.648  0.00  0.00    +0.000 A 
ATOM     16  C   UNL     1       1.014   8.817  21.581  0.00  0.00    +0.000 A 
ENDBRANCH   8  10
BRANCH   1  18
ATOM     17  O   UNL     1       4.071   3.572  17.591  0.00  0.00    +0.000 OA
ATOM     18  C   UNL     1       4.482   3.841  18.721  0.00  0.00    +0.000 C 
ATOM     19  N   UNL     1       5.714   4.400  18.943  0.00  0.00    +0.000 N 
ATOM     20  H   UNL     1       6.012   4.548  19.898  0.00  0.00    +0.000 HD
BRANCH  19  21
ATOM     21  C   UNL     1       6.665   4.545  17.868  0.00  0.00    +0.000 C 
BRANCH  21  22
ATOM     22  C   UNL     1       7.169   5.936  17.847  0.00  0.00    +0.000 A 
ATOM     23  C   UNL     1       6.948   7.009  17.010  0.00  0.00    +0.000 A 
ATOM     24  C   UNL     1       7.693   8.090  17.536  0.00  0.00    +0.000 A 
ATOM     25  C   UNL     1       8.325   7.608  18.659  0.00  0.00    +0.000 A 
ATOM     26  O   UNL     1       8.018   6.299  18.853  0.00  0.00    +0.000 OA
ENDBRANCH  21  22
ENDBRANCH  19  21
ENDBRANCH   1  18
TORSDOF 4
ENDMDL
MODEL 5
REMARK VINA RESULT:      -7.4      2.424      4.980
REMARK  Name = 
REMARK  4 active torsions:
REMARK  status: ('A' for Active; 'I' for Inactive)
REMARK    1  A    between atoms: C_2  and  C_10
REMARK    2  A    between atoms: N_3  and  C_4
REMARK    3  A    between atoms: C_4  and  C_5
REMARK    4  A    between atoms: N_17  and  C_18
REMARK                            x       y       z     vdW  Elec       q    Type
REMARK                         _______ _______ _______ _____ _____    ______ ____
ROOT
ATOM      1  C   UNL     1       4.159   4.075  18.420  0.00  0.00    +0.000 C 
ATOM      2  C   UNL     1       3.713   2.801  17.692  0.00  0.00    +0.000 C 
ATOM      3  C   UNL     1       2.204   2.795  17.846  0.00  0.00    +0.000 C 
ATOM      4  C   UNL     1       1.823   4.264  17.900  0.00  0.00    +0.000 C 
ATOM      5  N   UNL     1       3.059   5.005  18.133  0.00  0.00    +0.000 N 
ATOM      6  C   UNL     1       3.142   6.340  18.507  0.00  0.00    +0.000 C 
ATOM      7  O   UNL     1       4.225   6.872  18.733  0.00  0.00    +0.000 OA
ATOM      8  N   UNL     1       1.923   6.980  18.583  0.00  0.00    +0.000 N 
ATOM      9  H   UNL     1       1.123   6.382  18.701  0.00  0.00    +0.000 HD
ENDROOT
BRANCH   8  10
ATOM     10  C   UNL     1       1.688   8.335  18.885  0.00  0.00    +0.000 A 
ATOM     11  C   UNL     1       1.181   8.784  20.105  0.00  0.00    +0.000 A 
ATOM     12  C   UNL     1       0.947  10.148  20.309  0.00  0.00    +0.000 A 
ATOM     13  C   UNL     1       1.217  11.061  19.290  0.00  0.00    +0.000 A 
ATOM     14 CL   UNL     1       0.880  12.733  19.524  0.00  0.00    +0.000 Cl
ATOM     15  C   UNL     1       1.746  10.628  18.080  0.00  0.00    +0.000 A 
ATOM     16  C   UNL     1       1.998   9.271  17.884  0.00  0.00    +0.000 A 
ENDBRANCH   8  10
BRANCH   1  18
ATOM     17  O   UNL     1       6.554   4.163  18.698  0.00  0.00    +0.000 OA
ATOM     18  C   UNL     1       5.593   4.383  17.959  0.00  0.00    +0.000 C 
ATOM     19  N   UNL     1       5.741   4.696  16.632  0.00  0.00    +0.000 N 
ATOM     20  H   UNL     1       4.915   4.918  16.093  0.00  0.00    +0.000 HD
BRANCH  19  21
ATOM     21  C   UNL     1       7.047   4.951  16.073  0.00  0.00    +0.000 C 
BRANCH  21  22
ATOM     22  C   UNL     1       7.013   4.689  14.617  0.00  0.00    +0.000 A 
ATOM     23  C   UNL     1       6.259   3.850  13.824  0.00  0.00    +0.000 A 
ATOM     24  C   UNL     1       6.669   4.081  12.491  0.00  0.00    +0.000 A 
ATOM     25  C   UNL     1       7.650   5.043  12.553  0.00  0.00    +0.000 A 
ATOM     26  O   UNL     1       7.870   5.416  13.840  0.00  0.00    +0.000 OA
ENDBRANCH  21  22
ENDBRANCH  19  21
ENDBRANCH   1  18
TORSDOF 4
ENDMDL
MODEL 6
REMARK VINA RESULT:      -7.4      2.456      4.909
REMARK  Name = 
REMARK  4 active torsions:
REMARK  status: ('A' for Active; 'I' for Inactive)
REMARK    1  A    between atoms: C_2  and  C_10
REMARK    2  A    between atoms: N_3  and  C_4
REMARK    3  A    between atoms: C_4  and  C_5
REMARK    4  A    between atoms: N_17  and  C_18
REMARK                            x       y       z     vdW  Elec       q    Type
REMARK                         _______ _______ _______ _____ _____    ______ ____
ROOT
ATOM      1  C   UNL     1       4.155   4.227  18.361  0.00  0.00    +0.000 C 
ATOM      2  C   UNL     1       3.703   2.935  17.668  0.00  0.00    +0.000 C 
ATOM      3  C   UNL     1       2.196   2.929  17.841  0.00  0.00    +0.000 C 
ATOM      4  C   UNL     1       1.812   4.398  17.865  0.00  0.00    +0.000 C 
ATOM      5  N   UNL     1       3.048   5.147  18.065  0.00  0.00    +0.000 N 
ATOM      6  C   UNL     1       3.133   6.490  18.407  0.00  0.00    +0.000 C 
ATOM      7  O   UNL     1       4.217   7.030  18.607  0.00  0.00    +0.000 OA
ATOM      8  N   UNL     1       1.913   7.129  18.484  0.00  0.00    +0.000 N 
ATOM      9  H   UNL     1       1.117   6.532  18.626  0.00  0.00    +0.000 HD
ENDROOT
BRANCH   8  10
ATOM     10  C   UNL     1       1.678   8.490  18.757  0.00  0.00    +0.000 A 
ATOM     11  C   UNL     1       1.969   9.524  17.867  0.00  0.00    +0.000 A 
ATOM     12  C   UNL     1       1.733  10.853  18.233  0.00  0.00    +0.000 A 
ATOM     13  C   UNL     1       1.209  11.147  19.491  0.00  0.00    +0.000 A 
ATOM     14 CL   UNL     1       0.968  12.786  19.960  0.00  0.00    +0.000 Cl
ATOM     15  C   UNL     1       0.891  10.124  20.376  0.00  0.00    +0.000 A 
ATOM     16  C   UNL     1       1.108   8.798  20.004  0.00  0.00    +0.000 A 
ENDBRANCH   8  10
BRANCH   1  18
ATOM     17  O   UNL     1       6.558   4.249  18.573  0.00  0.00    +0.000 OA
ATOM     18  C   UNL     1       5.582   4.528  17.874  0.00  0.00    +0.000 C 
ATOM     19  N   UNL     1       5.700   4.904  16.561  0.00  0.00    +0.000 N 
ATOM     20  H   UNL     1       4.864   5.170  16.058  0.00  0.00    +0.000 HD
BRANCH  19  21
ATOM     21  C   UNL     1       6.995   5.159  15.978  0.00  0.00    +0.000 C 
BRANCH  21  22
ATOM     22  C   UNL     1       6.971   4.772  14.550  0.00  0.00    +0.000 A 
ATOM     23  C   UNL     1       6.228   3.862  13.829  0.00  0.00    +0.000 A 
ATOM     24  C   UNL     1       6.644   3.980  12.482  0.00  0.00    +0.000 A 
ATOM     25  C   UNL     1       7.618   4.951  12.466  0.00  0.00    +0.000 A 
ATOM     26  O   UNL     1       7.828   5.435  13.717  0.00  0.00    +0.000 OA
ENDBRANCH  21  22
ENDBRANCH  19  21
ENDBRANCH   1  18
TORSDOF 4
ENDMDL
MODEL 7
REMARK VINA RESULT:      -7.3      1.038      1.203
REMARK  Name = 
REMARK  4 active torsions:
REMARK  status: ('A' for Active; 'I' for Inactive)
REMARK    1  A    between atoms: C_2  and  C_10
REMARK    2  A    between atoms: N_3  and  C_4
REMARK    3  A    between atoms: C_4  and  C_5
REMARK    4  A    between atoms: N_17  and  C_18
REMARK                            x       y       z     vdW  Elec       q    Type
REMARK                         _______ _______ _______ _____ _____    ______ ____
ROOT
ATOM      1  C   UNL     1       4.562   4.401  16.655  0.00  0.00    +0.000 C 
ATOM      2  C   UNL     1       6.036   4.261  16.255  0.00  0.00    +0.000 C 
ATOM      3  C   UNL     1       6.417   5.640  15.751  0.00  0.00    +0.000 C 
ATOM      4  C   UNL     1       5.543   6.590  16.552  0.00  0.00    +0.000 C 
ATOM      5  N   UNL     1       4.505   5.774  17.174  0.00  0.00    +0.000 N 
ATOM      6  C   UNL     1       3.351   6.258  17.776  0.00  0.00    +0.000 C 
ATOM      7  O   UNL     1       2.502   5.496  18.230  0.00  0.00    +0.000 OA
ATOM      8  N   UNL     1       3.271   7.634  17.815  0.00  0.00    +0.000 N 
ATOM      9  H   UNL     1       3.835   8.123  17.142  0.00  0.00    +0.000 HD
ENDROOT
BRANCH   8  10
ATOM     10  C   UNL     1       2.254   8.413  18.400  0.00  0.00    +0.000 A 
ATOM     11  C   UNL     1       1.540   9.399  17.719  0.00  0.00    +0.000 A 
ATOM     12  C   UNL     1       0.567  10.150  18.388  0.00  0.00    +0.000 A 
ATOM     13  C   UNL     1       0.314   9.917  19.739  0.00  0.00    +0.000 A 
ATOM     14 CL   UNL     1      -0.846  10.877  20.574  0.00  0.00    +0.000 Cl
ATOM     15  C   UNL     1       1.001   8.919  20.421  0.00  0.00    +0.000 A 
ATOM     16  C   UNL     1       1.956   8.158  19.750  0.00  0.00    +0.000 A 
ENDBRANCH   8  10
BRANCH   1  18
ATOM     17  O   UNL     1       3.837   2.138  17.069  0.00  0.00    +0.000 OA
ATOM     18  C   UNL     1       4.220   3.203  17.556  0.00  0.00    +0.000 C 
ATOM     19  N   UNL     1       4.575   3.324  18.875  0.00  0.00    +0.000 N 
ATOM     20  H   UNL     1       4.831   4.238  19.224  0.00  0.00    +0.000 HD
BRANCH  19  21
ATOM     21  C   UNL     1       4.353   2.242  19.803  0.00  0.00    +0.000 C 
BRANCH  21  22
ATOM     22  C   UNL     1       3.041   2.428  20.461  0.00  0.00    +0.000 A 
ATOM     23  C   UNL     1       2.655   2.567  21.778  0.00  0.00    +0.000 A 
ATOM     24  C   UNL     1       1.252   2.749  21.768  0.00  0.00    +0.000 A 
ATOM     25  C   UNL     1       0.870   2.705  20.448  0.00  0.00    +0.000 A 
ATOM     26  O   UNL     1       1.948   2.505  19.646  0.00  0.00    +0.000 OA
ENDBRANCH  21  22
ENDBRANCH  19  21
ENDBRANCH   1  18
TORSDOF 4
ENDMDL
MODEL 8
REMARK VINA RESULT:      -7.3      2.018      4.640
REMARK  Name = 
REMARK  4 active torsions:
REMARK  status: ('A' for Active; 'I' for Inactive)
REMARK    1  A    between atoms: C_2  and  C_10
REMARK    2  A    between atoms: N_3  and  C_4
REMARK    3  A    between atoms: C_4  and  C_5
REMARK    4  A    between atoms: N_17  and  C_18
REMARK                            x       y       z     vdW  Elec       q    Type
REMARK                         _______ _______ _______ _____ _____    ______ ____
ROOT
ATOM      1  C   UNL     1       3.830   3.623  18.432  0.00  0.00    +0.000 C 
ATOM      2  C   UNL     1       3.231   2.329  17.867  0.00  0.00    +0.000 C 
ATOM      3  C   UNL     1       1.768   2.393  18.261  0.00  0.00    +0.000 C 
ATOM      4  C   UNL     1       1.447   3.877  18.282  0.00  0.00    +0.000 C 
ATOM      5  N   UNL     1       2.726   4.579  18.266  0.00  0.00    +0.000 N 
ATOM      6  C   UNL     1       2.910   5.929  18.537  0.00  0.00    +0.000 C 
ATOM      7  O   UNL     1       4.031   6.428  18.552  0.00  0.00    +0.000 OA
ATOM      8  N   UNL     1       1.740   6.621  18.767  0.00  0.00    +0.000 N 
ATOM      9  H   UNL     1       0.952   6.064  19.049  0.00  0.00    +0.000 HD
ENDROOT
BRANCH   8  10
ATOM     10  C   UNL     1       1.599   8.000  19.016  0.00  0.00    +0.000 A 
ATOM     11  C   UNL     1       1.198   8.532  20.241  0.00  0.00    +0.000 A 
ATOM     12  C   UNL     1       1.052   9.915  20.392  0.00  0.00    +0.000 A 
ATOM     13  C   UNL     1       1.305  10.764  19.315  0.00  0.00    +0.000 A 
ATOM     14 CL   UNL     1       1.075  12.462  19.487  0.00  0.00    +0.000 Cl
ATOM     15  C   UNL     1       1.730  10.247  18.098  0.00  0.00    +0.000 A 
ATOM     16  C   UNL     1       1.894   8.870  17.953  0.00  0.00    +0.000 A 
ENDBRANCH   8  10
BRANCH   1  18
ATOM     17  O   UNL     1       5.264   3.789  16.499  0.00  0.00    +0.000 OA
ATOM     18  C   UNL     1       5.178   3.846  17.727  0.00  0.00    +0.000 C 
ATOM     19  N   UNL     1       6.195   4.319  18.515  0.00  0.00    +0.000 N 
ATOM     20  H   UNL     1       6.081   4.290  19.520  0.00  0.00    +0.000 HD
BRANCH  19  21
ATOM     21  C   UNL     1       7.490   4.616  17.952  0.00  0.00    +0.000 C 
BRANCH  21  22
ATOM     22  C   UNL     1       7.663   6.084  17.879  0.00  0.00    +0.000 A 
ATOM     23  C   UNL     1       7.242   7.043  16.982  0.00  0.00    +0.000 A 
ATOM     24  C   UNL     1       7.697   8.286  17.480  0.00  0.00    +0.000 A 
ATOM     25  C   UNL     1       8.370   8.008  18.646  0.00  0.00    +0.000 A 
ATOM     26  O   UNL     1       8.360   6.674  18.896  0.00  0.00    +0.000 OA
ENDBRANCH  21  22
ENDBRANCH  19  21
ENDBRANCH   1  18
TORSDOF 4
ENDMDL
MODEL 9
REMARK VINA RESULT:      -7.3      3.289      6.723
REMARK  Name = 
REMARK  4 active torsions:
REMARK  status: ('A' for Active; 'I' for Inactive)
REMARK    1  A    between atoms: C_2  and  C_10
REMARK    2  A    between atoms: N_3  and  C_4
REMARK    3  A    between atoms: C_4  and  C_5
REMARK    4  A    between atoms: N_17  and  C_18
REMARK                            x       y       z     vdW  Elec       q    Type
REMARK                         _______ _______ _______ _____ _____    ______ ____
ROOT
ATOM      1  C   UNL     1       2.403   3.392  20.094  0.00  0.00    +0.000 C 
ATOM      2  C   UNL     1       2.626   2.811  21.496  0.00  0.00    +0.000 C 
ATOM      3  C   UNL     1       3.727   1.785  21.303  0.00  0.00    +0.000 C 
ATOM      4  C   UNL     1       4.558   2.335  20.156  0.00  0.00    +0.000 C 
ATOM      5  N   UNL     1       3.759   3.384  19.530  0.00  0.00    +0.000 N 
ATOM      6  C   UNL     1       4.018   3.969  18.298  0.00  0.00    +0.000 C 
ATOM      7  O   UNL     1       3.263   4.812  17.821  0.00  0.00    +0.000 OA
ATOM      8  N   UNL     1       5.177   3.526  17.697  0.00  0.00    +0.000 N 
ATOM      9  H   UNL     1       5.516   2.633  18.009  0.00  0.00    +0.000 HD
ENDROOT
BRANCH   8  10
ATOM     10  C   UNL     1       5.729   3.965  16.478  0.00  0.00    +0.000 A 
ATOM     11  C   UNL     1       5.154   3.720  15.231  0.00  0.00    +0.000 A 
ATOM     12  C   UNL     1       5.787   4.166  14.065  0.00  0.00    +0.000 A 
ATOM     13  C   UNL     1       6.997   4.853  14.149  0.00  0.00    +0.000 A 
ATOM     14 CL   UNL     1       7.801   5.356  12.713  0.00  0.00    +0.000 Cl
ATOM     15  C   UNL     1       7.565   5.126  15.388  0.00  0.00    +0.000 A 
ATOM     16  C   UNL     1       6.925   4.699  16.550  0.00  0.00    +0.000 A 
ENDBRANCH   8  10
BRANCH   1  18
ATOM     17  O   UNL     1       0.395   4.714  20.296  0.00  0.00    +0.000 OA
ATOM     18  C   UNL     1       1.628   4.708  20.266  0.00  0.00    +0.000 C 
ATOM     19  N   UNL     1       2.378   5.806  20.600  0.00  0.00    +0.000 N 
ATOM     20  H   UNL     1       3.383   5.751  20.503  0.00  0.00    +0.000 HD
BRANCH  19  21
ATOM     21  C   UNL     1       1.753   7.084  20.840  0.00  0.00    +0.000 C 
BRANCH  21  22
ATOM     22  C   UNL     1       1.872   7.920  19.625  0.00  0.00    +0.000 A 
ATOM     23  C   UNL     1       2.549   7.766  18.433  0.00  0.00    +0.000 A 
ATOM     24  C   UNL     1       2.240   8.899  17.646  0.00  0.00    +0.000 A 
ATOM     25  C   UNL     1       1.397   9.675  18.407  0.00  0.00    +0.000 A 
ATOM     26  O   UNL     1       1.172   9.093  19.612  0.00  0.00    +0.000 OA
ENDBRANCH  21  22
ENDBRANCH  19  21
ENDBRANCH   1  18
TORSDOF 4
ENDMDL
