MODEL 1
REMARK VINA RESULT:      -7.4      0.000      0.000
REMARK  Name = 
REMARK  3 active torsions:
REMARK  status: ('A' for Active; 'I' for Inactive)
REMARK    1  A    between atoms: C_1  and  O_2
REMARK    2  A    between atoms: O_2  and  C_3
REMARK    3  A    between atoms: C_6  and  C_7
REMARK                            x       y       z     vdW  Elec       q    Type
REMARK                         _______ _______ _______ _____ _____    ______ ____
ROOT
ATOM      1  C   UNL     1       4.559   5.179  19.708  0.00  0.00    +0.000 C 
ATOM      2  S   UNL     1       6.327   5.142  19.189  0.00  0.00    +0.000 S 
ATOM      3  C   UNL     1       6.097   4.463  17.528  0.00  0.00    +0.000 A 
ATOM      4  C   UNL     1       7.066   4.841  16.589  0.00  0.00    +0.000 A 
ATOM      5  C   UNL     1       6.767   4.800  15.231  0.00  0.00    +0.000 A 
ATOM      6  C   UNL     1       5.519   4.348  14.814  0.00  0.00    +0.000 A 
ATOM      7  C   UNL     1       4.609   3.830  15.740  0.00  0.00    +0.000 A 
ATOM      8  C   UNL     1       4.887   3.852  17.112  0.00  0.00    +0.000 A 
ATOM      9  N   UNL     1       3.912   3.427  18.057  0.00  0.00    +0.000 N 
ATOM     10  C   UNL     1       2.777   2.662  17.808  0.00  0.00    +0.000 C 
ATOM     11  O   UNL     1       2.432   2.123  16.768  0.00  0.00    +0.000 OA
ATOM     12  C   UNL     1       1.976   2.569  19.080  0.00  0.00    +0.000 C 
ATOM     13  C   UNL     1       2.754   3.352  20.124  0.00  0.00    +0.000 C 
ATOM     14  C   UNL     1       4.072   3.732  19.461  0.00  0.00    +0.000 C 
ENDROOT
BRANCH   1  18
ATOM     15  C   UNL     1       2.254   8.469  17.917  0.00  0.00    +0.000 A 
ATOM     16  C   UNL     1       1.830   7.892  19.105  0.00  0.00    +0.000 A 
ATOM     17  C   UNL     1       2.535   6.831  19.673  0.00  0.00    +0.000 A 
ATOM     18  C   UNL     1       3.706   6.305  19.093  0.00  0.00    +0.000 A 
ATOM     19  C   UNL     1       4.105   6.897  17.885  0.00  0.00    +0.000 A 
ATOM     20  C   UNL     1       3.402   7.966  17.304  0.00  0.00    +0.000 A 
BRANCH  15  22
ATOM     21  C   UNL     1       0.477   9.991  18.354  0.00  0.00    +0.000 C 
ATOM     22  O   UNL     1       1.451   9.481  17.456  0.00  0.00    +0.000 OA
ENDBRANCH  15  22
ENDBRANCH   1  18
TORSDOF 2
ENDMDL
MODEL 2
REMARK VINA RESULT:      -7.3      0.122      1.022
REMARK  Name = 
REMARK  3 active torsions:
REMARK  status: ('A' for Active; 'I' for Inactive)
REMARK    1  A    between atoms: C_1  and  O_2
REMARK    2  A    between atoms: O_2  and  C_3
REMARK    3  A    between atoms: C_6  and  C_7
REMARK                            x       y       z     vdW  Elec       q    Type
REMARK                         _______ _______ _______ _____ _____    ______ ____
ROOT
ATOM      1  C   UNL     1       4.640   5.158  19.682  0.00  0.00    +0.000 C 
ATOM      2  S   UNL     1       6.400   5.111  19.135  0.00  0.00    +0.000 S 
ATOM      3  C   UNL     1       6.136   4.467  17.465  0.00  0.00    +0.000 A 
ATOM      4  C   UNL     1       7.096   4.852  16.518  0.00  0.00    +0.000 A 
ATOM      5  C   UNL     1       6.776   4.841  15.165  0.00  0.00    +0.000 A 
ATOM      6  C   UNL     1       5.517   4.413  14.758  0.00  0.00    +0.000 A 
ATOM      7  C   UNL     1       4.614   3.888  15.687  0.00  0.00    +0.000 A 
ATOM      8  C   UNL     1       4.913   3.879  17.055  0.00  0.00    +0.000 A 
ATOM      9  N   UNL     1       3.947   3.448  18.007  0.00  0.00    +0.000 N 
ATOM     10  C   UNL     1       2.799   2.702  17.759  0.00  0.00    +0.000 C 
ATOM     11  O   UNL     1       2.431   2.187  16.715  0.00  0.00    +0.000 OA
ATOM     12  C   UNL     1       2.016   2.593  19.042  0.00  0.00    +0.000 C 
ATOM     13  C   UNL     1       2.819   3.346  20.089  0.00  0.00    +0.000 C 
ATOM     14  C   UNL     1       4.131   3.722  19.413  0.00  0.00    +0.000 C 
ENDROOT
BRANCH   1  18
ATOM     15  C   UNL     1       2.093   8.360  18.069  0.00  0.00    +0.000 A 
ATOM     16  C   UNL     1       3.211   7.943  17.363  0.00  0.00    +0.000 A 
ATOM     17  C   UNL     1       4.043   6.946  17.872  0.00  0.00    +0.000 A 
ATOM     18  C   UNL     1       3.792   6.306  19.102  0.00  0.00    +0.000 A 
ATOM     19  C   UNL     1       2.663   6.758  19.803  0.00  0.00    +0.000 A 
ATOM     20  C   UNL     1       1.818   7.762  19.299  0.00  0.00    +0.000 A 
BRANCH  15  22
ATOM     21  C   UNL     1       0.395  10.018  18.252  0.00  0.00    +0.000 C 
ATOM     22  O   UNL     1       1.382   9.367  17.467  0.00  0.00    +0.000 OA
ENDBRANCH  15  22
ENDBRANCH   1  18
TORSDOF 2
ENDMDL
MODEL 3
REMARK VINA RESULT:      -6.7      2.328      4.035
REMARK  Name = 
REMARK  3 active torsions:
REMARK  status: ('A' for Active; 'I' for Inactive)
REMARK    1  A    between atoms: C_1  and  O_2
REMARK    2  A    between atoms: O_2  and  C_3
REMARK    3  A    between atoms: C_6  and  C_7
REMARK                            x       y       z     vdW  Elec       q    Type
REMARK                         _______ _______ _______ _____ _____    ______ ____
ROOT
ATOM      1  C   UNL     1       4.787   6.016  16.533  0.00  0.00    +0.000 C 
ATOM      2  S   UNL     1       4.263   4.341  15.972  0.00  0.00    +0.000 S 
ATOM      3  C   UNL     1       4.581   3.441  17.509  0.00  0.00    +0.000 A 
ATOM      4  C   UNL     1       3.770   2.317  17.723  0.00  0.00    +0.000 A 
ATOM      5  C   UNL     1       3.575   1.842  19.015  0.00  0.00    +0.000 A 
ATOM      6  C   UNL     1       4.216   2.462  20.082  0.00  0.00    +0.000 A 
ATOM      7  C   UNL     1       5.141   3.484  19.854  0.00  0.00    +0.000 A 
ATOM      8  C   UNL     1       5.364   3.978  18.563  0.00  0.00    +0.000 A 
ATOM      9  N   UNL     1       6.221   5.093  18.350  0.00  0.00    +0.000 N 
ATOM     10  C   UNL     1       7.167   5.606  19.232  0.00  0.00    +0.000 C 
ATOM     11  O   UNL     1       7.524   5.164  20.313  0.00  0.00    +0.000 OA
ATOM     12  C   UNL     1       7.744   6.863  18.634  0.00  0.00    +0.000 C 
ATOM     13  C   UNL     1       7.051   7.047  17.295  0.00  0.00    +0.000 C 
ATOM     14  C   UNL     1       6.214   5.791  17.085  0.00  0.00    +0.000 C 
ENDROOT
BRANCH   1  18
ATOM     15  C   UNL     1       2.051   8.236  19.166  0.00  0.00    +0.000 A 
ATOM     16  C   UNL     1       2.428   6.942  19.491  0.00  0.00    +0.000 A 
ATOM     17  C   UNL     1       3.275   6.215  18.655  0.00  0.00    +0.000 A 
ATOM     18  C   UNL     1       3.799   6.749  17.461  0.00  0.00    +0.000 A 
ATOM     19  C   UNL     1       3.390   8.054  17.148  0.00  0.00    +0.000 A 
ATOM     20  C   UNL     1       2.537   8.795  17.984  0.00  0.00    +0.000 A 
BRANCH  15  22
ATOM     21  C   UNL     1       1.168   8.287  21.375  0.00  0.00    +0.000 C 
ATOM     22  O   UNL     1       1.192   8.821  20.060  0.00  0.00    +0.000 OA
ENDBRANCH  15  22
ENDBRANCH   1  18
TORSDOF 2
ENDMDL
MODEL 4
REMARK VINA RESULT:      -6.6      2.328      4.111
REMARK  Name = 
REMARK  3 active torsions:
REMARK  status: ('A' for Active; 'I' for Inactive)
REMARK    1  A    between atoms: C_1  and  O_2
REMARK    2  A    between atoms: O_2  and  C_3
REMARK    3  A    between atoms: C_6  and  C_7
REMARK                            x       y       z     vdW  Elec       q    Type
REMARK                         _______ _______ _______ _____ _____    ______ ____
ROOT
ATOM      1  C   UNL     1       4.832   6.050  16.522  0.00  0.00    +0.000 C 
ATOM      2  S   UNL     1       4.269   4.381  15.979  0.00  0.00    +0.000 S 
ATOM      3  C   UNL     1       4.595   3.485  17.518  0.00  0.00    +0.000 A 
ATOM      4  C   UNL     1       3.767   2.377  17.750  0.00  0.00    +0.000 A 
ATOM      5  C   UNL     1       3.582   1.913  19.047  0.00  0.00    +0.000 A 
ATOM      6  C   UNL     1       4.250   2.528  20.101  0.00  0.00    +0.000 A 
ATOM      7  C   UNL     1       5.189   3.532  19.853  0.00  0.00    +0.000 A 
ATOM      8  C   UNL     1       5.402   4.014  18.556  0.00  0.00    +0.000 A 
ATOM      9  N   UNL     1       6.276   5.112  18.323  0.00  0.00    +0.000 N 
ATOM     10  C   UNL     1       7.244   5.613  19.188  0.00  0.00    +0.000 C 
ATOM     11  O   UNL     1       7.609   5.171  20.266  0.00  0.00    +0.000 OA
ATOM     12  C   UNL     1       7.834   6.856  18.574  0.00  0.00    +0.000 C 
ATOM     13  C   UNL     1       7.125   7.044  17.244  0.00  0.00    +0.000 C 
ATOM     14  C   UNL     1       6.263   5.803  17.054  0.00  0.00    +0.000 C 
ENDROOT
BRANCH   1  18
ATOM     15  C   UNL     1       2.005   8.079  19.211  0.00  0.00    +0.000 A 
ATOM     16  C   UNL     1       2.502   8.744  18.100  0.00  0.00    +0.000 A 
ATOM     17  C   UNL     1       3.419   8.123  17.251  0.00  0.00    +0.000 A 
ATOM     18  C   UNL     1       3.872   6.806  17.460  0.00  0.00    +0.000 A 
ATOM     19  C   UNL     1       3.364   6.162  18.599  0.00  0.00    +0.000 A 
ATOM     20  C   UNL     1       2.441   6.778  19.461  0.00  0.00    +0.000 A 
BRANCH  15  22
ATOM     21  C   UNL     1       1.069   8.504  21.358  0.00  0.00    +0.000 C 
ATOM     22  O   UNL     1       1.137   8.817  19.975  0.00  0.00    +0.000 OA
ENDBRANCH  15  22
ENDBRANCH   1  18
TORSDOF 2
ENDMDL
MODEL 5
REMARK VINA RESULT:      -6.5      9.195     10.889
REMARK  Name = 
REMARK  3 active torsions:
REMARK  status: ('A' for Active; 'I' for Inactive)
REMARK    1  A    between atoms: C_1  and  O_2
REMARK    2  A    between atoms: O_2  and  C_3
REMARK    3  A    between atoms: C_6  and  C_7
REMARK                            x       y       z     vdW  Elec       q    Type
REMARK                         _______ _______ _______ _____ _____    ______ ____
ROOT
ATOM      1  C   UNL     1      10.976  13.271  20.155  0.00  0.00    +0.000 C 
ATOM      2  S   UNL     1      11.555  14.979  19.774  0.00  0.00    +0.000 S 
ATOM      3  C   UNL     1      10.102  15.548  18.857  0.00  0.00    +0.000 A 
ATOM      4  C   UNL     1       9.857  16.927  18.922  0.00  0.00    +0.000 A 
ATOM      5  C   UNL     1       8.575  17.412  18.689  0.00  0.00    +0.000 A 
ATOM      6  C   UNL     1       7.553  16.529  18.357  0.00  0.00    +0.000 A 
ATOM      7  C   UNL     1       7.830  15.175  18.144  0.00  0.00    +0.000 A 
ATOM      8  C   UNL     1       9.113  14.660  18.364  0.00  0.00    +0.000 A 
ATOM      9  N   UNL     1       9.363  13.263  18.255  0.00  0.00    +0.000 N 
ATOM     10  C   UNL     1       8.562  12.313  17.630  0.00  0.00    +0.000 C 
ATOM     11  O   UNL     1       7.546  12.480  16.974  0.00  0.00    +0.000 OA
ATOM     12  C   UNL     1       9.159  10.952  17.876  0.00  0.00    +0.000 C 
ATOM     13  C   UNL     1      10.409  11.186  18.708  0.00  0.00    +0.000 C 
ATOM     14  C   UNL     1      10.587  12.697  18.772  0.00  0.00    +0.000 C 
ENDROOT
BRANCH   1  18
ATOM     15  C   UNL     1       8.047  13.027  23.427  0.00  0.00    +0.000 A 
ATOM     16  C   UNL     1       8.279  11.923  22.621  0.00  0.00    +0.000 A 
ATOM     17  C   UNL     1       9.186  11.991  21.563  0.00  0.00    +0.000 A 
ATOM     18  C   UNL     1       9.918  13.158  21.268  0.00  0.00    +0.000 A 
ATOM     19  C   UNL     1       9.653  14.265  22.089  0.00  0.00    +0.000 A 
ATOM     20  C   UNL     1       8.741  14.207  23.157  0.00  0.00    +0.000 A 
BRANCH  15  22
ATOM     21  C   UNL     1       6.919  11.498  24.859  0.00  0.00    +0.000 C 
ATOM     22  O   UNL     1       7.110  12.830  24.408  0.00  0.00    +0.000 OA
ENDBRANCH  15  22
ENDBRANCH   1  18
TORSDOF 2
ENDMDL
MODEL 6
REMARK VINA RESULT:      -6.4      9.522     11.165
REMARK  Name = 
REMARK  3 active torsions:
REMARK  status: ('A' for Active; 'I' for Inactive)
REMARK    1  A    between atoms: C_1  and  O_2
REMARK    2  A    between atoms: O_2  and  C_3
REMARK    3  A    between atoms: C_6  and  C_7
REMARK                            x       y       z     vdW  Elec       q    Type
REMARK                         _______ _______ _______ _____ _____    ______ ____
ROOT
ATOM      1  C   UNL     1      11.253  13.280  19.876  0.00  0.00    +0.000 C 
ATOM      2  S   UNL     1      11.990  14.883  19.343  0.00  0.00    +0.000 S 
ATOM      3  C   UNL     1      10.533  15.581  18.528  0.00  0.00    +0.000 A 
ATOM      4  C   UNL     1      10.460  16.981  18.532  0.00  0.00    +0.000 A 
ATOM      5  C   UNL     1       9.228  17.609  18.387  0.00  0.00    +0.000 A 
ATOM      6  C   UNL     1       8.082  16.843  18.200  0.00  0.00    +0.000 A 
ATOM      7  C   UNL     1       8.175  15.457  18.045  0.00  0.00    +0.000 A 
ATOM      8  C   UNL     1       9.403  14.799  18.179  0.00  0.00    +0.000 A 
ATOM      9  N   UNL     1       9.475  13.379  18.132  0.00  0.00    +0.000 N 
ATOM     10  C   UNL     1       8.511  12.505  17.639  0.00  0.00    +0.000 C 
ATOM     11  O   UNL     1       7.463  12.765  17.068  0.00  0.00    +0.000 OA
ATOM     12  C   UNL     1       8.963  11.094  17.911  0.00  0.00    +0.000 C 
ATOM     13  C   UNL     1      10.306  11.212  18.612  0.00  0.00    +0.000 C 
ATOM     14  C   UNL     1      10.667  12.691  18.570  0.00  0.00    +0.000 C 
ENDROOT
BRANCH   1  18
ATOM     15  C   UNL     1       8.434  13.393  23.250  0.00  0.00    +0.000 A 
ATOM     16  C   UNL     1       9.076  14.553  22.845  0.00  0.00    +0.000 A 
ATOM     17  C   UNL     1       9.991  14.530  21.792  0.00  0.00    +0.000 A 
ATOM     18  C   UNL     1      10.300  13.352  21.084  0.00  0.00    +0.000 A 
ATOM     19  C   UNL     1       9.648  12.190  21.525  0.00  0.00    +0.000 A 
ATOM     20  C   UNL     1       8.724  12.202  22.584  0.00  0.00    +0.000 A 
BRANCH  15  22
ATOM     21  C   UNL     1       7.977  12.969  25.547  0.00  0.00    +0.000 C 
ATOM     22  O   UNL     1       7.585  13.554  24.315  0.00  0.00    +0.000 OA
ENDBRANCH  15  22
ENDBRANCH   1  18
TORSDOF 2
ENDMDL
MODEL 7
REMARK VINA RESULT:      -6.3      6.114      8.573
REMARK  Name = 
REMARK  3 active torsions:
REMARK  status: ('A' for Active; 'I' for Inactive)
REMARK    1  A    between atoms: C_1  and  O_2
REMARK    2  A    between atoms: O_2  and  C_3
REMARK    3  A    between atoms: C_6  and  C_7
REMARK                            x       y       z     vdW  Elec       q    Type
REMARK                         _______ _______ _______ _____ _____    ______ ____
ROOT
ATOM      1  C   UNL     1      -0.808  13.216  20.380  0.00  0.00    +0.000 C 
ATOM      2  S   UNL     1       0.745  13.423  19.409  0.00  0.00    +0.000 S 
ATOM      3  C   UNL     1       1.262  11.689  19.374  0.00  0.00    +0.000 A 
ATOM      4  C   UNL     1       2.022  11.315  18.256  0.00  0.00    +0.000 A 
ATOM      5  C   UNL     1       2.070   9.981  17.868  0.00  0.00    +0.000 A 
ATOM      6  C   UNL     1       1.392   9.021  18.613  0.00  0.00    +0.000 A 
ATOM      7  C   UNL     1       0.760   9.371  19.809  0.00  0.00    +0.000 A 
ATOM      8  C   UNL     1       0.703  10.706  20.229  0.00  0.00    +0.000 A 
ATOM      9  N   UNL     1      -0.037  11.071  21.388  0.00  0.00    +0.000 N 
ATOM     10  C   UNL     1      -0.483  10.228  22.400  0.00  0.00    +0.000 C 
ATOM     11  O   UNL     1      -0.259   9.038  22.559  0.00  0.00    +0.000 OA
ATOM     12  C   UNL     1      -1.330  11.032  23.352  0.00  0.00    +0.000 C 
ATOM     13  C   UNL     1      -1.339  12.451  22.809  0.00  0.00    +0.000 C 
ATOM     14  C   UNL     1      -0.352  12.457  21.648  0.00  0.00    +0.000 C 
ENDROOT
BRANCH   1  18
ATOM     15  C   UNL     1      -4.155  11.560  18.056  0.00  0.00    +0.000 A 
ATOM     16  C   UNL     1      -4.390  12.136  19.295  0.00  0.00    +0.000 A 
ATOM     17  C   UNL     1      -3.337  12.643  20.056  0.00  0.00    +0.000 A 
ATOM     18  C   UNL     1      -2.000  12.615  19.611  0.00  0.00    +0.000 A 
ATOM     19  C   UNL     1      -1.789  12.014  18.361  0.00  0.00    +0.000 A 
ATOM     20  C   UNL     1      -2.843  11.500  17.586  0.00  0.00    +0.000 A 
BRANCH  15  22
ATOM     21  C   UNL     1      -6.467  11.013  18.199  0.00  0.00    +0.000 C 
ATOM     22  O   UNL     1      -5.275  11.075  17.431  0.00  0.00    +0.000 OA
ENDBRANCH  15  22
ENDBRANCH   1  18
TORSDOF 2
ENDMDL
MODEL 8
REMARK VINA RESULT:      -6.3      6.105      8.616
REMARK  Name = 
REMARK  3 active torsions:
REMARK  status: ('A' for Active; 'I' for Inactive)
REMARK    1  A    between atoms: C_1  and  O_2
REMARK    2  A    between atoms: O_2  and  C_3
REMARK    3  A    between atoms: C_6  and  C_7
REMARK                            x       y       z     vdW  Elec       q    Type
REMARK                         _______ _______ _______ _____ _____    ______ ____
ROOT
ATOM      1  C   UNL     1      -0.723  13.238  20.398  0.00  0.00    +0.000 C 
ATOM      2  S   UNL     1       0.832  13.434  19.429  0.00  0.00    +0.000 S 
ATOM      3  C   UNL     1       1.314  11.691  19.357  0.00  0.00    +0.000 A 
ATOM      4  C   UNL     1       2.066  11.325  18.230  0.00  0.00    +0.000 A 
ATOM      5  C   UNL     1       2.086   9.999  17.815  0.00  0.00    +0.000 A 
ATOM      6  C   UNL     1       1.390   9.038  18.541  0.00  0.00    +0.000 A 
ATOM      7  C   UNL     1       0.767   9.375  19.745  0.00  0.00    +0.000 A 
ATOM      8  C   UNL     1       0.737  10.702  20.193  0.00  0.00    +0.000 A 
ATOM      9  N   UNL     1       0.006  11.058  21.361  0.00  0.00    +0.000 N 
ATOM     10  C   UNL     1      -0.454  10.203  22.356  0.00  0.00    +0.000 C 
ATOM     11  O   UNL     1      -0.255   9.006  22.490  0.00  0.00    +0.000 OA
ATOM     12  C   UNL     1      -1.284  11.004  23.325  0.00  0.00    +0.000 C 
ATOM     13  C   UNL     1      -1.266  12.434  22.811  0.00  0.00    +0.000 C 
ATOM     14  C   UNL     1      -0.281  12.444  21.650  0.00  0.00    +0.000 C 
ENDROOT
BRANCH   1  18
ATOM     15  C   UNL     1      -4.221  11.583  18.308  0.00  0.00    +0.000 A 
ATOM     16  C   UNL     1      -2.959  11.463  17.748  0.00  0.00    +0.000 A 
ATOM     17  C   UNL     1      -1.842  12.004  18.385  0.00  0.00    +0.000 A 
ATOM     18  C   UNL     1      -1.928  12.677  19.620  0.00  0.00    +0.000 A 
ATOM     19  C   UNL     1      -3.219  12.798  20.157  0.00  0.00    +0.000 A 
ATOM     20  C   UNL     1      -4.350  12.257  19.523  0.00  0.00    +0.000 A 
BRANCH  15  22
ATOM     21  C   UNL     1      -6.537  11.069  18.116  0.00  0.00    +0.000 C 
ATOM     22  O   UNL     1      -5.231  11.033  17.561  0.00  0.00    +0.000 OA
ENDBRANCH  15  22
ENDBRANCH   1  18
TORSDOF 2
ENDMDL
MODEL 9
REMARK VINA RESULT:      -6.3      7.265      9.307
REMARK  Name = 
REMARK  3 active torsions:
REMARK  status: ('A' for Active; 'I' for Inactive)
REMARK    1  A    between atoms: C_1  and  O_2
REMARK    2  A    between atoms: O_2  and  C_3
REMARK    3  A    between atoms: C_6  and  C_7
REMARK                            x       y       z     vdW  Elec       q    Type
REMARK                         _______ _______ _______ _____ _____    ______ ____
ROOT
ATOM      1  C   UNL     1       0.332  10.998  18.414  0.00  0.00    +0.000 C 
ATOM      2  S   UNL     1       1.074   9.577  19.323  0.00  0.00    +0.000 S 
ATOM      3  C   UNL     1       0.590  10.059  20.999  0.00  0.00    +0.000 A 
ATOM      4  C   UNL     1       0.406   8.997  21.896  0.00  0.00    +0.000 A 
ATOM      5  C   UNL     1      -0.397   9.172  23.017  0.00  0.00    +0.000 A 
ATOM      6  C   UNL     1      -0.983  10.410  23.260  0.00  0.00    +0.000 A 
ATOM      7  C   UNL     1      -0.679  11.507  22.450  0.00  0.00    +0.000 A 
ATOM      8  C   UNL     1       0.133  11.363  21.318  0.00  0.00    +0.000 A 
ATOM      9  N   UNL     1       0.348  12.457  20.435  0.00  0.00    +0.000 N 
ATOM     10  C   UNL     1       0.118  13.804  20.694  0.00  0.00    +0.000 C 
ATOM     11  O   UNL     1      -0.218  14.335  21.741  0.00  0.00    +0.000 OA
ATOM     12  C   UNL     1       0.366  14.582  19.428  0.00  0.00    +0.000 C 
ATOM     13  C   UNL     1       0.778  13.561  18.382  0.00  0.00    +0.000 C 
ATOM     14  C   UNL     1       0.920  12.239  19.126  0.00  0.00    +0.000 C 
ENDROOT
BRANCH   1  18
ATOM     15  C   UNL     1      -4.022  10.861  17.804  0.00  0.00    +0.000 A 
ATOM     16  C   UNL     1      -3.466  11.840  18.614  0.00  0.00    +0.000 A 
ATOM     17  C   UNL     1      -2.090  11.882  18.838  0.00  0.00    +0.000 A 
ATOM     18  C   UNL     1      -1.200  10.961  18.253  0.00  0.00    +0.000 A 
ATOM     19  C   UNL     1      -1.790   9.972  17.450  0.00  0.00    +0.000 A 
ATOM     20  C   UNL     1      -3.175   9.921  17.218  0.00  0.00    +0.000 A 
BRANCH  15  22
ATOM     21  C   UNL     1      -5.959  12.185  17.402  0.00  0.00    +0.000 C 
ATOM     22  O   UNL     1      -5.388  10.919  17.696  0.00  0.00    +0.000 OA
ENDBRANCH  15  22
ENDBRANCH   1  18
TORSDOF 2
ENDMDL
