MODEL 1
REMARK VINA RESULT:      -8.0      0.000      0.000
REMARK  Name = 
REMARK  2 active torsions:
REMARK  status: ('A' for Active; 'I' for Inactive)
REMARK    1  A    between atoms: C_5  and  C_6
REMARK    2  A    between atoms: C_8  and  C_9
REMARK                            x       y       z     vdW  Elec       q    Type
REMARK                         _______ _______ _______ _____ _____    ______ ____
ROOT
ATOM      1  C   UNL     1       5.405   4.215  17.923  0.00  0.00    +0.000 A 
ATOM      2  N   UNL     1       5.243   4.146  16.622  0.00  0.00    +0.000 NA
ATOM      3  C   UNL     1       6.516   4.412  16.139  0.00  0.00    +0.000 A 
ATOM      4  N   UNL     1       7.423   4.626  17.112  0.00  0.00    +0.000 NA
ATOM      5  O   UNL     1       6.688   4.504  18.287  0.00  0.00    +0.000 OA
ENDROOT
BRANCH   1  10
ATOM      6  F   UNL     1       1.686   3.351  22.022  0.00  0.00    +0.000 F 
ATOM      7  C   UNL     1       2.576   3.567  21.043  0.00  0.00    +0.000 A 
ATOM      8  C   UNL     1       3.392   2.527  20.619  0.00  0.00    +0.000 A 
ATOM      9  C   UNL     1       4.316   2.753  19.595  0.00  0.00    +0.000 A 
ATOM     10  C   UNL     1       4.435   4.019  18.992  0.00  0.00    +0.000 A 
ATOM     11  C   UNL     1       3.602   5.057  19.439  0.00  0.00    +0.000 A 
ATOM     12  C   UNL     1       2.680   4.822  20.458  0.00  0.00    +0.000 A 
ATOM     13  F   UNL     1       1.892   5.825  20.867  0.00  0.00    +0.000 F 
ENDBRANCH   1  10
BRANCH   3  14
ATOM     14  C   UNL     1       6.827   4.464  14.702  0.00  0.00    +0.000 A 
ATOM     15  N   UNL     1       6.160   3.613  13.889  0.00  0.00    +0.000 NA
ATOM     16  C   UNL     1       6.445   3.695  12.578  0.00  0.00    +0.000 A 
ATOM     17  C   UNL     1       7.369   4.569  12.054  0.00  0.00    +0.000 A 
ATOM     18  C   UNL     1       8.002   5.383  12.964  0.00  0.00    +0.000 A 
ATOM     19  N   UNL     1       7.750   5.358  14.285  0.00  0.00    +0.000 NA
ENDBRANCH   3  14
TORSDOF 2
ENDMDL
MODEL 2
REMARK VINA RESULT:      -8.0      1.073      1.541
REMARK  Name = 
REMARK  2 active torsions:
REMARK  status: ('A' for Active; 'I' for Inactive)
REMARK    1  A    between atoms: C_5  and  C_6
REMARK    2  A    between atoms: C_8  and  C_9
REMARK                            x       y       z     vdW  Elec       q    Type
REMARK                         _______ _______ _______ _____ _____    ______ ____
ROOT
ATOM      1  C   UNL     1       4.849   4.031  17.499  0.00  0.00    +0.000 A 
ATOM      2  N   UNL     1       4.845   3.993  16.187  0.00  0.00    +0.000 NA
ATOM      3  C   UNL     1       6.154   4.322  15.865  0.00  0.00    +0.000 A 
ATOM      4  N   UNL     1       6.930   4.544  16.945  0.00  0.00    +0.000 NA
ATOM      5  O   UNL     1       6.066   4.359  18.021  0.00  0.00    +0.000 OA
ENDROOT
BRANCH   1  10
ATOM      6  F   UNL     1       0.627   3.081  21.056  0.00  0.00    +0.000 F 
ATOM      7  C   UNL     1       1.642   3.302  20.209  0.00  0.00    +0.000 A 
ATOM      8  C   UNL     1       1.393   3.912  18.988  0.00  0.00    +0.000 A 
ATOM      9  C   UNL     1       2.454   4.144  18.107  0.00  0.00    +0.000 A 
ATOM     10  C   UNL     1       3.768   3.766  18.439  0.00  0.00    +0.000 A 
ATOM     11  C   UNL     1       3.996   3.148  19.678  0.00  0.00    +0.000 A 
ATOM     12  C   UNL     1       2.934   2.923  20.552  0.00  0.00    +0.000 A 
ATOM     13  F   UNL     1       3.173   2.335  21.732  0.00  0.00    +0.000 F 
ENDBRANCH   1  10
BRANCH   3  14
ATOM     14  C   UNL     1       6.631   4.427  14.478  0.00  0.00    +0.000 A 
ATOM     15  N   UNL     1       6.076   3.598  13.565  0.00  0.00    +0.000 NA
ATOM     16  C   UNL     1       6.512   3.729  12.299  0.00  0.00    +0.000 A 
ATOM     17  C   UNL     1       7.477   4.631  11.917  0.00  0.00    +0.000 A 
ATOM     18  C   UNL     1       7.987   5.419  12.922  0.00  0.00    +0.000 A 
ATOM     19  N   UNL     1       7.582   5.345  14.202  0.00  0.00    +0.000 NA
ENDBRANCH   3  14
TORSDOF 2
ENDMDL
MODEL 3
REMARK VINA RESULT:      -8.0      0.115      1.089
REMARK  Name = 
REMARK  2 active torsions:
REMARK  status: ('A' for Active; 'I' for Inactive)
REMARK    1  A    between atoms: C_5  and  C_6
REMARK    2  A    between atoms: C_8  and  C_9
REMARK                            x       y       z     vdW  Elec       q    Type
REMARK                         _______ _______ _______ _____ _____    ______ ____
ROOT
ATOM      1  C   UNL     1       5.385   4.275  17.834  0.00  0.00    +0.000 A 
ATOM      2  N   UNL     1       5.233   4.198  16.532  0.00  0.00    +0.000 NA
ATOM      3  C   UNL     1       6.506   4.480  16.057  0.00  0.00    +0.000 A 
ATOM      4  N   UNL     1       7.403   4.712  17.036  0.00  0.00    +0.000 NA
ATOM      5  O   UNL     1       6.660   4.584  18.206  0.00  0.00    +0.000 OA
ENDROOT
BRANCH   1  10
ATOM      6  F   UNL     1       1.642   3.374  21.903  0.00  0.00    +0.000 F 
ATOM      7  C   UNL     1       2.537   3.599  20.932  0.00  0.00    +0.000 A 
ATOM      8  C   UNL     1       3.312   2.548  20.459  0.00  0.00    +0.000 A 
ATOM      9  C   UNL     1       4.243   2.784  19.443  0.00  0.00    +0.000 A 
ATOM     10  C   UNL     1       4.409   4.070  18.896  0.00  0.00    +0.000 A 
ATOM     11  C   UNL     1       3.618   5.117  19.391  0.00  0.00    +0.000 A 
ATOM     12  C   UNL     1       2.689   4.874  20.402  0.00  0.00    +0.000 A 
ATOM     13  F   UNL     1       1.941   5.887  20.857  0.00  0.00    +0.000 F 
ENDBRANCH   1  10
BRANCH   3  14
ATOM     14  C   UNL     1       6.827   4.530  14.622  0.00  0.00    +0.000 A 
ATOM     15  N   UNL     1       7.773   5.411  14.227  0.00  0.00    +0.000 NA
ATOM     16  C   UNL     1       8.066   5.422  12.914  0.00  0.00    +0.000 A 
ATOM     17  C   UNL     1       7.450   4.610  11.992  0.00  0.00    +0.000 A 
ATOM     18  C   UNL     1       6.493   3.757  12.492  0.00  0.00    +0.000 A 
ATOM     19  N   UNL     1       6.167   3.690  13.795  0.00  0.00    +0.000 NA
ENDBRANCH   3  14
TORSDOF 2
ENDMDL
MODEL 4
REMARK VINA RESULT:      -7.9      1.352      1.956
REMARK  Name = 
REMARK  2 active torsions:
REMARK  status: ('A' for Active; 'I' for Inactive)
REMARK    1  A    between atoms: C_5  and  C_6
REMARK    2  A    between atoms: C_8  and  C_9
REMARK                            x       y       z     vdW  Elec       q    Type
REMARK                         _______ _______ _______ _____ _____    ______ ____
ROOT
ATOM      1  C   UNL     1       4.747   4.085  17.426  0.00  0.00    +0.000 A 
ATOM      2  N   UNL     1       4.750   4.075  16.113  0.00  0.00    +0.000 NA
ATOM      3  C   UNL     1       6.080   4.328  15.807  0.00  0.00    +0.000 A 
ATOM      4  N   UNL     1       6.860   4.477  16.895  0.00  0.00    +0.000 NA
ATOM      5  O   UNL     1       5.978   4.324  17.962  0.00  0.00    +0.000 OA
ENDROOT
BRANCH   1  10
ATOM      6  F   UNL     1       0.571   3.297  21.075  0.00  0.00    +0.000 F 
ATOM      7  C   UNL     1       1.564   3.483  20.195  0.00  0.00    +0.000 A 
ATOM      8  C   UNL     1       2.641   4.288  20.540  0.00  0.00    +0.000 A 
ATOM      9  C   UNL     1       3.678   4.479  19.621  0.00  0.00    +0.000 A 
ATOM     10  C   UNL     1       3.645   3.869  18.353  0.00  0.00    +0.000 A 
ATOM     11  C   UNL     1       2.545   3.062  18.025  0.00  0.00    +0.000 A 
ATOM     12  C   UNL     1       1.517   2.874  18.948  0.00  0.00    +0.000 A 
ATOM     13  F   UNL     1       0.478   2.096  18.616  0.00  0.00    +0.000 F 
ENDBRANCH   1  10
BRANCH   3  14
ATOM     14  C   UNL     1       6.572   4.432  14.425  0.00  0.00    +0.000 A 
ATOM     15  N   UNL     1       7.553   5.329  14.179  0.00  0.00    +0.000 NA
ATOM     16  C   UNL     1       8.003   5.390  12.913  0.00  0.00    +0.000 A 
ATOM     17  C   UNL     1       7.508   4.612  11.894  0.00  0.00    +0.000 A 
ATOM     18  C   UNL     1       6.504   3.740  12.243  0.00  0.00    +0.000 A 
ATOM     19  N   UNL     1       6.023   3.623  13.493  0.00  0.00    +0.000 NA
ENDBRANCH   3  14
TORSDOF 2
ENDMDL
MODEL 5
REMARK VINA RESULT:      -7.8      1.579      1.821
REMARK  Name = 
REMARK  2 active torsions:
REMARK  status: ('A' for Active; 'I' for Inactive)
REMARK    1  A    between atoms: C_5  and  C_6
REMARK    2  A    between atoms: C_8  and  C_9
REMARK                            x       y       z     vdW  Elec       q    Type
REMARK                         _______ _______ _______ _____ _____    ______ ____
ROOT
ATOM      1  C   UNL     1       4.251   4.617  17.337  0.00  0.00    +0.000 A 
ATOM      2  N   UNL     1       4.619   4.040  16.216  0.00  0.00    +0.000 NA
ATOM      3  C   UNL     1       5.556   4.927  15.707  0.00  0.00    +0.000 A 
ATOM      4  N   UNL     1       5.759   6.002  16.495  0.00  0.00    +0.000 NA
ATOM      5  O   UNL     1       4.892   5.800  17.565  0.00  0.00    +0.000 OA
ENDROOT
BRANCH   1  10
ATOM      6  F   UNL     1       0.638   2.936  21.274  0.00  0.00    +0.000 F 
ATOM      7  C   UNL     1       1.496   3.337  20.325  0.00  0.00    +0.000 A 
ATOM      8  C   UNL     1       2.576   4.137  20.674  0.00  0.00    +0.000 A 
ATOM      9  C   UNL     1       3.472   4.551  19.684  0.00  0.00    +0.000 A 
ATOM     10  C   UNL     1       3.293   4.172  18.340  0.00  0.00    +0.000 A 
ATOM     11  C   UNL     1       2.193   3.366  18.010  0.00  0.00    +0.000 A 
ATOM     12  C   UNL     1       1.306   2.954  19.004  0.00  0.00    +0.000 A 
ATOM     13  F   UNL     1       0.265   2.181  18.669  0.00  0.00    +0.000 F 
ENDBRANCH   1  10
BRANCH   3  14
ATOM     14  C   UNL     1       6.245   4.709  14.426  0.00  0.00    +0.000 A 
ATOM     15  N   UNL     1       5.714   3.797  13.581  0.00  0.00    +0.000 NA
ATOM     16  C   UNL     1       6.348   3.631  12.406  0.00  0.00    +0.000 A 
ATOM     17  C   UNL     1       7.484   4.320  12.053  0.00  0.00    +0.000 A 
ATOM     18  C   UNL     1       7.953   5.216  12.986  0.00  0.00    +0.000 A 
ATOM     19  N   UNL     1       7.355   5.435  14.170  0.00  0.00    +0.000 NA
ENDBRANCH   3  14
TORSDOF 2
ENDMDL
MODEL 6
REMARK VINA RESULT:      -7.8      1.126      1.922
REMARK  Name = 
REMARK  2 active torsions:
REMARK  status: ('A' for Active; 'I' for Inactive)
REMARK    1  A    between atoms: C_5  and  C_6
REMARK    2  A    between atoms: C_8  and  C_9
REMARK                            x       y       z     vdW  Elec       q    Type
REMARK                         _______ _______ _______ _____ _____    ______ ____
ROOT
ATOM      1  C   UNL     1       4.711   4.252  17.503  0.00  0.00    +0.000 A 
ATOM      2  N   UNL     1       4.787   3.960  16.225  0.00  0.00    +0.000 NA
ATOM      3  C   UNL     1       5.973   4.570  15.840  0.00  0.00    +0.000 A 
ATOM      4  N   UNL     1       6.601   5.203  16.851  0.00  0.00    +0.000 NA
ATOM      5  O   UNL     1       5.764   4.999  17.944  0.00  0.00    +0.000 OA
ENDROOT
BRANCH   1  10
ATOM      6  F   UNL     1       0.730   2.917  21.211  0.00  0.00    +0.000 F 
ATOM      7  C   UNL     1       1.688   3.230  20.327  0.00  0.00    +0.000 A 
ATOM      8  C   UNL     1       1.352   3.921  19.171  0.00  0.00    +0.000 A 
ATOM      9  C   UNL     1       2.354   4.249  18.252  0.00  0.00    +0.000 A 
ATOM     10  C   UNL     1       3.694   3.887  18.480  0.00  0.00    +0.000 A 
ATOM     11  C   UNL     1       4.010   3.186  19.654  0.00  0.00    +0.000 A 
ATOM     12  C   UNL     1       3.006   2.865  20.567  0.00  0.00    +0.000 A 
ATOM     13  F   UNL     1       3.330   2.199  21.683  0.00  0.00    +0.000 F 
ENDBRANCH   1  10
BRANCH   3  14
ATOM     14  C   UNL     1       6.477   4.531  14.459  0.00  0.00    +0.000 A 
ATOM     15  N   UNL     1       7.497   5.361  14.145  0.00  0.00    +0.000 NA
ATOM     16  C   UNL     1       7.955   5.290  12.882  0.00  0.00    +0.000 A 
ATOM     17  C   UNL     1       7.432   4.448  11.930  0.00  0.00    +0.000 A 
ATOM     18  C   UNL     1       6.389   3.654  12.345  0.00  0.00    +0.000 A 
ATOM     19  N   UNL     1       5.897   3.668  13.596  0.00  0.00    +0.000 NA
ENDBRANCH   3  14
TORSDOF 2
ENDMDL
MODEL 7
REMARK VINA RESULT:      -7.7      3.829      7.375
REMARK  Name = 
REMARK  2 active torsions:
REMARK  status: ('A' for Active; 'I' for Inactive)
REMARK    1  A    between atoms: C_5  and  C_6
REMARK    2  A    between atoms: C_8  and  C_9
REMARK                            x       y       z     vdW  Elec       q    Type
REMARK                         _______ _______ _______ _____ _____    ______ ____
ROOT
ATOM      1  C   UNL     1       5.462   4.104  16.712  0.00  0.00    +0.000 A 
ATOM      2  N   UNL     1       4.255   3.807  17.137  0.00  0.00    +0.000 NA
ATOM      3  C   UNL     1       4.388   3.880  18.516  0.00  0.00    +0.000 A 
ATOM      4  N   UNL     1       5.630   4.219  18.916  0.00  0.00    +0.000 NA
ATOM      5  O   UNL     1       6.338   4.359  17.726  0.00  0.00    +0.000 OA
ENDROOT
BRANCH   1  10
ATOM      6  F   UNL     1       7.470   4.585  11.504  0.00  0.00    +0.000 F 
ATOM      7  C   UNL     1       6.985   4.462  12.748  0.00  0.00    +0.000 A 
ATOM      8  C   UNL     1       7.610   5.126  13.794  0.00  0.00    +0.000 A 
ATOM      9  C   UNL     1       7.101   5.000  15.090  0.00  0.00    +0.000 A 
ATOM     10  C   UNL     1       5.968   4.206  15.350  0.00  0.00    +0.000 A 
ATOM     11  C   UNL     1       5.354   3.541  14.277  0.00  0.00    +0.000 A 
ATOM     12  C   UNL     1       5.865   3.676  12.988  0.00  0.00    +0.000 A 
ATOM     13  F   UNL     1       5.262   3.036  11.977  0.00  0.00    +0.000 F 
ENDBRANCH   1  10
BRANCH   3  14
ATOM     14  C   UNL     1       3.278   3.601  19.439  0.00  0.00    +0.000 A 
ATOM     15  N   UNL     1       3.547   2.843  20.526  0.00  0.00    +0.000 NA
ATOM     16  C   UNL     1       2.521   2.621  21.366  0.00  0.00    +0.000 A 
ATOM     17  C   UNL     1       1.251   3.106  21.159  0.00  0.00    +0.000 A 
ATOM     18  C   UNL     1       1.077   3.855  20.019  0.00  0.00    +0.000 A 
ATOM     19  N   UNL     1       2.066   4.123  19.149  0.00  0.00    +0.000 NA
ENDBRANCH   3  14
TORSDOF 2
ENDMDL
MODEL 8
REMARK VINA RESULT:      -7.7      3.826      7.363
REMARK  Name = 
REMARK  2 active torsions:
REMARK  status: ('A' for Active; 'I' for Inactive)
REMARK    1  A    between atoms: C_5  and  C_6
REMARK    2  A    between atoms: C_8  and  C_9
REMARK                            x       y       z     vdW  Elec       q    Type
REMARK                         _______ _______ _______ _____ _____    ______ ____
ROOT
ATOM      1  C   UNL     1       5.479   4.124  16.694  0.00  0.00    +0.000 A 
ATOM      2  N   UNL     1       4.275   3.834  17.130  0.00  0.00    +0.000 NA
ATOM      3  C   UNL     1       4.419   3.918  18.508  0.00  0.00    +0.000 A 
ATOM      4  N   UNL     1       5.664   4.257  18.896  0.00  0.00    +0.000 NA
ATOM      5  O   UNL     1       6.364   4.385  17.699  0.00  0.00    +0.000 OA
ENDROOT
BRANCH   1  10
ATOM      6  F   UNL     1       7.448   4.557  11.468  0.00  0.00    +0.000 F 
ATOM      7  C   UNL     1       6.973   4.445  12.716  0.00  0.00    +0.000 A 
ATOM      8  C   UNL     1       7.612   5.111  13.753  0.00  0.00    +0.000 A 
ATOM      9  C   UNL     1       7.112   4.997  15.054  0.00  0.00    +0.000 A 
ATOM     10  C   UNL     1       5.974   4.214  15.327  0.00  0.00    +0.000 A 
ATOM     11  C   UNL     1       5.347   3.547  14.264  0.00  0.00    +0.000 A 
ATOM     12  C   UNL     1       5.849   3.670  12.969  0.00  0.00    +0.000 A 
ATOM     13  F   UNL     1       5.232   3.029  11.968  0.00  0.00    +0.000 F 
ENDBRANCH   1  10
BRANCH   3  14
ATOM     14  C   UNL     1       3.314   3.650  19.441  0.00  0.00    +0.000 A 
ATOM     15  N   UNL     1       2.124   4.235  19.182  0.00  0.00    +0.000 NA
ATOM     16  C   UNL     1       1.123   3.956  20.037  0.00  0.00    +0.000 A 
ATOM     17  C   UNL     1       1.267   3.140  21.133  0.00  0.00    +0.000 A 
ATOM     18  C   UNL     1       2.520   2.603  21.317  0.00  0.00    +0.000 A 
ATOM     19  N   UNL     1       3.555   2.832  20.490  0.00  0.00    +0.000 NA
ENDBRANCH   3  14
TORSDOF 2
ENDMDL
MODEL 9
REMARK VINA RESULT:      -7.7      3.915      7.365
REMARK  Name = 
REMARK  2 active torsions:
REMARK  status: ('A' for Active; 'I' for Inactive)
REMARK    1  A    between atoms: C_5  and  C_6
REMARK    2  A    between atoms: C_8  and  C_9
REMARK                            x       y       z     vdW  Elec       q    Type
REMARK                         _______ _______ _______ _____ _____    ______ ____
ROOT
ATOM      1  C   UNL     1       5.895   4.289  16.635  0.00  0.00    +0.000 A 
ATOM      2  N   UNL     1       4.710   4.104  17.168  0.00  0.00    +0.000 NA
ATOM      3  C   UNL     1       4.972   4.171  18.529  0.00  0.00    +0.000 A 
ATOM      4  N   UNL     1       6.269   4.399  18.814  0.00  0.00    +0.000 NA
ATOM      5  O   UNL     1       6.878   4.468  17.563  0.00  0.00    +0.000 OA
ENDROOT
BRANCH   1  10
ATOM      6  F   UNL     1       7.326   4.394  11.219  0.00  0.00    +0.000 F 
ATOM      7  C   UNL     1       6.988   4.377  12.516  0.00  0.00    +0.000 A 
ATOM      8  C   UNL     1       5.897   3.624  12.929  0.00  0.00    +0.000 A 
ATOM      9  C   UNL     1       5.549   3.604  14.283  0.00  0.00    +0.000 A 
ATOM     10  C   UNL     1       6.284   4.339  15.232  0.00  0.00    +0.000 A 
ATOM     11  C   UNL     1       7.381   5.096  14.791  0.00  0.00    +0.000 A 
ATOM     12  C   UNL     1       7.724   5.107  13.440  0.00  0.00    +0.000 A 
ATOM     13  F   UNL     1       8.777   5.833  13.041  0.00  0.00    +0.000 F 
ENDBRANCH   1  10
BRANCH   3  14
ATOM     14  C   UNL     1       3.927   3.998  19.550  0.00  0.00    +0.000 A 
ATOM     15  N   UNL     1       3.188   5.082  19.875  0.00  0.00    +0.000 NA
ATOM     16  C   UNL     1       2.225   4.893  20.795  0.00  0.00    +0.000 A 
ATOM     17  C   UNL     1       1.984   3.685  21.405  0.00  0.00    +0.000 A 
ATOM     18  C   UNL     1       2.797   2.647  21.014  0.00  0.00    +0.000 A 
ATOM     19  N   UNL     1       3.767   2.770  20.091  0.00  0.00    +0.000 NA
ENDBRANCH   3  14
TORSDOF 2
ENDMDL
