MODEL 1
REMARK VINA RESULT:      -7.0      0.000      0.000
REMARK  Name = 
REMARK  5 active torsions:
REMARK  status: ('A' for Active; 'I' for Inactive)
REMARK    1  A    between atoms: C_1  and  C_2
REMARK    2  A    between atoms: C_2  and  C_3
REMARK    3  A    between atoms: C_2  and  N_4
REMARK    4  A    between atoms: C_7  and  N_8
REMARK    5  A    between atoms: C_9  and  C_11
REMARK                            x       y       z     vdW  Elec       q    Type
REMARK                         _______ _______ _______ _____ _____    ______ ____
ROOT
ATOM      1  N   UNL     1       2.309   6.831  18.716  0.00  0.00    +0.000 N 
ATOM      2  C   UNL     1       2.117   8.162  18.400  0.00  0.00    +0.000 C 
ATOM      3  O   UNL     1       2.506   8.633  17.335  0.00  0.00    +0.000 OA
ATOM      4  H   UNL     1       1.866   6.495  19.562  0.00  0.00    +0.000 HD
ENDROOT
BRANCH   2   5
ATOM      5  C   UNL     1       1.437   8.965  19.412  0.00  0.00    +0.000 A 
ATOM      6  C   UNL     1       1.211   8.603  20.730  0.00  0.00    +0.000 A 
ATOM      7  C   UNL     1       0.479   9.587  21.457  0.00  0.00    +0.000 A 
ATOM      8  C   UNL     1       0.176  10.674  20.662  0.00  0.00    +0.000 A 
ATOM      9  S   UNL     1       0.792  10.521  19.083  0.00  0.00    +0.000 S 
ATOM     10  C   UNL     1      -0.651  11.849  21.087  0.00  0.00    +0.000 C 
ATOM     11  C   UNL     1      -0.826  11.873  22.615  0.00  0.00    +0.000 C 
ATOM     12  C   UNL     1      -1.098  10.475  23.191  0.00  0.00    +0.000 C 
ATOM     13  C   UNL     1       0.060   9.510  22.894  0.00  0.00    +0.000 C 
ENDBRANCH   2   5
BRANCH   1  17
ATOM     14  N   UNL     1       3.279   3.269  19.162  0.00  0.00    +0.000 NA
ATOM     15  C   UNL     1       1.944   3.745  18.749  0.00  0.00    +0.000 C 
ATOM     16  C   UNL     1       2.014   4.676  17.537  0.00  0.00    +0.000 C 
ATOM     17  C   UNL     1       2.916   5.879  17.792  0.00  0.00    +0.000 C 
ATOM     18  C   UNL     1       4.274   5.400  18.296  0.00  0.00    +0.000 C 
ATOM     19  C   UNL     1       4.156   4.418  19.463  0.00  0.00    +0.000 C 
BRANCH  14  21
ATOM     20  C   UNL     1       4.586   1.821  20.756  0.00  0.00    +0.000 C 
ATOM     21  C   UNL     1       3.199   2.316  20.306  0.00  0.00    +0.000 C 
ATOM     22  C   UNL     1       2.525   2.938  21.543  0.00  0.00    +0.000 C 
ENDBRANCH  14  21
ENDBRANCH   1  17
TORSDOF 3
ENDMDL
MODEL 2
REMARK VINA RESULT:      -6.9      1.219      1.891
REMARK  Name = 
REMARK  5 active torsions:
REMARK  status: ('A' for Active; 'I' for Inactive)
REMARK    1  A    between atoms: C_1  and  C_2
REMARK    2  A    between atoms: C_2  and  C_3
REMARK    3  A    between atoms: C_2  and  N_4
REMARK    4  A    between atoms: C_7  and  N_8
REMARK    5  A    between atoms: C_9  and  C_11
REMARK                            x       y       z     vdW  Elec       q    Type
REMARK                         _______ _______ _______ _____ _____    ______ ____
ROOT
ATOM      1  N   UNL     1       2.518   7.288  19.286  0.00  0.00    +0.000 N 
ATOM      2  C   UNL     1       1.990   8.468  18.796  0.00  0.00    +0.000 C 
ATOM      3  O   UNL     1       2.247   8.865  17.664  0.00  0.00    +0.000 OA
ATOM      4  H   UNL     1       2.175   6.974  20.186  0.00  0.00    +0.000 HD
ENDROOT
BRANCH   2   5
ATOM      5  C   UNL     1       1.125   9.205  19.712  0.00  0.00    +0.000 A 
ATOM      6  C   UNL     1       0.379  10.332  19.408  0.00  0.00    +0.000 A 
ATOM      7  C   UNL     1      -0.331  10.848  20.531  0.00  0.00    +0.000 A 
ATOM      8  C   UNL     1      -0.102  10.085  21.659  0.00  0.00    +0.000 A 
ATOM      9  S   UNL     1       0.920   8.760  21.356  0.00  0.00    +0.000 S 
ATOM     10  C   UNL     1      -0.629  10.393  23.028  0.00  0.00    +0.000 C 
ATOM     11  C   UNL     1      -1.740  11.454  22.963  0.00  0.00    +0.000 C 
ATOM     12  C   UNL     1      -1.406  12.587  21.980  0.00  0.00    +0.000 C 
ATOM     13  C   UNL     1      -1.219  12.054  20.551  0.00  0.00    +0.000 C 
ENDBRANCH   2   5
BRANCH   1  17
ATOM     14  N   UNL     1       2.647   3.578  19.077  0.00  0.00    +0.000 NA
ATOM     15  C   UNL     1       1.751   4.447  18.288  0.00  0.00    +0.000 C 
ATOM     16  C   UNL     1       2.520   5.537  17.538  0.00  0.00    +0.000 C 
ATOM     17  C   UNL     1       3.351   6.400  18.482  0.00  0.00    +0.000 C 
ATOM     18  C   UNL     1       4.222   5.506  19.358  0.00  0.00    +0.000 C 
ATOM     19  C   UNL     1       3.426   4.388  20.033  0.00  0.00    +0.000 C 
BRANCH  14  21
ATOM     20  C   UNL     1       1.479   2.859  21.190  0.00  0.00    +0.000 C 
ATOM     21  C   UNL     1       1.898   2.482  19.758  0.00  0.00    +0.000 C 
ATOM     22  C   UNL     1       0.613   2.092  19.006  0.00  0.00    +0.000 C 
ENDBRANCH  14  21
ENDBRANCH   1  17
TORSDOF 3
ENDMDL
MODEL 3
REMARK VINA RESULT:      -6.9      2.364      3.612
REMARK  Name = 
REMARK  5 active torsions:
REMARK  status: ('A' for Active; 'I' for Inactive)
REMARK    1  A    between atoms: C_1  and  C_2
REMARK    2  A    between atoms: C_2  and  C_3
REMARK    3  A    between atoms: C_2  and  N_4
REMARK    4  A    between atoms: C_7  and  N_8
REMARK    5  A    between atoms: C_9  and  C_11
REMARK                            x       y       z     vdW  Elec       q    Type
REMARK                         _______ _______ _______ _____ _____    ______ ____
ROOT
ATOM      1  N   UNL     1       2.793   5.376  18.796  0.00  0.00    +0.000 N 
ATOM      2  C   UNL     1       2.279   5.842  19.990  0.00  0.00    +0.000 C 
ATOM      3  O   UNL     1       2.190   5.119  20.978  0.00  0.00    +0.000 OA
ATOM      4  H   UNL     1       2.934   6.059  18.062  0.00  0.00    +0.000 HD
ENDROOT
BRANCH   2   5
ATOM      5  C   UNL     1       1.844   7.236  19.994  0.00  0.00    +0.000 A 
ATOM      6  C   UNL     1       1.230   7.902  21.042  0.00  0.00    +0.000 A 
ATOM      7  C   UNL     1       0.886   9.247  20.720  0.00  0.00    +0.000 A 
ATOM      8  C   UNL     1       1.259   9.561  19.428  0.00  0.00    +0.000 A 
ATOM      9  S   UNL     1       2.034   8.270  18.638  0.00  0.00    +0.000 S 
ATOM     10  C   UNL     1       0.974  10.864  18.743  0.00  0.00    +0.000 C 
ATOM     11  C   UNL     1       0.536  11.934  19.757  0.00  0.00    +0.000 C 
ATOM     12  C   UNL     1      -0.434  11.375  20.809  0.00  0.00    +0.000 C 
ATOM     13  C   UNL     1       0.208  10.236  21.617  0.00  0.00    +0.000 C 
ENDBRANCH   2   5
BRANCH   1  17
ATOM     14  N   UNL     1       5.935   4.160  17.221  0.00  0.00    +0.000 NA
ATOM     15  C   UNL     1       5.797   4.597  18.625  0.00  0.00    +0.000 C 
ATOM     16  C   UNL     1       4.669   3.859  19.349  0.00  0.00    +0.000 C 
ATOM     17  C   UNL     1       3.330   4.027  18.639  0.00  0.00    +0.000 C 
ATOM     18  C   UNL     1       3.482   3.655  17.168  0.00  0.00    +0.000 C 
ATOM     19  C   UNL     1       4.663   4.361  16.500  0.00  0.00    +0.000 C 
BRANCH  14  21
ATOM     20  C   UNL     1       6.920   4.848  15.007  0.00  0.00    +0.000 C 
ATOM     21  C   UNL     1       7.074   4.840  16.539  0.00  0.00    +0.000 C 
ATOM     22  C   UNL     1       7.233   6.307  16.979  0.00  0.00    +0.000 C 
ENDBRANCH  14  21
ENDBRANCH   1  17
TORSDOF 3
ENDMDL
MODEL 4
REMARK VINA RESULT:      -6.8      0.828      1.453
REMARK  Name = 
REMARK  5 active torsions:
REMARK  status: ('A' for Active; 'I' for Inactive)
REMARK    1  A    between atoms: C_1  and  C_2
REMARK    2  A    between atoms: C_2  and  C_3
REMARK    3  A    between atoms: C_2  and  N_4
REMARK    4  A    between atoms: C_7  and  N_8
REMARK    5  A    between atoms: C_9  and  C_11
REMARK                            x       y       z     vdW  Elec       q    Type
REMARK                         _______ _______ _______ _____ _____    ______ ____
ROOT
ATOM      1  N   UNL     1       2.383   7.180  18.927  0.00  0.00    +0.000 N 
ATOM      2  C   UNL     1       1.940   8.444  18.587  0.00  0.00    +0.000 C 
ATOM      3  O   UNL     1       2.192   8.941  17.494  0.00  0.00    +0.000 OA
ATOM      4  H   UNL     1       2.044   6.797  19.800  0.00  0.00    +0.000 HD
ENDROOT
BRANCH   2   5
ATOM      5  C   UNL     1       1.168   9.143  19.611  0.00  0.00    +0.000 A 
ATOM      6  C   UNL     1       0.571  10.386  19.482  0.00  0.00    +0.000 A 
ATOM      7  C   UNL     1      -0.075  10.817  20.678  0.00  0.00    +0.000 A 
ATOM      8  C   UNL     1       0.049   9.876  21.680  0.00  0.00    +0.000 A 
ATOM      9  S   UNL     1       0.899   8.492  21.176  0.00  0.00    +0.000 S 
ATOM     10  C   UNL     1      -0.444  10.045  23.085  0.00  0.00    +0.000 C 
ATOM     11  C   UNL     1      -1.413  11.234  23.189  0.00  0.00    +0.000 C 
ATOM     12  C   UNL     1      -0.933  12.447  22.377  0.00  0.00    +0.000 C 
ATOM     13  C   UNL     1      -0.806  12.109  20.883  0.00  0.00    +0.000 C 
ENDBRANCH   2   5
BRANCH   1  17
ATOM     14  N   UNL     1       3.358   3.599  19.155  0.00  0.00    +0.000 NA
ATOM     15  C   UNL     1       2.073   4.102  18.630  0.00  0.00    +0.000 C 
ATOM     16  C   UNL     1       2.270   5.143  17.526  0.00  0.00    +0.000 C 
ATOM     17  C   UNL     1       3.113   6.323  17.998  0.00  0.00    +0.000 C 
ATOM     18  C   UNL     1       4.410   5.808  18.616  0.00  0.00    +0.000 C 
ATOM     19  C   UNL     1       4.171   4.720  19.664  0.00  0.00    +0.000 C 
BRANCH  14  21
ATOM     20  C   UNL     1       4.490   1.950  20.686  0.00  0.00    +0.000 C 
ATOM     21  C   UNL     1       3.159   2.542  20.188  0.00  0.00    +0.000 C 
ATOM     22  C   UNL     1       2.412   3.065  21.428  0.00  0.00    +0.000 C 
ENDBRANCH  14  21
ENDBRANCH   1  17
TORSDOF 3
ENDMDL
MODEL 5
REMARK VINA RESULT:      -6.6      2.444      3.881
REMARK  Name = 
REMARK  5 active torsions:
REMARK  status: ('A' for Active; 'I' for Inactive)
REMARK    1  A    between atoms: C_1  and  C_2
REMARK    2  A    between atoms: C_2  and  C_3
REMARK    3  A    between atoms: C_2  and  N_4
REMARK    4  A    between atoms: C_7  and  N_8
REMARK    5  A    between atoms: C_9  and  C_11
REMARK                            x       y       z     vdW  Elec       q    Type
REMARK                         _______ _______ _______ _____ _____    ______ ____
ROOT
ATOM      1  N   UNL     1       2.797   5.423  18.753  0.00  0.00    +0.000 N 
ATOM      2  C   UNL     1       2.252   5.915  19.923  0.00  0.00    +0.000 C 
ATOM      3  O   UNL     1       2.122   5.209  20.919  0.00  0.00    +0.000 OA
ATOM      4  H   UNL     1       2.971   6.092  18.014  0.00  0.00    +0.000 HD
ENDROOT
BRANCH   2   5
ATOM      5  C   UNL     1       1.836   7.314  19.892  0.00  0.00    +0.000 A 
ATOM      6  C   UNL     1       1.991   8.193  18.832  0.00  0.00    +0.000 A 
ATOM      7  C   UNL     1       1.521   9.506  19.127  0.00  0.00    +0.000 A 
ATOM      8  C   UNL     1       1.016   9.579  20.410  0.00  0.00    +0.000 A 
ATOM      9  S   UNL     1       1.079   8.087  21.224  0.00  0.00    +0.000 S 
ATOM     10  C   UNL     1       0.514  10.829  21.067  0.00  0.00    +0.000 C 
ATOM     11  C   UNL     1       0.298  11.946  20.033  0.00  0.00    +0.000 C 
ATOM     12  C   UNL     1       1.432  12.007  18.998  0.00  0.00    +0.000 C 
ATOM     13  C   UNL     1       1.548  10.692  18.212  0.00  0.00    +0.000 C 
ENDBRANCH   2   5
BRANCH   1  17
ATOM     14  N   UNL     1       5.939   4.135  17.237  0.00  0.00    +0.000 NA
ATOM     15  C   UNL     1       5.794   4.608  18.628  0.00  0.00    +0.000 C 
ATOM     16  C   UNL     1       4.651   3.900  19.360  0.00  0.00    +0.000 C 
ATOM     17  C   UNL     1       3.320   4.066  18.634  0.00  0.00    +0.000 C 
ATOM     18  C   UNL     1       3.481   3.656  17.174  0.00  0.00    +0.000 C 
ATOM     19  C   UNL     1       4.676   4.332  16.500  0.00  0.00    +0.000 C 
BRANCH  14  21
ATOM     20  C   UNL     1       6.943   4.772  15.016  0.00  0.00    +0.000 C 
ATOM     21  C   UNL     1       7.091   4.785  16.548  0.00  0.00    +0.000 C 
ATOM     22  C   UNL     1       7.272   6.256  16.966  0.00  0.00    +0.000 C 
ENDBRANCH  14  21
ENDBRANCH   1  17
TORSDOF 3
ENDMDL
MODEL 6
REMARK VINA RESULT:      -6.6      2.366      3.661
REMARK  Name = 
REMARK  5 active torsions:
REMARK  status: ('A' for Active; 'I' for Inactive)
REMARK    1  A    between atoms: C_1  and  C_2
REMARK    2  A    between atoms: C_2  and  C_3
REMARK    3  A    between atoms: C_2  and  N_4
REMARK    4  A    between atoms: C_7  and  N_8
REMARK    5  A    between atoms: C_9  and  C_11
REMARK                            x       y       z     vdW  Elec       q    Type
REMARK                         _______ _______ _______ _____ _____    ______ ____
ROOT
ATOM      1  N   UNL     1       3.499   5.971  19.483  0.00  0.00    +0.000 N 
ATOM      2  C   UNL     1       2.352   6.158  20.231  0.00  0.00    +0.000 C 
ATOM      3  O   UNL     1       1.851   5.243  20.878  0.00  0.00    +0.000 OA
ATOM      4  H   UNL     1       3.911   6.797  19.066  0.00  0.00    +0.000 HD
ENDROOT
BRANCH   2   5
ATOM      5  C   UNL     1       1.778   7.500  20.190  0.00  0.00    +0.000 A 
ATOM      6  C   UNL     1       1.108   8.137  21.221  0.00  0.00    +0.000 A 
ATOM      7  C   UNL     1       0.627   9.428  20.855  0.00  0.00    +0.000 A 
ATOM      8  C   UNL     1       0.956   9.732  19.549  0.00  0.00    +0.000 A 
ATOM      9  S   UNL     1       1.852   8.498  18.797  0.00  0.00    +0.000 S 
ATOM     10  C   UNL     1       0.536  10.974  18.823  0.00  0.00    +0.000 C 
ATOM     11  C   UNL     1      -0.001  12.030  19.803  0.00  0.00    +0.000 C 
ATOM     12  C   UNL     1      -0.902  11.414  20.885  0.00  0.00    +0.000 C 
ATOM     13  C   UNL     1      -0.142  10.376  21.725  0.00  0.00    +0.000 C 
ENDBRANCH   2   5
BRANCH   1  17
ATOM     14  N   UNL     1       5.755   4.495  16.922  0.00  0.00    +0.000 NA
ATOM     15  C   UNL     1       6.171   5.420  17.996  0.00  0.00    +0.000 C 
ATOM     16  C   UNL     1       5.740   4.928  19.379  0.00  0.00    +0.000 C 
ATOM     17  C   UNL     1       4.233   4.710  19.463  0.00  0.00    +0.000 C 
ATOM     18  C   UNL     1       3.781   3.820  18.310  0.00  0.00    +0.000 C 
ATOM     19  C   UNL     1       4.291   4.309  16.954  0.00  0.00    +0.000 C 
BRANCH  14  21
ATOM     20  C   UNL     1       6.161   3.833  14.526  0.00  0.00    +0.000 C 
ATOM     21  C   UNL     1       6.229   4.950  15.584  0.00  0.00    +0.000 C 
ATOM     22  C   UNL     1       5.406   6.131  15.038  0.00  0.00    +0.000 C 
ENDBRANCH  14  21
ENDBRANCH   1  17
TORSDOF 3
ENDMDL
MODEL 7
REMARK VINA RESULT:      -6.5      3.262      4.682
REMARK  Name = 
REMARK  5 active torsions:
REMARK  status: ('A' for Active; 'I' for Inactive)
REMARK    1  A    between atoms: C_1  and  C_2
REMARK    2  A    between atoms: C_2  and  C_3
REMARK    3  A    between atoms: C_2  and  N_4
REMARK    4  A    between atoms: C_7  and  N_8
REMARK    5  A    between atoms: C_9  and  C_11
REMARK                            x       y       z     vdW  Elec       q    Type
REMARK                         _______ _______ _______ _____ _____    ______ ____
ROOT
ATOM      1  N   UNL     1       4.719   5.551  18.267  0.00  0.00    +0.000 N 
ATOM      2  C   UNL     1       3.698   5.528  19.198  0.00  0.00    +0.000 C 
ATOM      3  O   UNL     1       3.491   4.543  19.900  0.00  0.00    +0.000 OA
ATOM      4  H   UNL     1       4.895   6.434  17.804  0.00  0.00    +0.000 HD
ENDROOT
BRANCH   2   5
ATOM      5  C   UNL     1       2.886   6.739  19.281  0.00  0.00    +0.000 A 
ATOM      6  C   UNL     1       2.128   7.146  20.366  0.00  0.00    +0.000 A 
ATOM      7  C   UNL     1       1.411   8.353  20.120  0.00  0.00    +0.000 A 
ATOM      8  C   UNL     1       1.656   8.829  18.847  0.00  0.00    +0.000 A 
ATOM      9  S   UNL     1       2.751   7.855  17.984  0.00  0.00    +0.000 S 
ATOM     10  C   UNL     1       1.002  10.032  18.238  0.00  0.00    +0.000 C 
ATOM     11  C   UNL     1       0.297  10.878  19.311  0.00  0.00    +0.000 C 
ATOM     12  C   UNL     1      -0.456  10.011  20.332  0.00  0.00    +0.000 C 
ATOM     13  C   UNL     1       0.497   9.060  21.073  0.00  0.00    +0.000 C 
ENDBRANCH   2   5
BRANCH   1  17
ATOM     14  N   UNL     1       6.517   4.306  15.259  0.00  0.00    +0.000 NA
ATOM     15  C   UNL     1       6.993   5.377  16.156  0.00  0.00    +0.000 C 
ATOM     16  C   UNL     1       7.026   4.932  17.620  0.00  0.00    +0.000 C 
ATOM     17  C   UNL     1       5.661   4.449  18.099  0.00  0.00    +0.000 C 
ATOM     18  C   UNL     1       5.123   3.398  17.133  0.00  0.00    +0.000 C 
ATOM     19  C   UNL     1       5.173   3.857  15.675  0.00  0.00    +0.000 C 
BRANCH  14  21
ATOM     20  C   UNL     1       7.929   5.239  13.394  0.00  0.00    +0.000 C 
ATOM     21  C   UNL     1       6.544   4.727  13.829  0.00  0.00    +0.000 C 
ATOM     22  C   UNL     1       6.172   3.580  12.871  0.00  0.00    +0.000 C 
ENDBRANCH  14  21
ENDBRANCH   1  17
TORSDOF 3
ENDMDL
MODEL 8
REMARK VINA RESULT:      -6.4      2.230      3.338
REMARK  Name = 
REMARK  5 active torsions:
REMARK  status: ('A' for Active; 'I' for Inactive)
REMARK    1  A    between atoms: C_1  and  C_2
REMARK    2  A    between atoms: C_2  and  C_3
REMARK    3  A    between atoms: C_2  and  N_4
REMARK    4  A    between atoms: C_7  and  N_8
REMARK    5  A    between atoms: C_9  and  C_11
REMARK                            x       y       z     vdW  Elec       q    Type
REMARK                         _______ _______ _______ _____ _____    ______ ____
ROOT
ATOM      1  N   UNL     1       2.683   5.780  18.685  0.00  0.00    +0.000 N 
ATOM      2  C   UNL     1       2.187   6.126  19.927  0.00  0.00    +0.000 C 
ATOM      3  O   UNL     1       2.155   5.321  20.854  0.00  0.00    +0.000 OA
ATOM      4  H   UNL     1       2.776   6.526  18.007  0.00  0.00    +0.000 HD
ENDROOT
BRANCH   2   5
ATOM      5  C   UNL     1       1.701   7.497  20.059  0.00  0.00    +0.000 A 
ATOM      6  C   UNL     1       1.127   8.059  21.187  0.00  0.00    +0.000 A 
ATOM      7  C   UNL     1       0.714   9.409  20.985  0.00  0.00    +0.000 A 
ATOM      8  C   UNL     1       0.996   9.830  19.701  0.00  0.00    +0.000 A 
ATOM      9  S   UNL     1       1.771   8.632  18.774  0.00  0.00    +0.000 S 
ATOM     10  C   UNL     1       0.623  11.165  19.132  0.00  0.00    +0.000 C 
ATOM     11  C   UNL     1       0.206  12.141  20.245  0.00  0.00    +0.000 C 
ATOM     12  C   UNL     1      -0.677  11.468  21.307  0.00  0.00    +0.000 C 
ATOM     13  C   UNL     1       0.055  10.302  21.990  0.00  0.00    +0.000 C 
ENDBRANCH   2   5
BRANCH   1  17
ATOM     14  N   UNL     1       6.190   4.760  17.987  0.00  0.00    +0.000 NA
ATOM     15  C   UNL     1       5.585   4.875  19.329  0.00  0.00    +0.000 C 
ATOM     16  C   UNL     1       4.293   4.064  19.451  0.00  0.00    +0.000 C 
ATOM     17  C   UNL     1       3.263   4.472  18.402  0.00  0.00    +0.000 C 
ATOM     18  C   UNL     1       3.903   4.433  17.017  0.00  0.00    +0.000 C 
ATOM     19  C   UNL     1       5.226   5.196  16.958  0.00  0.00    +0.000 C 
BRANCH  14  21
ATOM     20  C   UNL     1       7.317   6.873  17.210  0.00  0.00    +0.000 C 
ATOM     21  C   UNL     1       7.479   5.503  17.893  0.00  0.00    +0.000 C 
ATOM     22  C   UNL     1       8.108   5.765  19.274  0.00  0.00    +0.000 C 
ENDBRANCH  14  21
ENDBRANCH   1  17
TORSDOF 3
ENDMDL
MODEL 9
REMARK VINA RESULT:      -6.3      2.210      7.509
REMARK  Name = 
REMARK  5 active torsions:
REMARK  status: ('A' for Active; 'I' for Inactive)
REMARK    1  A    between atoms: C_1  and  C_2
REMARK    2  A    between atoms: C_2  and  C_3
REMARK    3  A    between atoms: C_2  and  N_4
REMARK    4  A    between atoms: C_7  and  N_8
REMARK    5  A    between atoms: C_9  and  C_11
REMARK                            x       y       z     vdW  Elec       q    Type
REMARK                         _______ _______ _______ _____ _____    ______ ____
ROOT
ATOM      1  N   UNL     1       1.194   9.392  19.056  0.00  0.00    +0.000 N 
ATOM      2  C   UNL     1       2.002   8.572  18.291  0.00  0.00    +0.000 C 
ATOM      3  O   UNL     1       2.491   8.958  17.234  0.00  0.00    +0.000 OA
ATOM      4  H   UNL     1       0.917   9.041  19.965  0.00  0.00    +0.000 HD
ENDROOT
BRANCH   2   5
ATOM      5  C   UNL     1       2.222   7.228  18.817  0.00  0.00    +0.000 A 
ATOM      6  C   UNL     1       2.751   6.152  18.123  0.00  0.00    +0.000 A 
ATOM      7  C   UNL     1       2.798   4.959  18.902  0.00  0.00    +0.000 A 
ATOM      8  C   UNL     1       2.304   5.172  20.173  0.00  0.00    +0.000 A 
ATOM      9  S   UNL     1       1.826   6.785  20.427  0.00  0.00    +0.000 S 
ATOM     10  C   UNL     1       2.136   4.114  21.221  0.00  0.00    +0.000 C 
ATOM     11  C   UNL     1       2.904   2.837  20.840  0.00  0.00    +0.000 C 
ATOM     12  C   UNL     1       2.758   2.493  19.349  0.00  0.00    +0.000 C 
ATOM     13  C   UNL     1       3.302   3.620  18.457  0.00  0.00    +0.000 C 
ENDBRANCH   2   5
BRANCH   1  17
ATOM     14  N   UNL     1      -0.511  12.101  20.949  0.00  0.00    +0.000 NA
ATOM     15  C   UNL     1       0.925  11.769  21.039  0.00  0.00    +0.000 C 
ATOM     16  C   UNL     1       1.601  11.755  19.666  0.00  0.00    +0.000 C 
ATOM     17  C   UNL     1       0.923  10.782  18.707  0.00  0.00    +0.000 C 
ATOM     18  C   UNL     1      -0.575  11.066  18.668  0.00  0.00    +0.000 C 
ATOM     19  C   UNL     1      -1.198  11.141  20.063  0.00  0.00    +0.000 C 
BRANCH  14  21
ATOM     20  C   UNL     1      -2.638  12.556  22.218  0.00  0.00    +0.000 C 
ATOM     21  C   UNL     1      -1.149  12.172  22.294  0.00  0.00    +0.000 C 
ATOM     22  C   UNL     1      -1.072  10.835  23.053  0.00  0.00    +0.000 C 
ENDBRANCH  14  21
ENDBRANCH   1  17
TORSDOF 3
ENDMDL
