MODEL 1
REMARK VINA RESULT:      -8.7      0.000      0.000
REMARK  Name = 
REMARK  3 active torsions:
REMARK  status: ('A' for Active; 'I' for Inactive)
REMARK    1  A    between atoms: N_2  and  C_4
REMARK    2  A    between atoms: C_8  and  N_9
REMARK    3  A    between atoms: N_9  and  C_10
REMARK                            x       y       z     vdW  Elec       q    Type
REMARK                         _______ _______ _______ _____ _____    ______ ____
ROOT
ATOM      1  C   UNL     1       5.324   5.072  16.841  0.00  0.00    +0.000 A 
ATOM      2  N   UNL     1       4.378   4.217  17.327  0.00  0.00    +0.000 NA
ATOM      3  C   UNL     1       4.377   3.814  18.613  0.00  0.00    +0.000 A 
ATOM      4  N   UNL     1       3.379   2.980  19.031  0.00  0.00    +0.000 N 
ATOM      5  C   UNL     1       3.305   2.535  20.421  0.00  0.00    +0.000 C 
ATOM      6  C   UNL     1       1.953   2.941  21.042  0.00  0.00    +0.000 C 
ATOM      7  N   UNL     1       0.790   2.499  20.248  0.00  0.00    +0.000 NA
ATOM      8  C   UNL     1       0.913   3.032  18.873  0.00  0.00    +0.000 C 
ATOM      9  C   UNL     1       2.239   2.646  18.178  0.00  0.00    +0.000 C 
ATOM     10  N   UNL     1       5.299   4.198  19.514  0.00  0.00    +0.000 NA
ATOM     11  C   UNL     1       6.243   4.985  18.999  0.00  0.00    +0.000 A 
ATOM     12  N   UNL     1       7.302   5.525  19.670  0.00  0.00    +0.000 N 
ATOM     13  C   UNL     1       8.016   6.268  18.768  0.00  0.00    +0.000 A 
ATOM     14  N   UNL     1       7.461   6.260  17.573  0.00  0.00    +0.000 NA
ATOM     15  C   UNL     1       6.353   5.449  17.708  0.00  0.00    +0.000 A 
ATOM     16  H   UNL     1      -0.059   2.872  20.669  0.00  0.00    +0.000 HD
ATOM     17  H   UNL     1       7.491   5.397  20.651  0.00  0.00    +0.000 HD
ENDROOT
BRANCH   1  18
ATOM     18  N   UNL     1       5.206   5.594  15.534  0.00  0.00    +0.000 N 
ATOM     19  H   UNL     1       4.236   5.844  15.352  0.00  0.00    +0.000 HD
BRANCH  18  24
ATOM     20  C   UNL     1       5.841   3.561  12.476  0.00  0.00    +0.000 A 
ATOM     21  C   UNL     1       7.179   3.870  12.215  0.00  0.00    +0.000 A 
ATOM     22  C   UNL     1       7.841   4.781  13.039  0.00  0.00    +0.000 A 
ATOM     23  C   UNL     1       7.176   5.364  14.124  0.00  0.00    +0.000 A 
ATOM     24  C   UNL     1       5.848   5.029  14.411  0.00  0.00    +0.000 A 
ATOM     25  C   UNL     1       5.173   4.155  13.549  0.00  0.00    +0.000 A 
BRANCH  20  27
ATOM     26  O   UNL     1       4.003   2.906  11.229  0.00  0.00    +0.000 OA
ATOM     27  N   UNL     1       5.125   2.584  11.644  0.00  0.00    +0.000 N 
ATOM     28  O   UNL     1       5.681   1.504  11.401  0.00  0.00    +0.000 OA
ENDBRANCH  20  27
ENDBRANCH  18  24
ENDBRANCH   1  18
TORSDOF 3
ENDMDL
MODEL 2
REMARK VINA RESULT:      -8.7      5.289      8.253
REMARK  Name = 
REMARK  3 active torsions:
REMARK  status: ('A' for Active; 'I' for Inactive)
REMARK    1  A    between atoms: N_2  and  C_4
REMARK    2  A    between atoms: C_8  and  N_9
REMARK    3  A    between atoms: N_9  and  C_10
REMARK                            x       y       z     vdW  Elec       q    Type
REMARK                         _______ _______ _______ _____ _____    ______ ____
ROOT
ATOM      1  C   UNL     1       2.861   5.096  19.861  0.00  0.00    +0.000 A 
ATOM      2  N   UNL     1       4.105   5.323  19.349  0.00  0.00    +0.000 NA
ATOM      3  C   UNL     1       4.626   4.548  18.376  0.00  0.00    +0.000 A 
ATOM      4  N   UNL     1       5.867   4.858  17.894  0.00  0.00    +0.000 N 
ATOM      5  C   UNL     1       6.471   4.075  16.818  0.00  0.00    +0.000 C 
ATOM      6  C   UNL     1       6.802   4.983  15.617  0.00  0.00    +0.000 C 
ATOM      7  N   UNL     1       7.614   6.160  15.981  0.00  0.00    +0.000 NA
ATOM      8  C   UNL     1       6.913   6.925  17.034  0.00  0.00    +0.000 C 
ATOM      9  C   UNL     1       6.566   6.082  18.283  0.00  0.00    +0.000 C 
ATOM     10  N   UNL     1       3.987   3.491  17.844  0.00  0.00    +0.000 NA
ATOM     11  C   UNL     1       2.800   3.257  18.403  0.00  0.00    +0.000 A 
ATOM     12  N   UNL     1       1.932   2.258  18.072  0.00  0.00    +0.000 N 
ATOM     13  C   UNL     1       0.838   2.385  18.886  0.00  0.00    +0.000 A 
ATOM     14  N   UNL     1       0.942   3.422  19.692  0.00  0.00    +0.000 NA
ATOM     15  C   UNL     1       2.175   3.969  19.402  0.00  0.00    +0.000 A 
ATOM     16  H   UNL     1       7.722   6.754  15.160  0.00  0.00    +0.000 HD
ATOM     17  H   UNL     1       2.085   1.575  17.348  0.00  0.00    +0.000 HD
ENDROOT
BRANCH   1  18
ATOM     18  N   UNL     1       2.285   6.016  20.764  0.00  0.00    +0.000 N 
ATOM     19  H   UNL     1       1.619   5.535  21.365  0.00  0.00    +0.000 HD
BRANCH  18  24
ATOM     20  C   UNL     1       0.749   9.409  20.899  0.00  0.00    +0.000 A 
ATOM     21  C   UNL     1       0.944   9.851  19.587  0.00  0.00    +0.000 A 
ATOM     22  C   UNL     1       1.620   9.027  18.685  0.00  0.00    +0.000 A 
ATOM     23  C   UNL     1       2.078   7.767  19.087  0.00  0.00    +0.000 A 
ATOM     24  C   UNL     1       1.852   7.307  20.388  0.00  0.00    +0.000 A 
ATOM     25  C   UNL     1       1.222   8.159  21.304  0.00  0.00    +0.000 A 
BRANCH  20  27
ATOM     26  O   UNL     1       0.355  10.161  23.053  0.00  0.00    +0.000 OA
ATOM     27  N   UNL     1       0.016  10.241  21.864  0.00  0.00    +0.000 N 
ATOM     28  O   UNL     1      -0.887  10.973  21.439  0.00  0.00    +0.000 OA
ENDBRANCH  20  27
ENDBRANCH  18  24
ENDBRANCH   1  18
TORSDOF 3
ENDMDL
MODEL 3
REMARK VINA RESULT:      -8.4      4.260      7.595
REMARK  Name = 
REMARK  3 active torsions:
REMARK  status: ('A' for Active; 'I' for Inactive)
REMARK    1  A    between atoms: N_2  and  C_4
REMARK    2  A    between atoms: C_8  and  N_9
REMARK    3  A    between atoms: N_9  and  C_10
REMARK                            x       y       z     vdW  Elec       q    Type
REMARK                         _______ _______ _______ _____ _____    ______ ____
ROOT
ATOM      1  C   UNL     1       2.827   4.961  20.020  0.00  0.00    +0.000 A 
ATOM      2  N   UNL     1       4.063   5.226  19.504  0.00  0.00    +0.000 NA
ATOM      3  C   UNL     1       4.569   4.518  18.475  0.00  0.00    +0.000 A 
ATOM      4  N   UNL     1       5.801   4.863  17.995  0.00  0.00    +0.000 N 
ATOM      5  C   UNL     1       6.391   4.155  16.860  0.00  0.00    +0.000 C 
ATOM      6  C   UNL     1       6.700   5.141  15.716  0.00  0.00    +0.000 C 
ATOM      7  N   UNL     1       7.515   6.294  16.144  0.00  0.00    +0.000 NA
ATOM      8  C   UNL     1       6.829   6.986  17.256  0.00  0.00    +0.000 C 
ATOM      9  C   UNL     1       6.504   6.062  18.452  0.00  0.00    +0.000 C 
ATOM     10  N   UNL     1       3.924   3.496  17.885  0.00  0.00    +0.000 NA
ATOM     11  C   UNL     1       2.748   3.222  18.446  0.00  0.00    +0.000 A 
ATOM     12  N   UNL     1       1.876   2.244  18.063  0.00  0.00    +0.000 N 
ATOM     13  C   UNL     1       0.795   2.314  18.902  0.00  0.00    +0.000 A 
ATOM     14  N   UNL     1       0.910   3.295  19.772  0.00  0.00    +0.000 NA
ATOM     15  C   UNL     1       2.137   3.864  19.499  0.00  0.00    +0.000 A 
ATOM     16  H   UNL     1       7.608   6.942  15.363  0.00  0.00    +0.000 HD
ATOM     17  H   UNL     1       2.019   1.611  17.293  0.00  0.00    +0.000 HD
ENDROOT
BRANCH   1  18
ATOM     18  N   UNL     1       2.264   5.818  20.991  0.00  0.00    +0.000 N 
ATOM     19  H   UNL     1       1.696   5.275  21.639  0.00  0.00    +0.000 HD
BRANCH  18  24
ATOM     20  C   UNL     1       1.515   9.030  19.256  0.00  0.00    +0.000 A 
ATOM     21  C   UNL     1       0.592   9.606  20.133  0.00  0.00    +0.000 A 
ATOM     22  C   UNL     1       0.202   8.900  21.272  0.00  0.00    +0.000 A 
ATOM     23  C   UNL     1       0.744   7.638  21.539  0.00  0.00    +0.000 A 
ATOM     24  C   UNL     1       1.696   7.074  20.684  0.00  0.00    +0.000 A 
ATOM     25  C   UNL     1       2.043   7.764  19.515  0.00  0.00    +0.000 A 
BRANCH  20  27
ATOM     26  O   UNL     1       1.998  10.998  18.134  0.00  0.00    +0.000 OA
ATOM     27  N   UNL     1       1.967   9.761  18.064  0.00  0.00    +0.000 N 
ATOM     28  O   UNL     1       2.292   9.106  17.065  0.00  0.00    +0.000 OA
ENDBRANCH  20  27
ENDBRANCH  18  24
ENDBRANCH   1  18
TORSDOF 3
ENDMDL
MODEL 4
REMARK VINA RESULT:      -7.8      5.352      8.016
REMARK  Name = 
REMARK  3 active torsions:
REMARK  status: ('A' for Active; 'I' for Inactive)
REMARK    1  A    between atoms: N_2  and  C_4
REMARK    2  A    between atoms: C_8  and  N_9
REMARK    3  A    between atoms: N_9  and  C_10
REMARK                            x       y       z     vdW  Elec       q    Type
REMARK                         _______ _______ _______ _____ _____    ______ ____
ROOT
ATOM      1  C   UNL     1       2.803   5.588  19.967  0.00  0.00    +0.000 A 
ATOM      2  N   UNL     1       3.806   5.731  19.053  0.00  0.00    +0.000 NA
ATOM      3  C   UNL     1       4.222   4.702  18.288  0.00  0.00    +0.000 A 
ATOM      4  N   UNL     1       5.211   4.932  17.373  0.00  0.00    +0.000 N 
ATOM      5  C   UNL     1       5.683   3.866  16.493  0.00  0.00    +0.000 C 
ATOM      6  C   UNL     1       5.508   4.274  15.016  0.00  0.00    +0.000 C 
ATOM      7  N   UNL     1       6.118   5.579  14.695  0.00  0.00    +0.000 NA
ATOM      8  C   UNL     1       5.552   6.611  15.592  0.00  0.00    +0.000 C 
ATOM      9  C   UNL     1       5.711   6.278  17.093  0.00  0.00    +0.000 C 
ATOM     10  N   UNL     1       3.709   3.461  18.365  0.00  0.00    +0.000 NA
ATOM     11  C   UNL     1       2.774   3.336  19.306  0.00  0.00    +0.000 A 
ATOM     12  N   UNL     1       2.081   2.201  19.613  0.00  0.00    +0.000 N 
ATOM     13  C   UNL     1       1.221   2.515  20.632  0.00  0.00    +0.000 A 
ATOM     14  N   UNL     1       1.300   3.785  20.969  0.00  0.00    +0.000 NA
ATOM     15  C   UNL     1       2.279   4.306  20.148  0.00  0.00    +0.000 A 
ATOM     16  H   UNL     1       5.892   5.822  13.732  0.00  0.00    +0.000 HD
ATOM     17  H   UNL     1       2.192   1.313  19.151  0.00  0.00    +0.000 HD
ENDROOT
BRANCH   1  18
ATOM     18  N   UNL     1       2.287   6.718  20.639  0.00  0.00    +0.000 N 
ATOM     19  H   UNL     1       1.650   6.418  21.375  0.00  0.00    +0.000 HD
BRANCH  18  24
ATOM     20  C   UNL     1       0.695  10.021  19.974  0.00  0.00    +0.000 A 
ATOM     21  C   UNL     1       0.929  10.167  18.604  0.00  0.00    +0.000 A 
ATOM     22  C   UNL     1       1.648   9.181  17.927  0.00  0.00    +0.000 A 
ATOM     23  C   UNL     1       2.112   8.051  18.611  0.00  0.00    +0.000 A 
ATOM     24  C   UNL     1       1.848   7.883  19.974  0.00  0.00    +0.000 A 
ATOM     25  C   UNL     1       1.173   8.902  20.659  0.00  0.00    +0.000 A 
BRANCH  20  27
ATOM     26  O   UNL     1       0.449  11.542  21.703  0.00  0.00    +0.000 OA
ATOM     27  N   UNL     1      -0.083  11.029  20.709  0.00  0.00    +0.000 N 
ATOM     28  O   UNL     1      -1.216  11.309  20.294  0.00  0.00    +0.000 OA
ENDBRANCH  20  27
ENDBRANCH  18  24
ENDBRANCH   1  18
TORSDOF 3
ENDMDL
MODEL 5
REMARK VINA RESULT:      -7.4      1.975      2.275
REMARK  Name = 
REMARK  3 active torsions:
REMARK  status: ('A' for Active; 'I' for Inactive)
REMARK    1  A    between atoms: N_2  and  C_4
REMARK    2  A    between atoms: C_8  and  N_9
REMARK    3  A    between atoms: N_9  and  C_10
REMARK                            x       y       z     vdW  Elec       q    Type
REMARK                         _______ _______ _______ _____ _____    ______ ____
ROOT
ATOM      1  C   UNL     1       5.024   4.822  17.035  0.00  0.00    +0.000 A 
ATOM      2  N   UNL     1       4.109   4.033  17.668  0.00  0.00    +0.000 NA
ATOM      3  C   UNL     1       4.222   3.722  18.975  0.00  0.00    +0.000 A 
ATOM      4  N   UNL     1       3.248   2.951  19.546  0.00  0.00    +0.000 N 
ATOM      5  C   UNL     1       3.298   2.607  20.965  0.00  0.00    +0.000 C 
ATOM      6  C   UNL     1       2.022   3.098  21.679  0.00  0.00    +0.000 C 
ATOM      7  N   UNL     1       0.778   2.638  21.033  0.00  0.00    +0.000 NA
ATOM      8  C   UNL     1       0.781   3.068  19.618  0.00  0.00    +0.000 C 
ATOM      9  C   UNL     1       2.023   2.593  18.830  0.00  0.00    +0.000 C 
ATOM     10  N   UNL     1       5.236   4.139  19.755  0.00  0.00    +0.000 NA
ATOM     11  C   UNL     1       6.144   4.857  19.097  0.00  0.00    +0.000 A 
ATOM     12  N   UNL     1       7.275   5.410  19.623  0.00  0.00    +0.000 N 
ATOM     13  C   UNL     1       7.918   6.065  18.606  0.00  0.00    +0.000 A 
ATOM     14  N   UNL     1       7.250   5.991  17.474  0.00  0.00    +0.000 NA
ATOM     15  C   UNL     1       6.140   5.226  17.771  0.00  0.00    +0.000 A 
ATOM     16  H   UNL     1      -0.017   3.066  21.504  0.00  0.00    +0.000 HD
ATOM     17  H   UNL     1       7.556   5.345  20.589  0.00  0.00    +0.000 HD
ENDROOT
BRANCH   1  18
ATOM     18  N   UNL     1       4.794   5.254  15.710  0.00  0.00    +0.000 N 
ATOM     19  H   UNL     1       3.794   5.242  15.515  0.00  0.00    +0.000 HD
BRANCH  18  24
ATOM     20  C   UNL     1       7.411   5.171  13.058  0.00  0.00    +0.000 A 
ATOM     21  C   UNL     1       7.067   4.004  12.370  0.00  0.00    +0.000 A 
ATOM     22  C   UNL     1       5.990   3.239  12.822  0.00  0.00    +0.000 A 
ATOM     23  C   UNL     1       5.255   3.649  13.941  0.00  0.00    +0.000 A 
ATOM     24  C   UNL     1       5.573   4.835  14.610  0.00  0.00    +0.000 A 
ATOM     25  C   UNL     1       6.687   5.570  14.184  0.00  0.00    +0.000 A 
BRANCH  20  27
ATOM     26  O   UNL     1       9.546   6.038  13.286  0.00  0.00    +0.000 OA
ATOM     27  N   UNL     1       8.522   6.013  12.590  0.00  0.00    +0.000 N 
ATOM     28  O   UNL     1       8.374   6.641  11.533  0.00  0.00    +0.000 OA
ENDBRANCH  20  27
ENDBRANCH  18  24
ENDBRANCH   1  18
TORSDOF 3
ENDMDL
MODEL 6
REMARK VINA RESULT:      -7.3      3.340      7.052
REMARK  Name = 
REMARK  3 active torsions:
REMARK  status: ('A' for Active; 'I' for Inactive)
REMARK    1  A    between atoms: N_2  and  C_4
REMARK    2  A    between atoms: C_8  and  N_9
REMARK    3  A    between atoms: N_9  and  C_10
REMARK                            x       y       z     vdW  Elec       q    Type
REMARK                         _______ _______ _______ _____ _____    ______ ____
ROOT
ATOM      1  C   UNL     1       5.470   4.134  17.764  0.00  0.00    +0.000 A 
ATOM      2  N   UNL     1       5.437   4.196  16.401  0.00  0.00    +0.000 NA
ATOM      3  C   UNL     1       6.341   4.910  15.700  0.00  0.00    +0.000 A 
ATOM      4  N   UNL     1       6.259   4.898  14.335  0.00  0.00    +0.000 N 
ATOM      5  C   UNL     1       7.229   5.625  13.519  0.00  0.00    +0.000 C 
ATOM      6  C   UNL     1       7.946   4.661  12.553  0.00  0.00    +0.000 C 
ATOM      7  N   UNL     1       7.018   3.854  11.738  0.00  0.00    +0.000 NA
ATOM      8  C   UNL     1       6.107   3.110  12.635  0.00  0.00    +0.000 C 
ATOM      9  C   UNL     1       5.335   4.017  13.621  0.00  0.00    +0.000 C 
ATOM     10  N   UNL     1       7.327   5.626  16.268  0.00  0.00    +0.000 NA
ATOM     11  C   UNL     1       7.300   5.595  17.600  0.00  0.00    +0.000 A 
ATOM     12  N   UNL     1       8.170   6.224  18.442  0.00  0.00    +0.000 N 
ATOM     13  C   UNL     1       7.783   5.925  19.721  0.00  0.00    +0.000 A 
ATOM     14  N   UNL     1       6.741   5.119  19.745  0.00  0.00    +0.000 NA
ATOM     15  C   UNL     1       6.426   4.915  18.418  0.00  0.00    +0.000 A 
ATOM     16  H   UNL     1       7.556   3.185  11.189  0.00  0.00    +0.000 HD
ATOM     17  H   UNL     1       8.952   6.787  18.151  0.00  0.00    +0.000 HD
ENDROOT
BRANCH   1  18
ATOM     18  N   UNL     1       4.608   3.255  18.456  0.00  0.00    +0.000 N 
ATOM     19  H   UNL     1       4.451   2.419  17.897  0.00  0.00    +0.000 HD
BRANCH  18  24
ATOM     20  C   UNL     1       2.036   5.448  20.027  0.00  0.00    +0.000 A 
ATOM     21  C   UNL     1       1.164   4.501  20.570  0.00  0.00    +0.000 A 
ATOM     22  C   UNL     1       1.423   3.144  20.373  0.00  0.00    +0.000 A 
ATOM     23  C   UNL     1       2.554   2.739  19.654  0.00  0.00    +0.000 A 
ATOM     24  C   UNL     1       3.450   3.683  19.142  0.00  0.00    +0.000 A 
ATOM     25  C   UNL     1       3.156   5.044  19.297  0.00  0.00    +0.000 A 
BRANCH  20  27
ATOM     26  O   UNL     1       2.231   7.662  19.377  0.00  0.00    +0.000 OA
ATOM     27  N   UNL     1       1.806   6.884  20.242  0.00  0.00    +0.000 N 
ATOM     28  O   UNL     1       1.202   7.233  21.265  0.00  0.00    +0.000 OA
ENDBRANCH  20  27
ENDBRANCH  18  24
ENDBRANCH   1  18
TORSDOF 3
ENDMDL
MODEL 7
REMARK VINA RESULT:      -7.3     10.168     12.082
REMARK  Name = 
REMARK  3 active torsions:
REMARK  status: ('A' for Active; 'I' for Inactive)
REMARK    1  A    between atoms: N_2  and  C_4
REMARK    2  A    between atoms: C_8  and  N_9
REMARK    3  A    between atoms: N_9  and  C_10
REMARK                            x       y       z     vdW  Elec       q    Type
REMARK                         _______ _______ _______ _____ _____    ______ ____
ROOT
ATOM      1  C   UNL     1      -1.889  11.460  18.149  0.00  0.00    +0.000 A 
ATOM      2  N   UNL     1      -2.501  12.088  19.195  0.00  0.00    +0.000 NA
ATOM      3  C   UNL     1      -3.832  12.303  19.214  0.00  0.00    +0.000 A 
ATOM      4  N   UNL     1      -4.374  12.912  20.311  0.00  0.00    +0.000 N 
ATOM      5  C   UNL     1      -5.814  13.143  20.406  0.00  0.00    +0.000 C 
ATOM      6  C   UNL     1      -6.384  12.457  21.664  0.00  0.00    +0.000 C 
ATOM      7  N   UNL     1      -5.672  12.826  22.903  0.00  0.00    +0.000 NA
ATOM      8  C   UNL     1      -4.235  12.515  22.746  0.00  0.00    +0.000 C 
ATOM      9  C   UNL     1      -3.588  13.187  21.514  0.00  0.00    +0.000 C 
ATOM     10  N   UNL     1      -4.659  11.940  18.219  0.00  0.00    +0.000 NA
ATOM     11  C   UNL     1      -4.028  11.383  17.186  0.00  0.00    +0.000 A 
ATOM     12  N   UNL     1      -4.604  10.919  16.039  0.00  0.00    +0.000 N 
ATOM     13  C   UNL     1      -3.599  10.425  15.252  0.00  0.00    +0.000 A 
ATOM     14  N   UNL     1      -2.423  10.515  15.839  0.00  0.00    +0.000 NA
ATOM     15  C   UNL     1      -2.683  11.124  17.050  0.00  0.00    +0.000 A 
ATOM     16  H   UNL     1      -6.045  12.275  23.675  0.00  0.00    +0.000 HD
ATOM     17  H   UNL     1      -5.591  10.936  15.840  0.00  0.00    +0.000 HD
ENDROOT
BRANCH   1  18
ATOM     18  N   UNL     1      -0.522  11.113  18.230  0.00  0.00    +0.000 N 
ATOM     19  H   UNL     1      -0.181  10.850  17.307  0.00  0.00    +0.000 HD
BRANCH  18  24
ATOM     20  C   UNL     1       0.191   9.713  21.609  0.00  0.00    +0.000 A 
ATOM     21  C   UNL     1       1.162   8.754  21.308  0.00  0.00    +0.000 A 
ATOM     22  C   UNL     1       1.539   8.559  19.979  0.00  0.00    +0.000 A 
ATOM     23  C   UNL     1       0.962   9.330  18.962  0.00  0.00    +0.000 A 
ATOM     24  C   UNL     1       0.018  10.317  19.263  0.00  0.00    +0.000 A 
ATOM     25  C   UNL     1      -0.396  10.470  20.593  0.00  0.00    +0.000 A 
BRANCH  20  27
ATOM     26  O   UNL     1       0.581   9.600  23.889  0.00  0.00    +0.000 OA
ATOM     27  N   UNL     1      -0.206   9.961  23.003  0.00  0.00    +0.000 N 
ATOM     28  O   UNL     1      -1.292  10.516  23.211  0.00  0.00    +0.000 OA
ENDBRANCH  20  27
ENDBRANCH  18  24
ENDBRANCH   1  18
TORSDOF 3
ENDMDL
MODEL 8
REMARK VINA RESULT:      -7.3      5.012      6.616
REMARK  Name = 
REMARK  3 active torsions:
REMARK  status: ('A' for Active; 'I' for Inactive)
REMARK    1  A    between atoms: N_2  and  C_4
REMARK    2  A    between atoms: C_8  and  N_9
REMARK    3  A    between atoms: N_9  and  C_10
REMARK                            x       y       z     vdW  Elec       q    Type
REMARK                         _______ _______ _______ _____ _____    ______ ____
ROOT
ATOM      1  C   UNL     1       3.714   6.687  17.792  0.00  0.00    +0.000 A 
ATOM      2  N   UNL     1       3.043   5.655  18.380  0.00  0.00    +0.000 NA
ATOM      3  C   UNL     1       3.674   4.533  18.781  0.00  0.00    +0.000 A 
ATOM      4  N   UNL     1       2.937   3.556  19.390  0.00  0.00    +0.000 N 
ATOM      5  C   UNL     1       3.569   2.332  19.876  0.00  0.00    +0.000 C 
ATOM      6  C   UNL     1       3.316   2.163  21.387  0.00  0.00    +0.000 C 
ATOM      7  N   UNL     1       1.889   2.242  21.753  0.00  0.00    +0.000 NA
ATOM      8  C   UNL     1       1.337   3.527  21.273  0.00  0.00    +0.000 C 
ATOM      9  C   UNL     1       1.536   3.757  19.757  0.00  0.00    +0.000 C 
ATOM     10  N   UNL     1       4.994   4.326  18.627  0.00  0.00    +0.000 NA
ATOM     11  C   UNL     1       5.614   5.323  17.998  0.00  0.00    +0.000 A 
ATOM     12  N   UNL     1       6.944   5.392  17.702  0.00  0.00    +0.000 N 
ATOM     13  C   UNL     1       7.156   6.583  17.060  0.00  0.00    +0.000 A 
ATOM     14  N   UNL     1       6.050   7.291  16.959  0.00  0.00    +0.000 NA
ATOM     15  C   UNL     1       5.076   6.503  17.537  0.00  0.00    +0.000 A 
ATOM     16  H   UNL     1       1.805   2.207  22.767  0.00  0.00    +0.000 HD
ATOM     17  H   UNL     1       7.626   4.688  17.936  0.00  0.00    +0.000 HD
ENDROOT
BRANCH   1  18
ATOM     18  N   UNL     1       3.053   7.906  17.527  0.00  0.00    +0.000 N 
ATOM     19  H   UNL     1       3.719   8.585  17.164  0.00  0.00    +0.000 HD
BRANCH  18  24
ATOM     20  C   UNL     1       0.285  10.031  18.837  0.00  0.00    +0.000 A 
ATOM     21  C   UNL     1       0.263   9.653  20.182  0.00  0.00    +0.000 A 
ATOM     22  C   UNL     1       1.144   8.666  20.627  0.00  0.00    +0.000 A 
ATOM     23  C   UNL     1       2.051   8.078  19.737  0.00  0.00    +0.000 A 
ATOM     24  C   UNL     1       2.103   8.480  18.399  0.00  0.00    +0.000 A 
ATOM     25  C   UNL     1       1.179   9.432  17.947  0.00  0.00    +0.000 A 
BRANCH  20  27
ATOM     26  O   UNL     1      -1.532  10.744  17.591  0.00  0.00    +0.000 OA
ATOM     27  N   UNL     1      -0.610  11.088  18.344  0.00  0.00    +0.000 N 
ATOM     28  O   UNL     1      -0.398  12.251  18.709  0.00  0.00    +0.000 OA
ENDBRANCH  20  27
ENDBRANCH  18  24
ENDBRANCH   1  18
TORSDOF 3
ENDMDL
MODEL 9
REMARK VINA RESULT:      -7.2      5.055      6.580
REMARK  Name = 
REMARK  3 active torsions:
REMARK  status: ('A' for Active; 'I' for Inactive)
REMARK    1  A    between atoms: N_2  and  C_4
REMARK    2  A    between atoms: C_8  and  N_9
REMARK    3  A    between atoms: N_9  and  C_10
REMARK                            x       y       z     vdW  Elec       q    Type
REMARK                         _______ _______ _______ _____ _____    ______ ____
ROOT
ATOM      1  C   UNL     1       3.677   6.699  17.663  0.00  0.00    +0.000 A 
ATOM      2  N   UNL     1       3.005   5.660  18.239  0.00  0.00    +0.000 NA
ATOM      3  C   UNL     1       3.653   4.614  18.790  0.00  0.00    +0.000 A 
ATOM      4  N   UNL     1       2.910   3.626  19.375  0.00  0.00    +0.000 N 
ATOM      5  C   UNL     1       3.555   2.483  20.018  0.00  0.00    +0.000 C 
ATOM      6  C   UNL     1       3.129   2.392  21.497  0.00  0.00    +0.000 C 
ATOM      7  N   UNL     1       1.666   2.391  21.685  0.00  0.00    +0.000 NA
ATOM      8  C   UNL     1       1.097   3.601  21.053  0.00  0.00    +0.000 C 
ATOM      9  C   UNL     1       1.464   3.749  19.559  0.00  0.00    +0.000 C 
ATOM     10  N   UNL     1       4.993   4.492  18.809  0.00  0.00    +0.000 NA
ATOM     11  C   UNL     1       5.620   5.490  18.188  0.00  0.00    +0.000 A 
ATOM     12  N   UNL     1       6.969   5.635  18.047  0.00  0.00    +0.000 N 
ATOM     13  C   UNL     1       7.182   6.796  17.352  0.00  0.00    +0.000 A 
ATOM     14  N   UNL     1       6.054   7.415  17.071  0.00  0.00    +0.000 NA
ATOM     15  C   UNL     1       5.068   6.597  17.584  0.00  0.00    +0.000 A 
ATOM     16  H   UNL     1       1.460   2.414  22.683  0.00  0.00    +0.000 HD
ATOM     17  H   UNL     1       7.660   4.998  18.409  0.00  0.00    +0.000 HD
ENDROOT
BRANCH   1  18
ATOM     18  N   UNL     1       2.976   7.848  17.235  0.00  0.00    +0.000 N 
ATOM     19  H   UNL     1       3.530   8.348  16.542  0.00  0.00    +0.000 HD
BRANCH  18  24
ATOM     20  C   UNL     1       1.154   9.134  20.221  0.00  0.00    +0.000 A 
ATOM     21  C   UNL     1       0.865  10.442  19.823  0.00  0.00    +0.000 A 
ATOM     22  C   UNL     1       1.315  10.891  18.580  0.00  0.00    +0.000 A 
ATOM     23  C   UNL     1       2.031  10.033  17.737  0.00  0.00    +0.000 A 
ATOM     24  C   UNL     1       2.290   8.711  18.116  0.00  0.00    +0.000 A 
ATOM     25  C   UNL     1       1.882   8.284  19.386  0.00  0.00    +0.000 A 
BRANCH  20  27
ATOM     26  O   UNL     1      -0.400   7.996  21.507  0.00  0.00    +0.000 OA
ATOM     27  N   UNL     1       0.669   8.623  21.511  0.00  0.00    +0.000 N 
ATOM     28  O   UNL     1       1.352   8.842  22.520  0.00  0.00    +0.000 OA
ENDBRANCH  20  27
ENDBRANCH  18  24
ENDBRANCH   1  18
TORSDOF 3
ENDMDL
