MODEL 1
REMARK VINA RESULT:      -6.4      0.000      0.000
REMARK  Name = 
REMARK  12 active torsions:
REMARK  status: ('A' for Active; 'I' for Inactive)
REMARK    1  A    between atoms: C_1  and  C_2
REMARK    2  A    between atoms: C_2  and  C_3
REMARK    3  A    between atoms: C_3  and  CA_4
REMARK    4  A    between atoms: CA_4  and  N_5
REMARK    5  A    between atoms: CA_4  and  C_16
REMARK    6  A    between atoms: C_6  and  C_8
REMARK    7  A    between atoms: C_8  and  N_9
REMARK    8  A    between atoms: C_10  and  C_12
REMARK    9  A    between atoms: C_12  and  C_13
REMARK   10  A    between atoms: C_12  and  C_14
REMARK   11  A    between atoms: C_12  and  C_15
REMARK   12  A    between atoms: C_16  and  OXT_18
REMARK                            x       y       z     vdW  Elec       q    Type
REMARK                         _______ _______ _______ _____ _____    ______ ____
ROOT
ATOM      1  N   UNL     1       4.701   5.270  16.821  0.00  0.00    +0.000 N 
ATOM      2  C   UNL     1       4.256   6.428  17.412  0.00  0.00    +0.000 C 
ATOM      3  O   UNL     1       4.756   7.514  17.125  0.00  0.00    +0.000 OA
ATOM      4  H   UNL     1       4.222   4.400  17.053  0.00  0.00    +0.000 HD
ENDROOT
BRANCH   1   5
ATOM      5  CA  UNL     1       5.765   5.254  15.801  0.00  0.00    +0.000 C 
BRANCH   5   6
ATOM      6  C   UNL     1       7.160   5.373  16.456  0.00  0.00    +0.000 C 
ATOM      7  O   UNL     1       7.842   4.422  16.817  0.00  0.00    +0.000 OA
BRANCH   6   8
ATOM      8  OXT UNL     1       7.626   6.643  16.519  0.00  0.00    +0.000 OA
ATOM      9  HXT UNL     1       6.978   7.296  16.154  0.00  0.00    +0.000 HD
ENDBRANCH   6   8
ENDBRANCH   5   6
BRANCH   5  10
ATOM     10  C   UNL     1       5.698   4.017  14.909  0.00  0.00    +0.000 C 
BRANCH  10  12
ATOM     11  C   UNL     1       5.862   3.356  12.486  0.00  0.00    +0.000 C 
ATOM     12  C   UNL     1       6.485   4.172  13.607  0.00  0.00    +0.000 C 
ENDBRANCH  10  12
ENDBRANCH   5  10
ENDBRANCH   1   5
BRANCH   2  13
ATOM     13  C   UNL     1       3.160   6.263  18.467  0.00  0.00    +0.000 C 
BRANCH  13  14
ATOM     14  N   UNL     1       2.887   4.874  18.774  0.00  0.00    +0.000 N 
ATOM     15  C   UNL     1       2.065   4.522  19.818  0.00  0.00    +0.000 C 
ATOM     16  O   UNL     1       1.589   5.377  20.563  0.00  0.00    +0.000 OA
ATOM     17  H   UNL     1       3.333   4.164  18.208  0.00  0.00    +0.000 HD
BRANCH  15  18
ATOM     18  C   UNL     1       1.835   3.007  20.011  0.00  0.00    +0.000 C 
ATOM     19  C   UNL     1       0.713   2.536  19.076  0.00  0.00    +0.000 C 
ATOM     20  C   UNL     1       3.128   2.248  19.664  0.00  0.00    +0.000 C 
ATOM     21  C   UNL     1       1.462   2.685  21.467  0.00  0.00    +0.000 C 
ENDBRANCH  15  18
ENDBRANCH  13  14
ENDBRANCH   2  13
TORSDOF 8
ENDMDL
MODEL 2
REMARK VINA RESULT:      -6.4      0.150      1.018
REMARK  Name = 
REMARK  12 active torsions:
REMARK  status: ('A' for Active; 'I' for Inactive)
REMARK    1  A    between atoms: C_1  and  C_2
REMARK    2  A    between atoms: C_2  and  C_3
REMARK    3  A    between atoms: C_3  and  CA_4
REMARK    4  A    between atoms: CA_4  and  N_5
REMARK    5  A    between atoms: CA_4  and  C_16
REMARK    6  A    between atoms: C_6  and  C_8
REMARK    7  A    between atoms: C_8  and  N_9
REMARK    8  A    between atoms: C_10  and  C_12
REMARK    9  A    between atoms: C_12  and  C_13
REMARK   10  A    between atoms: C_12  and  C_14
REMARK   11  A    between atoms: C_12  and  C_15
REMARK   12  A    between atoms: C_16  and  OXT_18
REMARK                            x       y       z     vdW  Elec       q    Type
REMARK                         _______ _______ _______ _____ _____    ______ ____
ROOT
ATOM      1  N   UNL     1       4.657   5.261  16.790  0.00  0.00    +0.000 N 
ATOM      2  C   UNL     1       4.177   6.423  17.344  0.00  0.00    +0.000 C 
ATOM      3  O   UNL     1       4.691   7.509  17.075  0.00  0.00    +0.000 OA
ATOM      4  H   UNL     1       4.167   4.392  17.002  0.00  0.00    +0.000 HD
ENDROOT
BRANCH   1   5
ATOM      5  CA  UNL     1       5.777   5.239  15.832  0.00  0.00    +0.000 C 
BRANCH   5   6
ATOM      6  C   UNL     1       7.131   5.405  16.559  0.00  0.00    +0.000 C 
ATOM      7  O   UNL     1       7.768   4.488  17.060  0.00  0.00    +0.000 OA
BRANCH   6   8
ATOM      8  OXT UNL     1       7.618   6.668  16.521  0.00  0.00    +0.000 OA
ATOM      9  HXT UNL     1       7.074   7.294  17.060  0.00  0.00    +0.000 HD
ENDBRANCH   6   8
ENDBRANCH   5   6
BRANCH   5  10
ATOM     10  C   UNL     1       5.784   3.975  14.974  0.00  0.00    +0.000 C 
BRANCH  10  12
ATOM     11  C   UNL     1       5.819   3.399  12.525  0.00  0.00    +0.000 C 
ATOM     12  C   UNL     1       6.516   4.156  13.644  0.00  0.00    +0.000 C 
ENDBRANCH  10  12
ENDBRANCH   5  10
ENDBRANCH   1   5
BRANCH   2  13
ATOM     13  C   UNL     1       3.024   6.266  18.337  0.00  0.00    +0.000 C 
BRANCH  13  14
ATOM     14  N   UNL     1       2.728   4.879  18.631  0.00  0.00    +0.000 N 
ATOM     15  C   UNL     1       2.163   4.508  19.828  0.00  0.00    +0.000 C 
ATOM     16  O   UNL     1       1.954   5.338  20.711  0.00  0.00    +0.000 OA
ATOM     17  H   UNL     1       2.964   4.183  17.936  0.00  0.00    +0.000 HD
BRANCH  15  18
ATOM     18  C   UNL     1       1.871   3.000  19.995  0.00  0.00    +0.000 C 
ATOM     19  C   UNL     1       1.387   2.728  21.425  0.00  0.00    +0.000 C 
ATOM     20  C   UNL     1       0.769   2.584  19.006  0.00  0.00    +0.000 C 
ATOM     21  C   UNL     1       3.125   2.158  19.705  0.00  0.00    +0.000 C 
ENDBRANCH  15  18
ENDBRANCH  13  14
ENDBRANCH   2  13
TORSDOF 8
ENDMDL
MODEL 3
REMARK VINA RESULT:      -6.3      1.691      2.112
REMARK  Name = 
REMARK  12 active torsions:
REMARK  status: ('A' for Active; 'I' for Inactive)
REMARK    1  A    between atoms: C_1  and  C_2
REMARK    2  A    between atoms: C_2  and  C_3
REMARK    3  A    between atoms: C_3  and  CA_4
REMARK    4  A    between atoms: CA_4  and  N_5
REMARK    5  A    between atoms: CA_4  and  C_16
REMARK    6  A    between atoms: C_6  and  C_8
REMARK    7  A    between atoms: C_8  and  N_9
REMARK    8  A    between atoms: C_10  and  C_12
REMARK    9  A    between atoms: C_12  and  C_13
REMARK   10  A    between atoms: C_12  and  C_14
REMARK   11  A    between atoms: C_12  and  C_15
REMARK   12  A    between atoms: C_16  and  OXT_18
REMARK                            x       y       z     vdW  Elec       q    Type
REMARK                         _______ _______ _______ _____ _____    ______ ____
ROOT
ATOM      1  N   UNL     1       5.468   3.671  16.050  0.00  0.00    +0.000 N 
ATOM      2  C   UNL     1       4.378   3.896  16.857  0.00  0.00    +0.000 C 
ATOM      3  O   UNL     1       4.022   5.042  17.129  0.00  0.00    +0.000 OA
ATOM      4  H   UNL     1       5.694   2.706  15.812  0.00  0.00    +0.000 HD
ENDROOT
BRANCH   1   5
ATOM      5  CA  UNL     1       6.248   4.763  15.443  0.00  0.00    +0.000 C 
BRANCH   5   6
ATOM      6  C   UNL     1       7.388   5.218  16.383  0.00  0.00    +0.000 C 
ATOM      7  O   UNL     1       8.051   4.467  17.085  0.00  0.00    +0.000 OA
BRANCH   6   8
ATOM      8  OXT UNL     1       7.666   6.541  16.301  0.00  0.00    +0.000 OA
ATOM      9  HXT UNL     1       8.458   6.721  15.736  0.00  0.00    +0.000 HD
ENDBRANCH   6   8
ENDBRANCH   5   6
BRANCH   5  10
ATOM     10  C   UNL     1       6.807   4.387  14.072  0.00  0.00    +0.000 C 
BRANCH  10  12
ATOM     11  C   UNL     1       6.440   3.135  11.920  0.00  0.00    +0.000 C 
ATOM     12  C   UNL     1       5.788   3.672  13.184  0.00  0.00    +0.000 C 
ENDBRANCH  10  12
ENDBRANCH   5  10
ENDBRANCH   1   5
BRANCH   2  13
ATOM     13  C   UNL     1       3.694   2.651  17.424  0.00  0.00    +0.000 C 
BRANCH  13  14
ATOM     14  N   UNL     1       2.665   2.973  18.391  0.00  0.00    +0.000 N 
ATOM     15  C   UNL     1       2.933   2.996  19.738  0.00  0.00    +0.000 C 
ATOM     16  O   UNL     1       4.042   2.679  20.166  0.00  0.00    +0.000 OA
ATOM     17  H   UNL     1       1.732   3.164  18.048  0.00  0.00    +0.000 HD
BRANCH  15  18
ATOM     18  C   UNL     1       1.751   3.386  20.653  0.00  0.00    +0.000 C 
ATOM     19  C   UNL     1       1.781   2.526  21.924  0.00  0.00    +0.000 C 
ATOM     20  C   UNL     1       1.883   4.867  21.049  0.00  0.00    +0.000 C 
ATOM     21  C   UNL     1       0.407   3.195  19.932  0.00  0.00    +0.000 C 
ENDBRANCH  15  18
ENDBRANCH  13  14
ENDBRANCH   2  13
TORSDOF 8
ENDMDL
MODEL 4
REMARK VINA RESULT:      -6.3      1.422      1.996
REMARK  Name = 
REMARK  12 active torsions:
REMARK  status: ('A' for Active; 'I' for Inactive)
REMARK    1  A    between atoms: C_1  and  C_2
REMARK    2  A    between atoms: C_2  and  C_3
REMARK    3  A    between atoms: C_3  and  CA_4
REMARK    4  A    between atoms: CA_4  and  N_5
REMARK    5  A    between atoms: CA_4  and  C_16
REMARK    6  A    between atoms: C_6  and  C_8
REMARK    7  A    between atoms: C_8  and  N_9
REMARK    8  A    between atoms: C_10  and  C_12
REMARK    9  A    between atoms: C_12  and  C_13
REMARK   10  A    between atoms: C_12  and  C_14
REMARK   11  A    between atoms: C_12  and  C_15
REMARK   12  A    between atoms: C_16  and  OXT_18
REMARK                            x       y       z     vdW  Elec       q    Type
REMARK                         _______ _______ _______ _____ _____    ______ ____
ROOT
ATOM      1  N   UNL     1       5.389   5.858  18.193  0.00  0.00    +0.000 N 
ATOM      2  C   UNL     1       4.372   6.377  17.428  0.00  0.00    +0.000 C 
ATOM      3  O   UNL     1       4.606   6.898  16.338  0.00  0.00    +0.000 OA
ATOM      4  H   UNL     1       5.141   5.393  19.066  0.00  0.00    +0.000 HD
ENDROOT
BRANCH   1   5
ATOM      5  CA  UNL     1       6.796   5.861  17.756  0.00  0.00    +0.000 C 
BRANCH   5   6
ATOM      6  C   UNL     1       7.749   6.066  18.955  0.00  0.00    +0.000 C 
ATOM      7  O   UNL     1       7.926   5.249  19.850  0.00  0.00    +0.000 OA
BRANCH   6   8
ATOM      8  OXT UNL     1       8.463   7.215  18.894  0.00  0.00    +0.000 OA
ATOM      9  HXT UNL     1       9.254   7.194  19.489  0.00  0.00    +0.000 HD
ENDBRANCH   6   8
ENDBRANCH   5   6
BRANCH   5  10
ATOM     10  C   UNL     1       7.170   4.594  16.988  0.00  0.00    +0.000 C 
BRANCH  10  12
ATOM     11  C   UNL     1       6.091   3.925  14.816  0.00  0.00    +0.000 C 
ATOM     12  C   UNL     1       7.159   4.786  15.471  0.00  0.00    +0.000 C 
ENDBRANCH  10  12
ENDBRANCH   5  10
ENDBRANCH   1   5
BRANCH   2  13
ATOM     13  C   UNL     1       2.972   6.314  18.041  0.00  0.00    +0.000 C 
BRANCH  13  14
ATOM     14  N   UNL     1       2.515   4.954  18.246  0.00  0.00    +0.000 N 
ATOM     15  C   UNL     1       2.576   4.359  19.483  0.00  0.00    +0.000 C 
ATOM     16  O   UNL     1       3.081   4.944  20.441  0.00  0.00    +0.000 OA
ATOM     17  H   UNL     1       2.165   4.443  17.446  0.00  0.00    +0.000 HD
BRANCH  15  18
ATOM     18  C   UNL     1       2.025   2.918  19.565  0.00  0.00    +0.000 C 
ATOM     19  C   UNL     1       3.105   1.931  19.102  0.00  0.00    +0.000 C 
ATOM     20  C   UNL     1       1.648   2.600  21.022  0.00  0.00    +0.000 C 
ATOM     21  C   UNL     1       0.770   2.756  18.693  0.00  0.00    +0.000 C 
ENDBRANCH  15  18
ENDBRANCH  13  14
ENDBRANCH   2  13
TORSDOF 8
ENDMDL
MODEL 5
REMARK VINA RESULT:      -6.2      1.400      1.853
REMARK  Name = 
REMARK  12 active torsions:
REMARK  status: ('A' for Active; 'I' for Inactive)
REMARK    1  A    between atoms: C_1  and  C_2
REMARK    2  A    between atoms: C_2  and  C_3
REMARK    3  A    between atoms: C_3  and  CA_4
REMARK    4  A    between atoms: CA_4  and  N_5
REMARK    5  A    between atoms: CA_4  and  C_16
REMARK    6  A    between atoms: C_6  and  C_8
REMARK    7  A    between atoms: C_8  and  N_9
REMARK    8  A    between atoms: C_10  and  C_12
REMARK    9  A    between atoms: C_12  and  C_13
REMARK   10  A    between atoms: C_12  and  C_14
REMARK   11  A    between atoms: C_12  and  C_15
REMARK   12  A    between atoms: C_16  and  OXT_18
REMARK                            x       y       z     vdW  Elec       q    Type
REMARK                         _______ _______ _______ _____ _____    ______ ____
ROOT
ATOM      1  N   UNL     1       5.502   5.846  18.157  0.00  0.00    +0.000 N 
ATOM      2  C   UNL     1       4.427   6.392  17.498  0.00  0.00    +0.000 C 
ATOM      3  O   UNL     1       4.575   6.975  16.425  0.00  0.00    +0.000 OA
ATOM      4  H   UNL     1       5.323   5.329  19.017  0.00  0.00    +0.000 HD
ENDROOT
BRANCH   1   5
ATOM      5  CA  UNL     1       6.873   5.894  17.619  0.00  0.00    +0.000 C 
BRANCH   5   6
ATOM      6  C   UNL     1       7.861   6.454  18.668  0.00  0.00    +0.000 C 
ATOM      7  O   UNL     1       8.389   7.556  18.607  0.00  0.00    +0.000 OA
BRANCH   6   8
ATOM      8  OXT UNL     1       8.033   5.645  19.740  0.00  0.00    +0.000 OA
ATOM      9  HXT UNL     1       8.203   4.706  19.476  0.00  0.00    +0.000 HD
ENDBRANCH   6   8
ENDBRANCH   5   6
BRANCH   5  10
ATOM     10  C   UNL     1       7.348   4.532  17.114  0.00  0.00    +0.000 C 
BRANCH  10  12
ATOM     11  C   UNL     1       6.926   4.951  14.669  0.00  0.00    +0.000 C 
ATOM     12  C   UNL     1       6.607   4.064  15.861  0.00  0.00    +0.000 C 
ENDBRANCH  10  12
ENDBRANCH   5  10
ENDBRANCH   1   5
BRANCH   2  13
ATOM     13  C   UNL     1       3.076   6.274  18.207  0.00  0.00    +0.000 C 
BRANCH  13  14
ATOM     14  N   UNL     1       2.741   4.905  18.541  0.00  0.00    +0.000 N 
ATOM     15  C   UNL     1       2.182   4.583  19.755  0.00  0.00    +0.000 C 
ATOM     16  O   UNL     1       2.010   5.442  20.619  0.00  0.00    +0.000 OA
ATOM     17  H   UNL     1       2.946   4.184  17.861  0.00  0.00    +0.000 HD
BRANCH  15  18
ATOM     18  C   UNL     1       1.845   3.090  19.965  0.00  0.00    +0.000 C 
ATOM     19  C   UNL     1       0.736   2.673  18.989  0.00  0.00    +0.000 C 
ATOM     20  C   UNL     1       3.099   2.243  19.690  0.00  0.00    +0.000 C 
ATOM     21  C   UNL     1       1.388   2.824  21.409  0.00  0.00    +0.000 C 
ENDBRANCH  15  18
ENDBRANCH  13  14
ENDBRANCH   2  13
TORSDOF 8
ENDMDL
MODEL 6
REMARK VINA RESULT:      -6.1      1.620      2.126
REMARK  Name = 
REMARK  12 active torsions:
REMARK  status: ('A' for Active; 'I' for Inactive)
REMARK    1  A    between atoms: C_1  and  C_2
REMARK    2  A    between atoms: C_2  and  C_3
REMARK    3  A    between atoms: C_3  and  CA_4
REMARK    4  A    between atoms: CA_4  and  N_5
REMARK    5  A    between atoms: CA_4  and  C_16
REMARK    6  A    between atoms: C_6  and  C_8
REMARK    7  A    between atoms: C_8  and  N_9
REMARK    8  A    between atoms: C_10  and  C_12
REMARK    9  A    between atoms: C_12  and  C_13
REMARK   10  A    between atoms: C_12  and  C_14
REMARK   11  A    between atoms: C_12  and  C_15
REMARK   12  A    between atoms: C_16  and  OXT_18
REMARK                            x       y       z     vdW  Elec       q    Type
REMARK                         _______ _______ _______ _____ _____    ______ ____
ROOT
ATOM      1  N   UNL     1       5.412   3.998  15.863  0.00  0.00    +0.000 N 
ATOM      2  C   UNL     1       4.694   4.122  17.028  0.00  0.00    +0.000 C 
ATOM      3  O   UNL     1       4.714   5.170  17.672  0.00  0.00    +0.000 OA
ATOM      4  H   UNL     1       5.324   3.129  15.338  0.00  0.00    +0.000 HD
ENDROOT
BRANCH   1   5
ATOM      5  CA  UNL     1       6.215   5.099  15.301  0.00  0.00    +0.000 C 
BRANCH   5   6
ATOM      6  C   UNL     1       7.332   5.525  16.281  0.00  0.00    +0.000 C 
ATOM      7  O   UNL     1       7.626   6.685  16.538  0.00  0.00    +0.000 OA
BRANCH   6   8
ATOM      8  OXT UNL     1       7.919   4.487  16.923  0.00  0.00    +0.000 OA
ATOM      9  HXT UNL     1       8.259   3.803  16.293  0.00  0.00    +0.000 HD
ENDBRANCH   6   8
ENDBRANCH   5   6
BRANCH   5  10
ATOM     10  C   UNL     1       6.807   4.750  13.937  0.00  0.00    +0.000 C 
BRANCH  10  12
ATOM     11  C   UNL     1       6.691   3.291  11.890  0.00  0.00    +0.000 C 
ATOM     12  C   UNL     1       6.008   3.682  13.190  0.00  0.00    +0.000 C 
ENDBRANCH  10  12
ENDBRANCH   5  10
ENDBRANCH   1   5
BRANCH   2  13
ATOM     13  C   UNL     1       3.932   2.875  17.482  0.00  0.00    +0.000 C 
BRANCH  13  14
ATOM     14  N   UNL     1       2.830   3.189  18.368  0.00  0.00    +0.000 N 
ATOM     15  C   UNL     1       2.934   3.013  19.727  0.00  0.00    +0.000 C 
ATOM     16  O   UNL     1       3.946   2.523  20.224  0.00  0.00    +0.000 OA
ATOM     17  H   UNL     1       1.968   3.525  17.957  0.00  0.00    +0.000 HD
BRANCH  15  18
ATOM     18  C   UNL     1       1.694   3.418  20.555  0.00  0.00    +0.000 C 
ATOM     19  C   UNL     1       1.763   4.916  20.880  0.00  0.00    +0.000 C 
ATOM     20  C   UNL     1       0.423   3.143  19.733  0.00  0.00    +0.000 C 
ATOM     21  C   UNL     1       1.612   2.610  21.860  0.00  0.00    +0.000 C 
ENDBRANCH  15  18
ENDBRANCH  13  14
ENDBRANCH   2  13
TORSDOF 8
ENDMDL
MODEL 7
REMARK VINA RESULT:      -6.1      2.172      6.416
REMARK  Name = 
REMARK  12 active torsions:
REMARK  status: ('A' for Active; 'I' for Inactive)
REMARK    1  A    between atoms: C_1  and  C_2
REMARK    2  A    between atoms: C_2  and  C_3
REMARK    3  A    between atoms: C_3  and  CA_4
REMARK    4  A    between atoms: CA_4  and  N_5
REMARK    5  A    between atoms: CA_4  and  C_16
REMARK    6  A    between atoms: C_6  and  C_8
REMARK    7  A    between atoms: C_8  and  N_9
REMARK    8  A    between atoms: C_10  and  C_12
REMARK    9  A    between atoms: C_12  and  C_13
REMARK   10  A    between atoms: C_12  and  C_14
REMARK   11  A    between atoms: C_12  and  C_15
REMARK   12  A    between atoms: C_16  and  OXT_18
REMARK                            x       y       z     vdW  Elec       q    Type
REMARK                         _______ _______ _______ _____ _____    ______ ____
ROOT
ATOM      1  N   UNL     1       3.052   3.297  19.454  0.00  0.00    +0.000 N 
ATOM      2  C   UNL     1       2.912   2.781  18.189  0.00  0.00    +0.000 C 
ATOM      3  O   UNL     1       1.796   2.568  17.715  0.00  0.00    +0.000 OA
ATOM      4  H   UNL     1       3.994   3.503  19.784  0.00  0.00    +0.000 HD
ENDROOT
BRANCH   1   5
ATOM      5  CA  UNL     1       1.900   3.653  20.301  0.00  0.00    +0.000 C 
BRANCH   5   6
ATOM      6  C   UNL     1       1.929   2.869  21.633  0.00  0.00    +0.000 C 
ATOM      7  O   UNL     1       0.946   2.635  22.324  0.00  0.00    +0.000 OA
BRANCH   6   8
ATOM      8  OXT UNL     1       3.149   2.368  21.944  0.00  0.00    +0.000 OA
ATOM      9  HXT UNL     1       3.883   2.917  21.572  0.00  0.00    +0.000 HD
ENDBRANCH   6   8
ENDBRANCH   5   6
BRANCH   5  10
ATOM     10  C   UNL     1       1.816   5.155  20.569  0.00  0.00    +0.000 C 
BRANCH  10  12
ATOM     11  C   UNL     1       2.478   6.814  18.797  0.00  0.00    +0.000 C 
ATOM     12  C   UNL     1       2.967   5.942  19.941  0.00  0.00    +0.000 C 
ENDBRANCH  10  12
ENDBRANCH   5  10
ENDBRANCH   1   5
BRANCH   2  13
ATOM     13  C   UNL     1       4.210   2.445  17.453  0.00  0.00    +0.000 C 
BRANCH  13  14
ATOM     14  N   UNL     1       4.797   3.600  16.805  0.00  0.00    +0.000 N 
ATOM     15  C   UNL     1       5.707   4.399  17.456  0.00  0.00    +0.000 C 
ATOM     16  O   UNL     1       5.999   4.192  18.633  0.00  0.00    +0.000 OA
ATOM     17  H   UNL     1       4.506   3.817  15.861  0.00  0.00    +0.000 HD
BRANCH  15  18
ATOM     18  C   UNL     1       6.276   5.577  16.635  0.00  0.00    +0.000 C 
ATOM     19  C   UNL     1       7.006   5.034  15.399  0.00  0.00    +0.000 C 
ATOM     20  C   UNL     1       5.120   6.482  16.177  0.00  0.00    +0.000 C 
ATOM     21  C   UNL     1       7.247   6.420  17.478  0.00  0.00    +0.000 C 
ENDBRANCH  15  18
ENDBRANCH  13  14
ENDBRANCH   2  13
TORSDOF 8
ENDMDL
MODEL 8
REMARK VINA RESULT:      -6.1      0.904      1.588
REMARK  Name = 
REMARK  12 active torsions:
REMARK  status: ('A' for Active; 'I' for Inactive)
REMARK    1  A    between atoms: C_1  and  C_2
REMARK    2  A    between atoms: C_2  and  C_3
REMARK    3  A    between atoms: C_3  and  CA_4
REMARK    4  A    between atoms: CA_4  and  N_5
REMARK    5  A    between atoms: CA_4  and  C_16
REMARK    6  A    between atoms: C_6  and  C_8
REMARK    7  A    between atoms: C_8  and  N_9
REMARK    8  A    between atoms: C_10  and  C_12
REMARK    9  A    between atoms: C_12  and  C_13
REMARK   10  A    between atoms: C_12  and  C_14
REMARK   11  A    between atoms: C_12  and  C_15
REMARK   12  A    between atoms: C_16  and  OXT_18
REMARK                            x       y       z     vdW  Elec       q    Type
REMARK                         _______ _______ _______ _____ _____    ______ ____
ROOT
ATOM      1  N   UNL     1       4.987   5.385  16.991  0.00  0.00    +0.000 N 
ATOM      2  C   UNL     1       4.245   6.432  17.484  0.00  0.00    +0.000 C 
ATOM      3  O   UNL     1       4.777   7.505  17.764  0.00  0.00    +0.000 OA
ATOM      4  H   UNL     1       4.495   4.533  16.725  0.00  0.00    +0.000 HD
ENDROOT
BRANCH   1   5
ATOM      5  CA  UNL     1       6.436   5.486  16.740  0.00  0.00    +0.000 C 
BRANCH   5   6
ATOM      6  C   UNL     1       7.240   4.766  17.846  0.00  0.00    +0.000 C 
ATOM      7  O   UNL     1       6.945   4.768  19.034  0.00  0.00    +0.000 OA
BRANCH   6   8
ATOM      8  OXT UNL     1       8.279   4.034  17.376  0.00  0.00    +0.000 OA
ATOM      9  HXT UNL     1       8.636   3.413  18.059  0.00  0.00    +0.000 HD
ENDBRANCH   6   8
ENDBRANCH   5   6
BRANCH   5  10
ATOM     10  C   UNL     1       6.827   4.951  15.364  0.00  0.00    +0.000 C 
BRANCH  10  12
ATOM     11  C   UNL     1       6.035   3.695  13.332  0.00  0.00    +0.000 C 
ATOM     12  C   UNL     1       5.851   3.904  14.827  0.00  0.00    +0.000 C 
ENDBRANCH  10  12
ENDBRANCH   5  10
ENDBRANCH   1   5
BRANCH   2  13
ATOM     13  C   UNL     1       2.757   6.152  17.706  0.00  0.00    +0.000 C 
BRANCH  13  14
ATOM     14  N   UNL     1       2.506   4.793  18.141  0.00  0.00    +0.000 N 
ATOM     15  C   UNL     1       2.151   4.513  19.439  0.00  0.00    +0.000 C 
ATOM     16  O   UNL     1       2.101   5.403  20.286  0.00  0.00    +0.000 OA
ATOM     17  H   UNL     1       2.616   4.048  17.465  0.00  0.00    +0.000 HD
BRANCH  15  18
ATOM     18  C   UNL     1       1.881   3.025  19.756  0.00  0.00    +0.000 C 
ATOM     19  C   UNL     1       3.196   2.238  19.676  0.00  0.00    +0.000 C 
ATOM     20  C   UNL     1       1.311   2.904  21.180  0.00  0.00    +0.000 C 
ATOM     21  C   UNL     1       0.861   2.426  18.774  0.00  0.00    +0.000 C 
ENDBRANCH  15  18
ENDBRANCH  13  14
ENDBRANCH   2  13
TORSDOF 8
ENDMDL
MODEL 9
REMARK VINA RESULT:      -6.1      1.224      1.377
REMARK  Name = 
REMARK  12 active torsions:
REMARK  status: ('A' for Active; 'I' for Inactive)
REMARK    1  A    between atoms: C_1  and  C_2
REMARK    2  A    between atoms: C_2  and  C_3
REMARK    3  A    between atoms: C_3  and  CA_4
REMARK    4  A    between atoms: CA_4  and  N_5
REMARK    5  A    between atoms: CA_4  and  C_16
REMARK    6  A    between atoms: C_6  and  C_8
REMARK    7  A    between atoms: C_8  and  N_9
REMARK    8  A    between atoms: C_10  and  C_12
REMARK    9  A    between atoms: C_12  and  C_13
REMARK   10  A    between atoms: C_12  and  C_14
REMARK   11  A    between atoms: C_12  and  C_15
REMARK   12  A    between atoms: C_16  and  OXT_18
REMARK                            x       y       z     vdW  Elec       q    Type
REMARK                         _______ _______ _______ _____ _____    ______ ____
ROOT
ATOM      1  N   UNL     1       4.816   5.264  16.522  0.00  0.00    +0.000 N 
ATOM      2  C   UNL     1       4.630   6.461  17.172  0.00  0.00    +0.000 C 
ATOM      3  O   UNL     1       5.567   7.241  17.336  0.00  0.00    +0.000 OA
ATOM      4  H   UNL     1       4.000   4.674  16.366  0.00  0.00    +0.000 HD
ENDROOT
BRANCH   1   5
ATOM      5  CA  UNL     1       6.117   4.857  15.962  0.00  0.00    +0.000 C 
BRANCH   5   6
ATOM      6  C   UNL     1       7.070   4.365  17.075  0.00  0.00    +0.000 C 
ATOM      7  O   UNL     1       8.277   4.214  16.940  0.00  0.00    +0.000 OA
BRANCH   6   8
ATOM      8  OXT UNL     1       6.464   4.193  18.274  0.00  0.00    +0.000 OA
ATOM      9  HXT UNL     1       7.061   3.761  18.935  0.00  0.00    +0.000 HD
ENDBRANCH   6   8
ENDBRANCH   5   6
BRANCH   5  10
ATOM     10  C   UNL     1       5.974   3.793  14.874  0.00  0.00    +0.000 C 
BRANCH  10  12
ATOM     11  C   UNL     1       6.000   3.364  12.395  0.00  0.00    +0.000 C 
ATOM     12  C   UNL     1       6.524   4.242  13.519  0.00  0.00    +0.000 C 
ENDBRANCH  10  12
ENDBRANCH   5  10
ENDBRANCH   1   5
BRANCH   2  13
ATOM     13  C   UNL     1       3.223   6.718  17.713  0.00  0.00    +0.000 C 
BRANCH  13  14
ATOM     14  N   UNL     1       2.893   5.864  18.836  0.00  0.00    +0.000 N 
ATOM     15  C   UNL     1       2.310   4.633  18.650  0.00  0.00    +0.000 C 
ATOM     16  O   UNL     1       1.992   4.249  17.526  0.00  0.00    +0.000 OA
ATOM     17  H   UNL     1       3.087   6.206  19.768  0.00  0.00    +0.000 HD
BRANCH  15  18
ATOM     18  C   UNL     1       2.043   3.815  19.933  0.00  0.00    +0.000 C 
ATOM     19  C   UNL     1       0.676   3.126  19.825  0.00  0.00    +0.000 C 
ATOM     20  C   UNL     1       3.134   2.741  20.086  0.00  0.00    +0.000 C 
ATOM     21  C   UNL     1       2.071   4.715  21.179  0.00  0.00    +0.000 C 
ENDBRANCH  15  18
ENDBRANCH  13  14
ENDBRANCH   2  13
TORSDOF 8
ENDMDL
