MODEL 1
REMARK VINA RESULT:      -6.9      0.000      0.000
REMARK  Name = 
REMARK  2 active torsions:
REMARK  status: ('A' for Active; 'I' for Inactive)
REMARK    1  A    between atoms: C_2  and  C_3
REMARK    2  A    between atoms: C_14  and  N_15
REMARK                            x       y       z     vdW  Elec       q    Type
REMARK                         _______ _______ _______ _____ _____    ______ ____
ROOT
ATOM      1  C   UNL     1       1.934   5.650  20.099  0.00  0.00    +0.000 A 
ATOM      2  C   UNL     1       1.191   4.660  20.738  0.00  0.00    +0.000 A 
ATOM      3  C   UNL     1       1.337   3.318  20.374  0.00  0.00    +0.000 A 
ATOM      4  C   UNL     1       2.233   2.969  19.344  0.00  0.00    +0.000 A 
ATOM      5  C   UNL     1       2.584   1.732  18.753  0.00  0.00    +0.000 A 
ATOM      6  C   UNL     1       3.518   1.987  17.781  0.00  0.00    +0.000 A 
ATOM      7  N   UNL     1       3.772   3.349  17.733  0.00  0.00    +0.000 N 
ATOM      8  C   UNL     1       4.672   3.988  16.818  0.00  0.00    +0.000 A 
ATOM      9  C   UNL     1       5.662   3.228  16.195  0.00  0.00    +0.000 A 
ATOM     10  C   UNL     1       6.473   3.837  15.245  0.00  0.00    +0.000 A 
ATOM     11  C   UNL     1       6.273   5.177  14.943  0.00  0.00    +0.000 A 
ATOM     12  C   UNL     1       5.298   5.880  15.634  0.00  0.00    +0.000 A 
ATOM     13  N   UNL     1       4.509   5.312  16.562  0.00  0.00    +0.000 NA
ATOM     14  C   UNL     1       2.970   3.970  18.697  0.00  0.00    +0.000 A 
ATOM     15  C   UNL     1       2.842   5.320  19.082  0.00  0.00    +0.000 A 
ENDROOT
BRANCH  12  16
ATOM     16  N   UNL     1       5.065   7.220  15.338  0.00  0.00    +0.000 N 
ATOM     17  H   UNL     1       4.095   7.396  15.103  0.00  0.00    +0.000 HD
ATOM     18  H   UNL     1       5.697   7.491  14.589  0.00  0.00    +0.000 HD
ENDBRANCH  12  16
BRANCH   1  20
ATOM     19  N   UNL     1       1.620   8.136  20.775  0.00  0.00    +0.000 NA
ATOM     20  C   UNL     1       1.764   7.023  20.476  0.00  0.00    +0.000 C 
ENDBRANCH   1  20
TORSDOF 2
ENDMDL
MODEL 2
REMARK VINA RESULT:      -6.4      2.317      3.548
REMARK  Name = 
REMARK  2 active torsions:
REMARK  status: ('A' for Active; 'I' for Inactive)
REMARK    1  A    between atoms: C_2  and  C_3
REMARK    2  A    between atoms: C_14  and  N_15
REMARK                            x       y       z     vdW  Elec       q    Type
REMARK                         _______ _______ _______ _____ _____    ______ ____
ROOT
ATOM      1  C   UNL     1       4.140   2.078  20.926  0.00  0.00    +0.000 A 
ATOM      2  C   UNL     1       2.865   2.223  21.469  0.00  0.00    +0.000 A 
ATOM      3  C   UNL     1       1.921   3.046  20.849  0.00  0.00    +0.000 A 
ATOM      4  C   UNL     1       2.268   3.745  19.675  0.00  0.00    +0.000 A 
ATOM      5  C   UNL     1       1.556   4.642  18.844  0.00  0.00    +0.000 A 
ATOM      6  C   UNL     1       2.397   5.022  17.829  0.00  0.00    +0.000 A 
ATOM      7  N   UNL     1       3.624   4.395  17.988  0.00  0.00    +0.000 N 
ATOM      8  C   UNL     1       4.759   4.576  17.131  0.00  0.00    +0.000 A 
ATOM      9  C   UNL     1       4.567   5.076  15.843  0.00  0.00    +0.000 A 
ATOM     10  C   UNL     1       5.681   5.329  15.052  0.00  0.00    +0.000 A 
ATOM     11  C   UNL     1       6.946   5.081  15.565  0.00  0.00    +0.000 A 
ATOM     12  C   UNL     1       7.059   4.543  16.838  0.00  0.00    +0.000 A 
ATOM     13  N   UNL     1       5.994   4.284  17.617  0.00  0.00    +0.000 NA
ATOM     14  C   UNL     1       3.556   3.604  19.140  0.00  0.00    +0.000 A 
ATOM     15  C   UNL     1       4.499   2.753  19.750  0.00  0.00    +0.000 A 
ENDROOT
BRANCH  12  16
ATOM     16  N   UNL     1       8.316   4.303  17.384  0.00  0.00    +0.000 N 
ATOM     17  H   UNL     1       8.826   3.594  16.871  0.00  0.00    +0.000 HD
ATOM     18  H   UNL     1       8.192   4.054  18.363  0.00  0.00    +0.000 HD
ENDBRANCH  12  16
BRANCH   1  20
ATOM     19  N   UNL     1       5.887   0.564  22.108  0.00  0.00    +0.000 NA
ATOM     20  C   UNL     1       5.101   1.238  21.580  0.00  0.00    +0.000 C 
ENDBRANCH   1  20
TORSDOF 2
ENDMDL
MODEL 3
REMARK VINA RESULT:      -6.3      3.107      6.820
REMARK  Name = 
REMARK  2 active torsions:
REMARK  status: ('A' for Active; 'I' for Inactive)
REMARK    1  A    between atoms: C_2  and  C_3
REMARK    2  A    between atoms: C_14  and  N_15
REMARK                            x       y       z     vdW  Elec       q    Type
REMARK                         _______ _______ _______ _____ _____    ______ ____
ROOT
ATOM      1  C   UNL     1       2.464   4.921  20.296  0.00  0.00    +0.000 A 
ATOM      2  C   UNL     1       3.025   4.504  19.091  0.00  0.00    +0.000 A 
ATOM      3  C   UNL     1       3.163   5.399  18.026  0.00  0.00    +0.000 A 
ATOM      4  C   UNL     1       2.718   6.728  18.169  0.00  0.00    +0.000 A 
ATOM      5  C   UNL     1       2.707   7.838  17.292  0.00  0.00    +0.000 A 
ATOM      6  C   UNL     1       2.148   8.893  17.967  0.00  0.00    +0.000 A 
ATOM      7  N   UNL     1       1.800   8.489  19.247  0.00  0.00    +0.000 N 
ATOM      8  C   UNL     1       1.163   9.318  20.229  0.00  0.00    +0.000 A 
ATOM      9  C   UNL     1       1.231  10.705  20.096  0.00  0.00    +0.000 A 
ATOM     10  C   UNL     1       0.538  11.498  21.003  0.00  0.00    +0.000 A 
ATOM     11  C   UNL     1      -0.200  10.888  22.008  0.00  0.00    +0.000 A 
ATOM     12  C   UNL     1      -0.186   9.505  22.104  0.00  0.00    +0.000 A 
ATOM     13  N   UNL     1       0.483   8.721  21.242  0.00  0.00    +0.000 NA
ATOM     14  C   UNL     1       2.144   7.140  19.380  0.00  0.00    +0.000 A 
ATOM     15  C   UNL     1       2.029   6.245  20.462  0.00  0.00    +0.000 A 
ENDROOT
BRANCH  12  16
ATOM     16  N   UNL     1      -0.934   8.869  23.091  0.00  0.00    +0.000 N 
ATOM     17  H   UNL     1      -1.927   8.889  22.891  0.00  0.00    +0.000 HD
ATOM     18  H   UNL     1      -0.712   9.304  23.983  0.00  0.00    +0.000 HD
ENDBRANCH  12  16
BRANCH   1  20
ATOM     19  N   UNL     1       2.197   3.227  22.244  0.00  0.00    +0.000 NA
ATOM     20  C   UNL     1       2.319   3.989  21.375  0.00  0.00    +0.000 C 
ENDBRANCH   1  20
TORSDOF 2
ENDMDL
MODEL 4
REMARK VINA RESULT:      -6.3      2.709      4.500
REMARK  Name = 
REMARK  2 active torsions:
REMARK  status: ('A' for Active; 'I' for Inactive)
REMARK    1  A    between atoms: C_2  and  C_3
REMARK    2  A    between atoms: C_14  and  N_15
REMARK                            x       y       z     vdW  Elec       q    Type
REMARK                         _______ _______ _______ _____ _____    ______ ____
ROOT
ATOM      1  C   UNL     1       3.855   3.583  17.790  0.00  0.00    +0.000 A 
ATOM      2  C   UNL     1       4.180   4.081  19.050  0.00  0.00    +0.000 A 
ATOM      3  C   UNL     1       5.306   4.892  19.223  0.00  0.00    +0.000 A 
ATOM      4  C   UNL     1       6.123   5.195  18.116  0.00  0.00    +0.000 A 
ATOM      5  C   UNL     1       7.307   5.957  17.976  0.00  0.00    +0.000 A 
ATOM      6  C   UNL     1       7.676   5.909  16.655  0.00  0.00    +0.000 A 
ATOM      7  N   UNL     1       6.764   5.139  15.950  0.00  0.00    +0.000 N 
ATOM      8  C   UNL     1       6.844   4.843  14.549  0.00  0.00    +0.000 A 
ATOM      9  C   UNL     1       7.620   5.657  13.724  0.00  0.00    +0.000 A 
ATOM     10  C   UNL     1       7.761   5.312  12.386  0.00  0.00    +0.000 A 
ATOM     11  C   UNL     1       7.131   4.170  11.912  0.00  0.00    +0.000 A 
ATOM     12  C   UNL     1       6.340   3.432  12.780  0.00  0.00    +0.000 A 
ATOM     13  N   UNL     1       6.184   3.754  14.075  0.00  0.00    +0.000 NA
ATOM     14  C   UNL     1       5.798   4.682  16.853  0.00  0.00    +0.000 A 
ATOM     15  C   UNL     1       4.648   3.887  16.674  0.00  0.00    +0.000 A 
ENDROOT
BRANCH  12  16
ATOM     16  N   UNL     1       5.712   2.273  12.334  0.00  0.00    +0.000 N 
ATOM     17  H   UNL     1       6.222   1.828  11.580  0.00  0.00    +0.000 HD
ATOM     18  H   UNL     1       4.761   2.513  12.067  0.00  0.00    +0.000 HD
ENDBRANCH  12  16
BRANCH   1  20
ATOM     19  N   UNL     1       1.770   2.062  17.512  0.00  0.00    +0.000 NA
ATOM     20  C   UNL     1       2.704   2.744  17.631  0.00  0.00    +0.000 C 
ENDBRANCH   1  20
TORSDOF 2
ENDMDL
MODEL 5
REMARK VINA RESULT:      -6.2      1.850      6.041
REMARK  Name = 
REMARK  2 active torsions:
REMARK  status: ('A' for Active; 'I' for Inactive)
REMARK    1  A    between atoms: C_2  and  C_3
REMARK    2  A    between atoms: C_14  and  N_15
REMARK                            x       y       z     vdW  Elec       q    Type
REMARK                         _______ _______ _______ _____ _____    ______ ____
ROOT
ATOM      1  C   UNL     1       5.125   5.310  15.936  0.00  0.00    +0.000 A 
ATOM      2  C   UNL     1       5.175   6.649  15.555  0.00  0.00    +0.000 A 
ATOM      3  C   UNL     1       4.489   7.621  16.288  0.00  0.00    +0.000 A 
ATOM      4  C   UNL     1       3.731   7.241  17.413  0.00  0.00    +0.000 A 
ATOM      5  C   UNL     1       2.935   7.970  18.328  0.00  0.00    +0.000 A 
ATOM      6  C   UNL     1       2.423   7.077  19.234  0.00  0.00    +0.000 A 
ATOM      7  N   UNL     1       2.866   5.800  18.925  0.00  0.00    +0.000 N 
ATOM      8  C   UNL     1       2.509   4.608  19.637  0.00  0.00    +0.000 A 
ATOM      9  C   UNL     1       2.024   4.713  20.941  0.00  0.00    +0.000 A 
ATOM     10  C   UNL     1       1.600   3.561  21.591  0.00  0.00    +0.000 A 
ATOM     11  C   UNL     1       1.667   2.345  20.926  0.00  0.00    +0.000 A 
ATOM     12  C   UNL     1       2.201   2.310  19.646  0.00  0.00    +0.000 A 
ATOM     13  N   UNL     1       2.625   3.412  19.003  0.00  0.00    +0.000 NA
ATOM     14  C   UNL     1       3.675   5.890  17.786  0.00  0.00    +0.000 A 
ATOM     15  C   UNL     1       4.388   4.914  17.062  0.00  0.00    +0.000 A 
ENDROOT
BRANCH  12  16
ATOM     16  N   UNL     1       2.264   1.107  18.950  0.00  0.00    +0.000 N 
ATOM     17  H   UNL     1       3.096   1.040  18.376  0.00  0.00    +0.000 HD
ATOM     18  H   UNL     1       1.411   1.016  18.403  0.00  0.00    +0.000 HD
ENDBRANCH  12  16
BRANCH   1  20
ATOM     19  N   UNL     1       6.394   3.530  14.537  0.00  0.00    +0.000 NA
ATOM     20  C   UNL     1       5.824   4.323  15.167  0.00  0.00    +0.000 C 
ENDBRANCH   1  20
TORSDOF 2
ENDMDL
MODEL 6
REMARK VINA RESULT:      -6.1      2.853      6.221
REMARK  Name = 
REMARK  2 active torsions:
REMARK  status: ('A' for Active; 'I' for Inactive)
REMARK    1  A    between atoms: C_2  and  C_3
REMARK    2  A    between atoms: C_14  and  N_15
REMARK                            x       y       z     vdW  Elec       q    Type
REMARK                         _______ _______ _______ _____ _____    ______ ____
ROOT
ATOM      1  C   UNL     1       4.098   6.308  17.421  0.00  0.00    +0.000 A 
ATOM      2  C   UNL     1       4.202   5.111  18.127  0.00  0.00    +0.000 A 
ATOM      3  C   UNL     1       3.466   4.913  19.299  0.00  0.00    +0.000 A 
ATOM      4  C   UNL     1       2.625   5.938  19.776  0.00  0.00    +0.000 A 
ATOM      5  C   UNL     1       1.785   6.043  20.910  0.00  0.00    +0.000 A 
ATOM      6  C   UNL     1       1.195   7.281  20.875  0.00  0.00    +0.000 A 
ATOM      7  N   UNL     1       1.634   7.969  19.755  0.00  0.00    +0.000 N 
ATOM      8  C   UNL     1       1.253   9.307  19.406  0.00  0.00    +0.000 A 
ATOM      9  C   UNL     1       0.089   9.847  19.955  0.00  0.00    +0.000 A 
ATOM     10  C   UNL     1      -0.225  11.173  19.680  0.00  0.00    +0.000 A 
ATOM     11  C   UNL     1       0.625  11.917  18.874  0.00  0.00    +0.000 A 
ATOM     12  C   UNL     1       1.740  11.300  18.329  0.00  0.00    +0.000 A 
ATOM     13  N   UNL     1       2.059  10.018  18.576  0.00  0.00    +0.000 NA
ATOM     14  C   UNL     1       2.532   7.144  19.068  0.00  0.00    +0.000 A 
ATOM     15  C   UNL     1       3.253   7.333  17.872  0.00  0.00    +0.000 A 
ENDROOT
BRANCH  12  16
ATOM     16  N   UNL     1       2.619  12.029  17.533  0.00  0.00    +0.000 N 
ATOM     17  H   UNL     1       2.303  12.091  16.572  0.00  0.00    +0.000 HD
ATOM     18  H   UNL     1       3.539  11.602  17.608  0.00  0.00    +0.000 HD
ENDBRANCH  12  16
BRANCH   1  20
ATOM     19  N   UNL     1       5.491   6.646  15.258  0.00  0.00    +0.000 NA
ATOM     20  C   UNL     1       4.867   6.500  16.227  0.00  0.00    +0.000 C 
ENDBRANCH   1  20
TORSDOF 2
ENDMDL
MODEL 7
REMARK VINA RESULT:      -6.1      2.696      3.943
REMARK  Name = 
REMARK  2 active torsions:
REMARK  status: ('A' for Active; 'I' for Inactive)
REMARK    1  A    between atoms: C_2  and  C_3
REMARK    2  A    between atoms: C_14  and  N_15
REMARK                            x       y       z     vdW  Elec       q    Type
REMARK                         _______ _______ _______ _____ _____    ______ ____
ROOT
ATOM      1  C   UNL     1       4.121   2.203  20.473  0.00  0.00    +0.000 A 
ATOM      2  C   UNL     1       2.750   1.956  20.484  0.00  0.00    +0.000 A 
ATOM      3  C   UNL     1       1.877   2.774  19.761  0.00  0.00    +0.000 A 
ATOM      4  C   UNL     1       2.388   3.863  19.027  0.00  0.00    +0.000 A 
ATOM      5  C   UNL     1       1.774   4.856  18.227  0.00  0.00    +0.000 A 
ATOM      6  C   UNL     1       2.766   5.676  17.751  0.00  0.00    +0.000 A 
ATOM      7  N   UNL     1       3.993   5.237  18.225  0.00  0.00    +0.000 N 
ATOM      8  C   UNL     1       5.253   5.867  17.958  0.00  0.00    +0.000 A 
ATOM      9  C   UNL     1       5.368   6.722  16.862  0.00  0.00    +0.000 A 
ATOM     10  C   UNL     1       6.568   7.395  16.663  0.00  0.00    +0.000 A 
ATOM     11  C   UNL     1       7.610   7.200  17.558  0.00  0.00    +0.000 A 
ATOM     12  C   UNL     1       7.438   6.302  18.600  0.00  0.00    +0.000 A 
ATOM     13  N   UNL     1       6.289   5.635  18.806  0.00  0.00    +0.000 NA
ATOM     14  C   UNL     1       3.767   4.113  19.028  0.00  0.00    +0.000 A 
ATOM     15  C   UNL     1       4.650   3.273  19.735  0.00  0.00    +0.000 A 
ENDROOT
BRANCH  12  16
ATOM     16  N   UNL     1       8.461   6.102  19.523  0.00  0.00    +0.000 N 
ATOM     17  H   UNL     1       8.128   6.152  20.479  0.00  0.00    +0.000 HD
ATOM     18  H   UNL     1       9.192   6.783  19.334  0.00  0.00    +0.000 HD
ENDBRANCH  12  16
BRANCH   1  20
ATOM     19  N   UNL     1       5.725   0.686  21.837  0.00  0.00    +0.000 NA
ATOM     20  C   UNL     1       5.003   1.362  21.228  0.00  0.00    +0.000 C 
ENDBRANCH   1  20
TORSDOF 2
ENDMDL
MODEL 8
REMARK VINA RESULT:      -6.0      9.153     11.892
REMARK  Name = 
REMARK  2 active torsions:
REMARK  status: ('A' for Active; 'I' for Inactive)
REMARK    1  A    between atoms: C_2  and  C_3
REMARK    2  A    between atoms: C_14  and  N_15
REMARK                            x       y       z     vdW  Elec       q    Type
REMARK                         _______ _______ _______ _____ _____    ______ ____
ROOT
ATOM      1  C   UNL     1       9.515  11.424  18.037  0.00  0.00    +0.000 A 
ATOM      2  C   UNL     1      10.882  11.520  17.786  0.00  0.00    +0.000 A 
ATOM      3  C   UNL     1      11.493  12.771  17.662  0.00  0.00    +0.000 A 
ATOM      4  C   UNL     1      10.717  13.941  17.778  0.00  0.00    +0.000 A 
ATOM      5  C   UNL     1      11.033  15.318  17.690  0.00  0.00    +0.000 A 
ATOM      6  C   UNL     1       9.872  16.022  17.885  0.00  0.00    +0.000 A 
ATOM      7  N   UNL     1       8.825  15.137  18.094  0.00  0.00    +0.000 N 
ATOM      8  C   UNL     1       7.458  15.513  18.303  0.00  0.00    +0.000 A 
ATOM      9  C   UNL     1       7.165  16.810  18.725  0.00  0.00    +0.000 A 
ATOM     10  C   UNL     1       5.833  17.190  18.841  0.00  0.00    +0.000 A 
ATOM     11  C   UNL     1       4.838  16.273  18.533  0.00  0.00    +0.000 A 
ATOM     12  C   UNL     1       5.204  14.988  18.162  0.00  0.00    +0.000 A 
ATOM     13  N   UNL     1       6.485  14.598  18.051  0.00  0.00    +0.000 NA
ATOM     14  C   UNL     1       9.340  13.838  18.020  0.00  0.00    +0.000 A 
ATOM     15  C   UNL     1       8.729  12.578  18.172  0.00  0.00    +0.000 A 
ENDROOT
BRANCH  12  16
ATOM     16  N   UNL     1       4.227  14.054  17.829  0.00  0.00    +0.000 N 
ATOM     17  H   UNL     1       3.313  14.479  17.723  0.00  0.00    +0.000 HD
ATOM     18  H   UNL     1       4.232  13.327  18.540  0.00  0.00    +0.000 HD
ENDBRANCH  12  16
BRANCH   1  20
ATOM     19  N   UNL     1       8.408   9.086  18.253  0.00  0.00    +0.000 NA
ATOM     20  C   UNL     1       8.901  10.133  18.151  0.00  0.00    +0.000 C 
ENDBRANCH   1  20
TORSDOF 2
ENDMDL
MODEL 9
REMARK VINA RESULT:      -5.9      2.265      5.875
REMARK  Name = 
REMARK  2 active torsions:
REMARK  status: ('A' for Active; 'I' for Inactive)
REMARK    1  A    between atoms: C_2  and  C_3
REMARK    2  A    between atoms: C_14  and  N_15
REMARK                            x       y       z     vdW  Elec       q    Type
REMARK                         _______ _______ _______ _____ _____    ______ ____
ROOT
ATOM      1  C   UNL     1       6.659   5.519  17.721  0.00  0.00    +0.000 A 
ATOM      2  C   UNL     1       6.768   6.825  17.247  0.00  0.00    +0.000 A 
ATOM      3  C   UNL     1       5.651   7.664  17.217  0.00  0.00    +0.000 A 
ATOM      4  C   UNL     1       4.403   7.179  17.656  0.00  0.00    +0.000 A 
ATOM      5  C   UNL     1       3.117   7.765  17.734  0.00  0.00    +0.000 A 
ATOM      6  C   UNL     1       2.262   6.821  18.244  0.00  0.00    +0.000 A 
ATOM      7  N   UNL     1       2.963   5.651  18.492  0.00  0.00    +0.000 N 
ATOM      8  C   UNL     1       2.390   4.439  19.001  0.00  0.00    +0.000 A 
ATOM      9  C   UNL     1       1.168   4.492  19.670  0.00  0.00    +0.000 A 
ATOM     10  C   UNL     1       0.579   3.302  20.082  0.00  0.00    +0.000 A 
ATOM     11  C   UNL     1       1.221   2.101  19.814  0.00  0.00    +0.000 A 
ATOM     12  C   UNL     1       2.455   2.128  19.183  0.00  0.00    +0.000 A 
ATOM     13  N   UNL     1       3.045   3.268  18.783  0.00  0.00    +0.000 NA
ATOM     14  C   UNL     1       4.296   5.861  18.122  0.00  0.00    +0.000 A 
ATOM     15  C   UNL     1       5.428   5.024  18.176  0.00  0.00    +0.000 A 
ENDROOT
BRANCH  12  16
ATOM     16  N   UNL     1       3.111   0.937  18.886  0.00  0.00    +0.000 N 
ATOM     17  H   UNL     1       3.998   1.095  18.422  0.00  0.00    +0.000 HD
ATOM     18  H   UNL     1       2.483   0.363  18.329  0.00  0.00    +0.000 HD
ENDBRANCH  12  16
BRANCH   1  20
ATOM     19  N   UNL     1       8.750   3.981  17.755  0.00  0.00    +0.000 NA
ATOM     20  C   UNL     1       7.812   4.667  17.735  0.00  0.00    +0.000 C 
ENDBRANCH   1  20
TORSDOF 2
ENDMDL
