MODEL 1
REMARK VINA RESULT:      -7.7      0.000      0.000
REMARK  Name = 
REMARK  5 active torsions:
REMARK  status: ('A' for Active; 'I' for Inactive)
REMARK    1  A    between atoms: C_1  and  C_2
REMARK    2  A    between atoms: C_4  and  C_5
REMARK    3  A    between atoms: C_5  and  N_6
REMARK    4  A    between atoms: N_6  and  C_7
REMARK    5  A    between atoms: C_7  and  C_8
REMARK                            x       y       z     vdW  Elec       q    Type
REMARK                         _______ _______ _______ _____ _____    ______ ____
ROOT
ATOM      1  C   UNL     1       4.557   5.645  18.202  0.00  0.00    +0.000 C 
ATOM      2  C   UNL     1       4.540   7.163  17.944  0.00  0.00    +0.000 C 
ATOM      3  C   UNL     1       3.123   7.397  17.439  0.00  0.00    +0.000 C 
ATOM      4  C   UNL     1       2.275   6.367  18.195  0.00  0.00    +0.000 C 
ATOM      5  N   UNL     1       3.246   5.493  18.853  0.00  0.00    +0.000 N 
ATOM      6  C   UNL     1       2.870   4.465  19.682  0.00  0.00    +0.000 A 
ATOM      7  C   UNL     1       1.641   4.470  20.340  0.00  0.00    +0.000 A 
ATOM      8  C   UNL     1       1.319   3.474  21.262  0.00  0.00    +0.000 A 
ATOM      9  C   UNL     1       2.238   2.481  21.492  0.00  0.00    +0.000 A 
ATOM     10  N   UNL     1       3.411   2.446  20.844  0.00  0.00    +0.000 NA
ATOM     11  N   UNL     1       3.715   3.447  19.940  0.00  0.00    +0.000 NA
ENDROOT
BRANCH   1  12
ATOM     12  C   UNL     1       5.821   5.210  18.973  0.00  0.00    +0.000 C 
BRANCH  12  13
ATOM     13  N   UNL     1       6.490   4.090  18.286  0.00  0.00    +0.000 NA
ATOM     14  H   UNL     1       6.841   3.424  18.976  0.00  0.00    +0.000 HD
BRANCH  13  15
ATOM     15  C   UNL     1       7.646   4.547  17.499  0.00  0.00    +0.000 C 
BRANCH  15  19
ATOM     16  C   UNL     1       5.588   3.596  13.086  0.00  0.00    +0.000 C 
ATOM     17  C   UNL     1       6.334   4.135  14.238  0.00  0.00    +0.000 A 
ATOM     18  N   UNL     1       6.463   3.653  15.455  0.00  0.00    +0.000 NA
ATOM     19  C   UNL     1       7.251   4.617  16.055  0.00  0.00    +0.000 A 
ATOM     20  N   UNL     1       7.608   5.631  15.254  0.00  0.00    +0.000 NA
ATOM     21  O   UNL     1       6.990   5.312  14.044  0.00  0.00    +0.000 OA
ENDBRANCH  15  19
ENDBRANCH  13  15
ENDBRANCH  12  13
ENDBRANCH   1  12
TORSDOF 4
ENDMDL
MODEL 2
REMARK VINA RESULT:      -7.1      1.508      3.484
REMARK  Name = 
REMARK  5 active torsions:
REMARK  status: ('A' for Active; 'I' for Inactive)
REMARK    1  A    between atoms: C_1  and  C_2
REMARK    2  A    between atoms: C_4  and  C_5
REMARK    3  A    between atoms: C_5  and  N_6
REMARK    4  A    between atoms: N_6  and  C_7
REMARK    5  A    between atoms: C_7  and  C_8
REMARK                            x       y       z     vdW  Elec       q    Type
REMARK                         _______ _______ _______ _____ _____    ______ ____
ROOT
ATOM      1  C   UNL     1       3.401   3.652  19.229  0.00  0.00    +0.000 C 
ATOM      2  C   UNL     1       2.587   2.505  19.856  0.00  0.00    +0.000 C 
ATOM      3  C   UNL     1       2.414   2.969  21.295  0.00  0.00    +0.000 C 
ATOM      4  C   UNL     1       2.325   4.496  21.193  0.00  0.00    +0.000 C 
ATOM      5  N   UNL     1       2.688   4.801  19.810  0.00  0.00    +0.000 N 
ATOM      6  C   UNL     1       2.671   6.080  19.307  0.00  0.00    +0.000 A 
ATOM      7  C   UNL     1       1.874   7.075  19.870  0.00  0.00    +0.000 A 
ATOM      8  C   UNL     1       1.786   8.337  19.284  0.00  0.00    +0.000 A 
ATOM      9  C   UNL     1       2.516   8.578  18.147  0.00  0.00    +0.000 A 
ATOM     10  N   UNL     1       3.311   7.640  17.612  0.00  0.00    +0.000 NA
ATOM     11  N   UNL     1       3.379   6.393  18.204  0.00  0.00    +0.000 NA
ENDROOT
BRANCH   1  12
ATOM     12  C   UNL     1       3.476   3.527  17.692  0.00  0.00    +0.000 C 
BRANCH  12  13
ATOM     13  N   UNL     1       4.839   3.162  17.267  0.00  0.00    +0.000 NA
ATOM     14  H   UNL     1       5.213   2.444  17.891  0.00  0.00    +0.000 HD
BRANCH  13  15
ATOM     15  C   UNL     1       5.755   4.311  17.332  0.00  0.00    +0.000 C 
BRANCH  15  19
ATOM     16  C   UNL     1       6.768   4.038  12.483  0.00  0.00    +0.000 C 
ATOM     17  C   UNL     1       6.720   4.332  13.927  0.00  0.00    +0.000 A 
ATOM     18  N   UNL     1       5.961   3.809  14.865  0.00  0.00    +0.000 NA
ATOM     19  C   UNL     1       6.372   4.514  15.981  0.00  0.00    +0.000 A 
ATOM     20  N   UNL     1       7.343   5.411  15.755  0.00  0.00    +0.000 NA
ATOM     21  O   UNL     1       7.569   5.293  14.382  0.00  0.00    +0.000 OA
ENDBRANCH  15  19
ENDBRANCH  13  15
ENDBRANCH  12  13
ENDBRANCH   1  12
TORSDOF 4
ENDMDL
MODEL 3
REMARK VINA RESULT:      -7.1      2.041      4.162
REMARK  Name = 
REMARK  5 active torsions:
REMARK  status: ('A' for Active; 'I' for Inactive)
REMARK    1  A    between atoms: C_1  and  C_2
REMARK    2  A    between atoms: C_4  and  C_5
REMARK    3  A    between atoms: C_5  and  N_6
REMARK    4  A    between atoms: N_6  and  C_7
REMARK    5  A    between atoms: C_7  and  C_8
REMARK                            x       y       z     vdW  Elec       q    Type
REMARK                         _______ _______ _______ _____ _____    ______ ____
ROOT
ATOM      1  C   UNL     1       3.382   3.583  19.225  0.00  0.00    +0.000 C 
ATOM      2  C   UNL     1       2.553   2.460  19.875  0.00  0.00    +0.000 C 
ATOM      3  C   UNL     1       2.395   2.950  21.308  0.00  0.00    +0.000 C 
ATOM      4  C   UNL     1       2.332   4.477  21.181  0.00  0.00    +0.000 C 
ATOM      5  N   UNL     1       2.692   4.753  19.791  0.00  0.00    +0.000 N 
ATOM      6  C   UNL     1       2.695   6.023  19.267  0.00  0.00    +0.000 A 
ATOM      7  C   UNL     1       1.918   7.041  19.817  0.00  0.00    +0.000 A 
ATOM      8  C   UNL     1       1.848   8.295  19.211  0.00  0.00    +0.000 A 
ATOM      9  C   UNL     1       2.576   8.504  18.067  0.00  0.00    +0.000 A 
ATOM     10  N   UNL     1       3.352   7.545  17.543  0.00  0.00    +0.000 NA
ATOM     11  N   UNL     1       3.401   6.306  18.155  0.00  0.00    +0.000 NA
ENDROOT
BRANCH   1  12
ATOM     12  C   UNL     1       3.447   3.431  17.691  0.00  0.00    +0.000 C 
BRANCH  12  13
ATOM     13  N   UNL     1       4.802   3.041  17.264  0.00  0.00    +0.000 NA
ATOM     14  H   UNL     1       5.428   3.032  18.072  0.00  0.00    +0.000 HD
BRANCH  13  15
ATOM     15  C   UNL     1       5.363   3.994  16.293  0.00  0.00    +0.000 C 
BRANCH  15  19
ATOM     16  C   UNL     1       7.911   8.020  17.675  0.00  0.00    +0.000 C 
ATOM     17  C   UNL     1       7.310   6.683  17.520  0.00  0.00    +0.000 A 
ATOM     18  N   UNL     1       6.500   6.229  16.588  0.00  0.00    +0.000 NA
ATOM     19  C   UNL     1       6.282   4.933  17.014  0.00  0.00    +0.000 A 
ATOM     20  N   UNL     1       6.933   4.592  18.136  0.00  0.00    +0.000 NA
ATOM     21  O   UNL     1       7.613   5.762  18.476  0.00  0.00    +0.000 OA
ENDBRANCH  15  19
ENDBRANCH  13  15
ENDBRANCH  12  13
ENDBRANCH   1  12
TORSDOF 4
ENDMDL
MODEL 4
REMARK VINA RESULT:      -7.1      1.944      2.871
REMARK  Name = 
REMARK  5 active torsions:
REMARK  status: ('A' for Active; 'I' for Inactive)
REMARK    1  A    between atoms: C_1  and  C_2
REMARK    2  A    between atoms: C_4  and  C_5
REMARK    3  A    between atoms: C_5  and  N_6
REMARK    4  A    between atoms: N_6  and  C_7
REMARK    5  A    between atoms: C_7  and  C_8
REMARK                            x       y       z     vdW  Elec       q    Type
REMARK                         _______ _______ _______ _____ _____    ______ ____
ROOT
ATOM      1  C   UNL     1       3.502   5.721  17.477  0.00  0.00    +0.000 C 
ATOM      2  C   UNL     1       4.058   7.157  17.423  0.00  0.00    +0.000 C 
ATOM      3  C   UNL     1       2.924   7.974  18.024  0.00  0.00    +0.000 C 
ATOM      4  C   UNL     1       2.294   7.042  19.066  0.00  0.00    +0.000 C 
ATOM      5  N   UNL     1       2.913   5.739  18.825  0.00  0.00    +0.000 N 
ATOM      6  C   UNL     1       2.645   4.639  19.603  0.00  0.00    +0.000 A 
ATOM      7  C   UNL     1       2.188   4.766  20.914  0.00  0.00    +0.000 A 
ATOM      8  C   UNL     1       2.023   3.645  21.727  0.00  0.00    +0.000 A 
ATOM      9  C   UNL     1       2.309   2.412  21.196  0.00  0.00    +0.000 A 
ATOM     10  N   UNL     1       2.719   2.271  19.928  0.00  0.00    +0.000 NA
ATOM     11  N   UNL     1       2.884   3.396  19.141  0.00  0.00    +0.000 NA
ENDROOT
BRANCH   1  12
ATOM     12  C   UNL     1       4.590   4.674  17.157  0.00  0.00    +0.000 C 
BRANCH  12  13
ATOM     13  N   UNL     1       5.569   4.591  18.255  0.00  0.00    +0.000 NA
ATOM     14  H   UNL     1       5.462   5.397  18.874  0.00  0.00    +0.000 HD
BRANCH  13  15
ATOM     15  C   UNL     1       6.952   4.611  17.754  0.00  0.00    +0.000 C 
BRANCH  15  19
ATOM     16  C   UNL     1       8.719   9.146  18.716  0.00  0.00    +0.000 C 
ATOM     17  C   UNL     1       8.158   7.918  18.124  0.00  0.00    +0.000 A 
ATOM     18  N   UNL     1       7.834   6.781  18.699  0.00  0.00    +0.000 NA
ATOM     19  C   UNL     1       7.396   6.037  17.620  0.00  0.00    +0.000 A 
ATOM     20  N   UNL     1       7.428   6.679  16.443  0.00  0.00    +0.000 NA
ATOM     21  O   UNL     1       7.943   7.931  16.780  0.00  0.00    +0.000 OA
ENDBRANCH  15  19
ENDBRANCH  13  15
ENDBRANCH  12  13
ENDBRANCH   1  12
TORSDOF 4
ENDMDL
MODEL 5
REMARK VINA RESULT:      -7.1      1.056      1.239
REMARK  Name = 
REMARK  5 active torsions:
REMARK  status: ('A' for Active; 'I' for Inactive)
REMARK    1  A    between atoms: C_1  and  C_2
REMARK    2  A    between atoms: C_4  and  C_5
REMARK    3  A    between atoms: C_5  and  N_6
REMARK    4  A    between atoms: N_6  and  C_7
REMARK    5  A    between atoms: C_7  and  C_8
REMARK                            x       y       z     vdW  Elec       q    Type
REMARK                         _______ _______ _______ _____ _____    ______ ____
ROOT
ATOM      1  C   UNL     1       2.984   6.217  17.735  0.00  0.00    +0.000 C 
ATOM      2  C   UNL     1       3.412   7.695  17.805  0.00  0.00    +0.000 C 
ATOM      3  C   UNL     1       2.295   8.325  18.625  0.00  0.00    +0.000 C 
ATOM      4  C   UNL     1       1.871   7.221  19.601  0.00  0.00    +0.000 C 
ATOM      5  N   UNL     1       2.561   6.020  19.130  0.00  0.00    +0.000 N 
ATOM      6  C   UNL     1       2.476   4.816  19.786  0.00  0.00    +0.000 A 
ATOM      7  C   UNL     1       2.171   4.744  21.144  0.00  0.00    +0.000 A 
ATOM      8  C   UNL     1       2.195   3.524  21.820  0.00  0.00    +0.000 A 
ATOM      9  C   UNL     1       2.514   2.395  21.108  0.00  0.00    +0.000 A 
ATOM     10  N   UNL     1       2.780   2.444  19.795  0.00  0.00    +0.000 NA
ATOM     11  N   UNL     1       2.758   3.664  19.146  0.00  0.00    +0.000 NA
ENDROOT
BRANCH   1  12
ATOM     12  C   UNL     1       4.107   5.323  17.168  0.00  0.00    +0.000 C 
BRANCH  12  13
ATOM     13  N   UNL     1       5.364   5.536  17.908  0.00  0.00    +0.000 NA
ATOM     14  H   UNL     1       5.760   6.445  17.658  0.00  0.00    +0.000 HD
BRANCH  13  15
ATOM     15  C   UNL     1       6.372   4.519  17.572  0.00  0.00    +0.000 C 
BRANCH  15  19
ATOM     16  C   UNL     1       6.567   3.875  12.657  0.00  0.00    +0.000 C 
ATOM     17  C   UNL     1       6.733   4.301  14.059  0.00  0.00    +0.000 A 
ATOM     18  N   UNL     1       6.208   3.802  15.156  0.00  0.00    +0.000 NA
ATOM     19  C   UNL     1       6.723   4.647  16.121  0.00  0.00    +0.000 A 
ATOM     20  N   UNL     1       7.537   5.605  15.654  0.00  0.00    +0.000 NA
ATOM     21  O   UNL     1       7.537   5.378  14.277  0.00  0.00    +0.000 OA
ENDBRANCH  15  19
ENDBRANCH  13  15
ENDBRANCH  12  13
ENDBRANCH   1  12
TORSDOF 4
ENDMDL
MODEL 6
REMARK VINA RESULT:      -7.0      3.857      6.463
REMARK  Name = 
REMARK  5 active torsions:
REMARK  status: ('A' for Active; 'I' for Inactive)
REMARK    1  A    between atoms: C_1  and  C_2
REMARK    2  A    between atoms: C_4  and  C_5
REMARK    3  A    between atoms: C_5  and  N_6
REMARK    4  A    between atoms: N_6  and  C_7
REMARK    5  A    between atoms: C_7  and  C_8
REMARK                            x       y       z     vdW  Elec       q    Type
REMARK                         _______ _______ _______ _____ _____    ______ ____
ROOT
ATOM      1  C   UNL     1       6.217   5.922  18.177  0.00  0.00    +0.000 C 
ATOM      2  C   UNL     1       5.529   5.232  19.370  0.00  0.00    +0.000 C 
ATOM      3  C   UNL     1       4.084   5.127  18.904  0.00  0.00    +0.000 C 
ATOM      4  C   UNL     1       4.188   4.930  17.387  0.00  0.00    +0.000 C 
ATOM      5  N   UNL     1       5.595   5.176  17.072  0.00  0.00    +0.000 N 
ATOM      6  C   UNL     1       6.102   5.039  15.803  0.00  0.00    +0.000 A 
ATOM      7  C   UNL     1       5.491   4.217  14.857  0.00  0.00    +0.000 A 
ATOM      8  C   UNL     1       6.077   4.005  13.609  0.00  0.00    +0.000 A 
ATOM      9  C   UNL     1       7.262   4.638  13.332  0.00  0.00    +0.000 A 
ATOM     10  N   UNL     1       7.846   5.456  14.221  0.00  0.00    +0.000 NA
ATOM     11  N   UNL     1       7.253   5.647  15.455  0.00  0.00    +0.000 NA
ENDROOT
BRANCH   1  12
ATOM     12  C   UNL     1       7.754   5.900  18.312  0.00  0.00    +0.000 C 
BRANCH  12  13
ATOM     13  N   UNL     1       8.256   7.216  18.748  0.00  0.00    +0.000 NA
ATOM     14  H   UNL     1       7.789   7.493  19.614  0.00  0.00    +0.000 HD
BRANCH  13  15
ATOM     15  C   UNL     1       7.976   8.262  17.752  0.00  0.00    +0.000 C 
BRANCH  15  19
ATOM     16  C   UNL     1      10.329  11.717  20.424  0.00  0.00    +0.000 C 
ATOM     17  C   UNL     1       9.531  10.949  19.450  0.00  0.00    +0.000 A 
ATOM     18  N   UNL     1       9.255   9.664  19.418  0.00  0.00    +0.000 NA
ATOM     19  C   UNL     1       8.502   9.569  18.263  0.00  0.00    +0.000 A 
ATOM     20  N   UNL     1       8.305  10.730  17.622  0.00  0.00    +0.000 NA
ATOM     21  O   UNL     1       8.998  11.649  18.412  0.00  0.00    +0.000 OA
ENDBRANCH  15  19
ENDBRANCH  13  15
ENDBRANCH  12  13
ENDBRANCH   1  12
TORSDOF 4
ENDMDL
MODEL 7
REMARK VINA RESULT:      -7.0      2.086      4.124
REMARK  Name = 
REMARK  5 active torsions:
REMARK  status: ('A' for Active; 'I' for Inactive)
REMARK    1  A    between atoms: C_1  and  C_2
REMARK    2  A    between atoms: C_4  and  C_5
REMARK    3  A    between atoms: C_5  and  N_6
REMARK    4  A    between atoms: N_6  and  C_7
REMARK    5  A    between atoms: C_7  and  C_8
REMARK                            x       y       z     vdW  Elec       q    Type
REMARK                         _______ _______ _______ _____ _____    ______ ____
ROOT
ATOM      1  C   UNL     1       2.797   3.650  19.174  0.00  0.00    +0.000 C 
ATOM      2  C   UNL     1       2.128   2.429  19.833  0.00  0.00    +0.000 C 
ATOM      3  C   UNL     1       2.351   2.689  21.316  0.00  0.00    +0.000 C 
ATOM      4  C   UNL     1       2.299   4.216  21.446  0.00  0.00    +0.000 C 
ATOM      5  N   UNL     1       2.304   4.709  20.069  0.00  0.00    +0.000 N 
ATOM      6  C   UNL     1       2.209   6.045  19.764  0.00  0.00    +0.000 A 
ATOM      7  C   UNL     1       1.623   6.955  20.643  0.00  0.00    +0.000 A 
ATOM      8  C   UNL     1       1.436   8.287  20.275  0.00  0.00    +0.000 A 
ATOM      9  C   UNL     1       1.857   8.681  19.029  0.00  0.00    +0.000 A 
ATOM     10  N   UNL     1       2.450   7.825  18.185  0.00  0.00    +0.000 NA
ATOM     11  N   UNL     1       2.619   6.507  18.566  0.00  0.00    +0.000 NA
ENDROOT
BRANCH   1  12
ATOM     12  C   UNL     1       2.468   3.740  17.669  0.00  0.00    +0.000 C 
BRANCH  12  13
ATOM     13  N   UNL     1       3.601   4.316  16.923  0.00  0.00    +0.000 NA
ATOM     14  H   UNL     1       3.584   3.980  15.958  0.00  0.00    +0.000 HD
BRANCH  13  15
ATOM     15  C   UNL     1       4.893   3.910  17.498  0.00  0.00    +0.000 C 
BRANCH  15  19
ATOM     16  C   UNL     1       7.757   7.960  17.602  0.00  0.00    +0.000 C 
ATOM     17  C   UNL     1       7.078   6.687  17.298  0.00  0.00    +0.000 A 
ATOM     18  N   UNL     1       6.058   6.115  17.899  0.00  0.00    +0.000 NA
ATOM     19  C   UNL     1       5.918   4.952  17.166  0.00  0.00    +0.000 A 
ATOM     20  N   UNL     1       6.788   4.816  16.155  0.00  0.00    +0.000 NA
ATOM     21  O   UNL     1       7.566   5.971  16.249  0.00  0.00    +0.000 OA
ENDBRANCH  15  19
ENDBRANCH  13  15
ENDBRANCH  12  13
ENDBRANCH   1  12
TORSDOF 4
ENDMDL
MODEL 8
REMARK VINA RESULT:      -7.0      0.740      1.013
REMARK  Name = 
REMARK  5 active torsions:
REMARK  status: ('A' for Active; 'I' for Inactive)
REMARK    1  A    between atoms: C_1  and  C_2
REMARK    2  A    between atoms: C_4  and  C_5
REMARK    3  A    between atoms: C_5  and  N_6
REMARK    4  A    between atoms: N_6  and  C_7
REMARK    5  A    between atoms: C_7  and  C_8
REMARK                            x       y       z     vdW  Elec       q    Type
REMARK                         _______ _______ _______ _____ _____    ______ ____
ROOT
ATOM      1  C   UNL     1       4.692   5.527  18.208  0.00  0.00    +0.000 C 
ATOM      2  C   UNL     1       4.768   7.044  17.954  0.00  0.00    +0.000 C 
ATOM      3  C   UNL     1       3.370   7.367  17.446  0.00  0.00    +0.000 C 
ATOM      4  C   UNL     1       2.459   6.388  18.196  0.00  0.00    +0.000 C 
ATOM      5  N   UNL     1       3.372   5.455  18.855  0.00  0.00    +0.000 N 
ATOM      6  C   UNL     1       2.931   4.450  19.680  0.00  0.00    +0.000 A 
ATOM      7  C   UNL     1       1.703   4.528  20.335  0.00  0.00    +0.000 A 
ATOM      8  C   UNL     1       1.317   3.552  21.252  0.00  0.00    +0.000 A 
ATOM      9  C   UNL     1       2.173   2.504  21.483  0.00  0.00    +0.000 A 
ATOM     10  N   UNL     1       3.344   2.398  20.838  0.00  0.00    +0.000 NA
ATOM     11  N   UNL     1       3.711   3.381  19.938  0.00  0.00    +0.000 NA
ENDROOT
BRANCH   1  12
ATOM     12  C   UNL     1       5.925   5.014  18.981  0.00  0.00    +0.000 C 
BRANCH  12  13
ATOM     13  N   UNL     1       6.839   4.290  18.080  0.00  0.00    +0.000 NA
ATOM     14  H   UNL     1       7.612   3.895  18.619  0.00  0.00    +0.000 HD
BRANCH  13  15
ATOM     15  C   UNL     1       7.428   5.183  17.070  0.00  0.00    +0.000 C 
BRANCH  15  19
ATOM     16  C   UNL     1       7.155   4.504  12.164  0.00  0.00    +0.000 C 
ATOM     17  C   UNL     1       6.990   4.485  13.629  0.00  0.00    +0.000 A 
ATOM     18  N   UNL     1       7.587   5.209  14.550  0.00  0.00    +0.000 NA
ATOM     19  C   UNL     1       7.026   4.704  15.708  0.00  0.00    +0.000 A 
ATOM     20  N   UNL     1       6.119   3.735  15.519  0.00  0.00    +0.000 NA
ATOM     21  O   UNL     1       6.101   3.585  14.131  0.00  0.00    +0.000 OA
ENDBRANCH  15  19
ENDBRANCH  13  15
ENDBRANCH  12  13
ENDBRANCH   1  12
TORSDOF 4
ENDMDL
MODEL 9
REMARK VINA RESULT:      -7.0      2.295      4.220
REMARK  Name = 
REMARK  5 active torsions:
REMARK  status: ('A' for Active; 'I' for Inactive)
REMARK    1  A    between atoms: C_1  and  C_2
REMARK    2  A    between atoms: C_4  and  C_5
REMARK    3  A    between atoms: C_5  and  N_6
REMARK    4  A    between atoms: N_6  and  C_7
REMARK    5  A    between atoms: C_7  and  C_8
REMARK                            x       y       z     vdW  Elec       q    Type
REMARK                         _______ _______ _______ _____ _____    ______ ____
ROOT
ATOM      1  C   UNL     1       4.286   3.613  17.917  0.00  0.00    +0.000 C 
ATOM      2  C   UNL     1       3.760   2.209  18.268  0.00  0.00    +0.000 C 
ATOM      3  C   UNL     1       3.724   2.238  19.789  0.00  0.00    +0.000 C 
ATOM      4  C   UNL     1       3.384   3.693  20.132  0.00  0.00    +0.000 C 
ATOM      5  N   UNL     1       3.493   4.413  18.864  0.00  0.00    +0.000 N 
ATOM      6  C   UNL     1       3.205   5.751  18.748  0.00  0.00    +0.000 A 
ATOM      7  C   UNL     1       2.351   6.394  19.642  0.00  0.00    +0.000 A 
ATOM      8  C   UNL     1       1.983   7.726  19.448  0.00  0.00    +0.000 A 
ATOM      9  C   UNL     1       2.497   8.390  18.362  0.00  0.00    +0.000 A 
ATOM     10  N   UNL     1       3.344   7.793  17.511  0.00  0.00    +0.000 NA
ATOM     11  N   UNL     1       3.690   6.471  17.717  0.00  0.00    +0.000 NA
ENDROOT
BRANCH   1  12
ATOM     12  C   UNL     1       4.159   3.912  16.408  0.00  0.00    +0.000 C 
BRANCH  12  13
ATOM     13  N   UNL     1       5.294   4.729  15.943  0.00  0.00    +0.000 NA
ATOM     14  H   UNL     1       5.386   4.645  14.929  0.00  0.00    +0.000 HD
BRANCH  13  15
ATOM     15  C   UNL     1       6.565   4.279  16.531  0.00  0.00    +0.000 C 
BRANCH  15  19
ATOM     16  C   UNL     1       8.090   8.789  17.927  0.00  0.00    +0.000 C 
ATOM     17  C   UNL     1       7.772   7.355  17.799  0.00  0.00    +0.000 A 
ATOM     18  N   UNL     1       7.218   6.704  16.800  0.00  0.00    +0.000 NA
ATOM     19  C   UNL     1       7.172   5.416  17.297  0.00  0.00    +0.000 A 
ATOM     20  N   UNL     1       7.686   5.269  18.527  0.00  0.00    +0.000 NA
ATOM     21  O   UNL     1       8.080   6.565  18.863  0.00  0.00    +0.000 OA
ENDBRANCH  15  19
ENDBRANCH  13  15
ENDBRANCH  12  13
ENDBRANCH   1  12
TORSDOF 4
ENDMDL
