MODEL 1
REMARK VINA RESULT:      -7.5      0.000      0.000
REMARK  Name = 
REMARK  4 active torsions:
REMARK  status: ('A' for Active; 'I' for Inactive)
REMARK    1  A    between atoms: C_2  and  C_3
REMARK    2  A    between atoms: C_3  and  N_4
REMARK    3  A    between atoms: C_5  and  C_7
REMARK    4  A    between atoms: C_7  and  N_8
REMARK                            x       y       z     vdW  Elec       q    Type
REMARK                         _______ _______ _______ _____ _____    ______ ____
ROOT
ATOM      1  N   UNL     1       3.665   5.228  19.548  0.00  0.00    +0.000 N 
ATOM      2  C   UNL     1       2.288   5.381  19.564  0.00  0.00    +0.000 C 
ATOM      3  O   UNL     1       1.546   4.761  18.807  0.00  0.00    +0.000 OA
ATOM      4  H   UNL     1       4.215   5.727  20.237  0.00  0.00    +0.000 HD
ENDROOT
BRANCH   1   5
ATOM      5  C   UNL     1       4.395   4.315  18.616  0.00  0.00    +0.000 C 
ATOM      6  C   UNL     1       4.160   4.696  17.138  0.00  0.00    +0.000 C 
ATOM      7  C   UNL     1       4.648   6.104  16.817  0.00  0.00    +0.000 C 
ATOM      8  C   UNL     1       5.967   6.452  17.456  0.00  0.00    +0.000 A 
ATOM      9  C   UNL     1       6.589   7.655  17.088  0.00  0.00    +0.000 A 
ATOM     10  C   UNL     1       7.785   8.046  17.685  0.00  0.00    +0.000 A 
ATOM     11  C   UNL     1       8.385   7.229  18.638  0.00  0.00    +0.000 A 
ATOM     12  C   UNL     1       7.782   6.027  19.008  0.00  0.00    +0.000 A 
ATOM     13  C   UNL     1       6.557   5.643  18.445  0.00  0.00    +0.000 A 
ATOM     14  C   UNL     1       5.913   4.348  18.890  0.00  0.00    +0.000 C 
BRANCH   5  16
ATOM     15  N   UNL     1       3.475   1.711  18.947  0.00  0.00    +0.000 NA
ATOM     16  C   UNL     1       3.893   2.892  18.797  0.00  0.00    +0.000 C 
ENDBRANCH   5  16
ENDBRANCH   1   5
BRANCH   2  17
ATOM     17  C   UNL     1       1.743   6.408  20.576  0.00  0.00    +0.000 C 
BRANCH  17  18
ATOM     18  N   UNL     1       1.554   7.750  20.015  0.00  0.00    +0.000 N 
ATOM     19  C   UNL     1       2.207   8.094  18.760  0.00  0.00    +0.000 C 
ATOM     20  C   UNL     1       1.434   9.167  18.020  0.00  0.00    +0.000 C 
ATOM     21  C   UNL     1       1.184  10.326  18.942  0.00  0.00    +0.000 C 
ATOM     22  O   UNL     1       1.029  11.475  18.541  0.00  0.00    +0.000 OA
ATOM     23  N   UNL     1       1.041  10.007  20.268  0.00  0.00    +0.000 N 
ATOM     24  C   UNL     1       1.044   8.751  20.814  0.00  0.00    +0.000 C 
ATOM     25  O   UNL     1       0.616   8.562  21.948  0.00  0.00    +0.000 OA
ATOM     26  H   UNL     1       0.736  10.755  20.873  0.00  0.00    +0.000 HD
ENDBRANCH  17  18
ENDBRANCH   2  17
TORSDOF 4
ENDMDL
MODEL 2
REMARK VINA RESULT:      -7.2      3.521      6.761
REMARK  Name = 
REMARK  4 active torsions:
REMARK  status: ('A' for Active; 'I' for Inactive)
REMARK    1  A    between atoms: C_2  and  C_3
REMARK    2  A    between atoms: C_3  and  N_4
REMARK    3  A    between atoms: C_5  and  C_7
REMARK    4  A    between atoms: C_7  and  N_8
REMARK                            x       y       z     vdW  Elec       q    Type
REMARK                         _______ _______ _______ _____ _____    ______ ____
ROOT
ATOM      1  N   UNL     1       4.094   5.315  17.834  0.00  0.00    +0.000 N 
ATOM      2  C   UNL     1       5.225   5.306  18.634  0.00  0.00    +0.000 C 
ATOM      3  O   UNL     1       5.281   5.904  19.705  0.00  0.00    +0.000 OA
ATOM      4  H   UNL     1       4.095   4.755  16.989  0.00  0.00    +0.000 HD
ENDROOT
BRANCH   1   5
ATOM      5  C   UNL     1       2.835   6.047  18.170  0.00  0.00    +0.000 C 
ATOM      6  C   UNL     1       1.610   5.440  17.452  0.00  0.00    +0.000 C 
ATOM      7  C   UNL     1       1.369   3.987  17.841  0.00  0.00    +0.000 C 
ATOM      8  C   UNL     1       1.561   3.709  19.310  0.00  0.00    +0.000 A 
ATOM      9  C   UNL     1       1.199   2.447  19.802  0.00  0.00    +0.000 A 
ATOM     10  C   UNL     1       1.401   2.124  21.141  0.00  0.00    +0.000 A 
ATOM     11  C   UNL     1       1.945   3.066  22.009  0.00  0.00    +0.000 A 
ATOM     12  C   UNL     1       2.303   4.328  21.534  0.00  0.00    +0.000 A 
ATOM     13  C   UNL     1       2.143   4.650  20.179  0.00  0.00    +0.000 A 
ATOM     14  C   UNL     1       2.570   6.016  19.689  0.00  0.00    +0.000 C 
BRANCH   5  16
ATOM     15  N   UNL     1       3.042   8.694  17.343  0.00  0.00    +0.000 NA
ATOM     16  C   UNL     1       2.948   7.494  17.718  0.00  0.00    +0.000 C 
ENDBRANCH   5  16
ENDBRANCH   1   5
BRANCH   2  17
ATOM     17  C   UNL     1       6.430   4.522  18.078  0.00  0.00    +0.000 C 
BRANCH  17  18
ATOM     18  N   UNL     1       6.565   4.599  16.619  0.00  0.00    +0.000 N 
ATOM     19  C   UNL     1       6.224   3.436  15.812  0.00  0.00    +0.000 C 
ATOM     20  C   UNL     1       5.787   3.847  14.421  0.00  0.00    +0.000 C 
ATOM     21  C   UNL     1       6.823   4.753  13.821  0.00  0.00    +0.000 C 
ATOM     22  O   UNL     1       6.997   4.857  12.611  0.00  0.00    +0.000 OA
ATOM     23  N   UNL     1       7.507   5.541  14.710  0.00  0.00    +0.000 N 
ATOM     24  C   UNL     1       7.299   5.623  16.061  0.00  0.00    +0.000 C 
ATOM     25  O   UNL     1       7.754   6.562  16.707  0.00  0.00    +0.000 OA
ATOM     26  H   UNL     1       8.103   6.249  14.307  0.00  0.00    +0.000 HD
ENDBRANCH  17  18
ENDBRANCH   2  17
TORSDOF 4
ENDMDL
MODEL 3
REMARK VINA RESULT:      -7.0      1.688      2.060
REMARK  Name = 
REMARK  4 active torsions:
REMARK  status: ('A' for Active; 'I' for Inactive)
REMARK    1  A    between atoms: C_2  and  C_3
REMARK    2  A    between atoms: C_3  and  N_4
REMARK    3  A    between atoms: C_5  and  C_7
REMARK    4  A    between atoms: C_7  and  N_8
REMARK                            x       y       z     vdW  Elec       q    Type
REMARK                         _______ _______ _______ _____ _____    ______ ____
ROOT
ATOM      1  N   UNL     1       3.034   5.637  20.335  0.00  0.00    +0.000 N 
ATOM      2  C   UNL     1       1.838   6.265  20.641  0.00  0.00    +0.000 C 
ATOM      3  O   UNL     1       0.756   5.686  20.588  0.00  0.00    +0.000 OA
ATOM      4  H   UNL     1       3.897   6.156  20.454  0.00  0.00    +0.000 HD
ENDROOT
BRANCH   1   5
ATOM      5  C   UNL     1       3.145   4.210  19.903  0.00  0.00    +0.000 C 
ATOM      6  C   UNL     1       2.344   3.940  18.611  0.00  0.00    +0.000 C 
ATOM      7  C   UNL     1       2.838   4.775  17.436  0.00  0.00    +0.000 C 
ATOM      8  C   UNL     1       4.339   4.882  17.352  0.00  0.00    +0.000 A 
ATOM      9  C   UNL     1       4.901   5.481  16.216  0.00  0.00    +0.000 A 
ATOM     10  C   UNL     1       6.280   5.647  16.111  0.00  0.00    +0.000 A 
ATOM     11  C   UNL     1       7.113   5.196  17.130  0.00  0.00    +0.000 A 
ATOM     12  C   UNL     1       6.568   4.591  18.262  0.00  0.00    +0.000 A 
ATOM     13  C   UNL     1       5.179   4.456  18.397  0.00  0.00    +0.000 A 
ATOM     14  C   UNL     1       4.616   3.824  19.652  0.00  0.00    +0.000 C 
BRANCH   5  16
ATOM     15  N   UNL     1       2.100   2.552  21.876  0.00  0.00    +0.000 NA
ATOM     16  C   UNL     1       2.574   3.304  20.982  0.00  0.00    +0.000 C 
ENDBRANCH   5  16
ENDBRANCH   1   5
BRANCH   2  17
ATOM     17  C   UNL     1       1.945   7.754  21.024  0.00  0.00    +0.000 C 
BRANCH  17  18
ATOM     18  N   UNL     1       1.110   8.638  20.203  0.00  0.00    +0.000 N 
ATOM     19  C   UNL     1       1.635   9.141  18.941  0.00  0.00    +0.000 C 
ATOM     20  C   UNL     1       0.515   9.443  17.966  0.00  0.00    +0.000 C 
ATOM     21  C   UNL     1      -0.497  10.331  18.631  0.00  0.00    +0.000 C 
ATOM     22  O   UNL     1      -1.219  11.103  18.006  0.00  0.00    +0.000 OA
ATOM     23  N   UNL     1      -0.638  10.160  19.984  0.00  0.00    +0.000 N 
ATOM     24  C   UNL     1       0.000   9.232  20.763  0.00  0.00    +0.000 C 
ATOM     25  O   UNL     1      -0.414   8.971  21.889  0.00  0.00    +0.000 OA
ATOM     26  H   UNL     1      -1.408  10.650  20.415  0.00  0.00    +0.000 HD
ENDBRANCH  17  18
ENDBRANCH   2  17
TORSDOF 4
ENDMDL
MODEL 4
REMARK VINA RESULT:      -6.9      2.226      4.568
REMARK  Name = 
REMARK  4 active torsions:
REMARK  status: ('A' for Active; 'I' for Inactive)
REMARK    1  A    between atoms: C_2  and  C_3
REMARK    2  A    between atoms: C_3  and  N_4
REMARK    3  A    between atoms: C_5  and  C_7
REMARK    4  A    between atoms: C_7  and  N_8
REMARK                            x       y       z     vdW  Elec       q    Type
REMARK                         _______ _______ _______ _____ _____    ______ ____
ROOT
ATOM      1  N   UNL     1       3.847   5.533  17.103  0.00  0.00    +0.000 N 
ATOM      2  C   UNL     1       4.465   6.759  17.290  0.00  0.00    +0.000 C 
ATOM      3  O   UNL     1       5.652   6.861  17.588  0.00  0.00    +0.000 OA
ATOM      4  H   UNL     1       2.879   5.520  16.803  0.00  0.00    +0.000 HD
ENDROOT
BRANCH   1   5
ATOM      5  C   UNL     1       4.537   4.215  17.250  0.00  0.00    +0.000 C 
ATOM      6  C   UNL     1       5.384   4.154  18.541  0.00  0.00    +0.000 C 
ATOM      7  C   UNL     1       4.541   4.330  19.798  0.00  0.00    +0.000 C 
ATOM      8  C   UNL     1       3.224   3.597  19.756  0.00  0.00    +0.000 A 
ATOM      9  C   UNL     1       2.450   3.551  20.925  0.00  0.00    +0.000 A 
ATOM     10  C   UNL     1       1.205   2.928  20.926  0.00  0.00    +0.000 A 
ATOM     11  C   UNL     1       0.729   2.324  19.766  0.00  0.00    +0.000 A 
ATOM     12  C   UNL     1       1.492   2.356  18.599  0.00  0.00    +0.000 A 
ATOM     13  C   UNL     1       2.728   3.016  18.575  0.00  0.00    +0.000 A 
ATOM     14  C   UNL     1       3.517   3.060  17.284  0.00  0.00    +0.000 C 
BRANCH   5  16
ATOM     15  N   UNL     1       6.273   3.826  15.113  0.00  0.00    +0.000 NA
ATOM     16  C   UNL     1       5.486   4.002  16.082  0.00  0.00    +0.000 C 
ENDBRANCH   5  16
ENDBRANCH   1   5
BRANCH   2  17
ATOM     17  C   UNL     1       3.558   7.995  17.130  0.00  0.00    +0.000 C 
BRANCH  17  18
ATOM     18  N   UNL     1       2.655   8.218  18.265  0.00  0.00    +0.000 N 
ATOM     19  C   UNL     1       2.275   7.089  19.103  0.00  0.00    +0.000 C 
ATOM     20  C   UNL     1       1.936   7.543  20.508  0.00  0.00    +0.000 C 
ATOM     21  C   UNL     1       0.926   8.652  20.443  0.00  0.00    +0.000 C 
ATOM     22  O   UNL     1       0.133   8.887  21.350  0.00  0.00    +0.000 OA
ATOM     23  N   UNL     1       1.004   9.460  19.338  0.00  0.00    +0.000 N 
ATOM     24  C   UNL     1       1.936   9.391  18.336  0.00  0.00    +0.000 C 
ATOM     25  O   UNL     1       2.093  10.332  17.564  0.00  0.00    +0.000 OA
ATOM     26  H   UNL     1       0.425  10.286  19.351  0.00  0.00    +0.000 HD
ENDBRANCH  17  18
ENDBRANCH   2  17
TORSDOF 4
ENDMDL
MODEL 5
REMARK VINA RESULT:      -6.9      3.107      5.495
REMARK  Name = 
REMARK  4 active torsions:
REMARK  status: ('A' for Active; 'I' for Inactive)
REMARK    1  A    between atoms: C_2  and  C_3
REMARK    2  A    between atoms: C_3  and  N_4
REMARK    3  A    between atoms: C_5  and  C_7
REMARK    4  A    between atoms: C_7  and  N_8
REMARK                            x       y       z     vdW  Elec       q    Type
REMARK                         _______ _______ _______ _____ _____    ______ ____
ROOT
ATOM      1  N   UNL     1       3.904   4.262  18.993  0.00  0.00    +0.000 N 
ATOM      2  C   UNL     1       4.895   4.048  18.049  0.00  0.00    +0.000 C 
ATOM      3  O   UNL     1       4.644   3.748  16.885  0.00  0.00    +0.000 OA
ATOM      4  H   UNL     1       4.177   4.562  19.922  0.00  0.00    +0.000 HD
ENDROOT
BRANCH   1   5
ATOM      5  C   UNL     1       2.440   4.145  18.712  0.00  0.00    +0.000 C 
ATOM      6  C   UNL     1       1.601   4.210  20.007  0.00  0.00    +0.000 C 
ATOM      7  C   UNL     1       1.783   5.526  20.753  0.00  0.00    +0.000 C 
ATOM      8  C   UNL     1       1.825   6.735  19.853  0.00  0.00    +0.000 A 
ATOM      9  C   UNL     1       1.817   8.006  20.444  0.00  0.00    +0.000 A 
ATOM     10  C   UNL     1       1.903   9.154  19.660  0.00  0.00    +0.000 A 
ATOM     11  C   UNL     1       1.975   9.044  18.275  0.00  0.00    +0.000 A 
ATOM     12  C   UNL     1       1.977   7.786  17.673  0.00  0.00    +0.000 A 
ATOM     13  C   UNL     1       1.933   6.623  18.454  0.00  0.00    +0.000 A 
ATOM     14  C   UNL     1       1.968   5.273  17.773  0.00  0.00    +0.000 C 
BRANCH   5  16
ATOM     15  N   UNL     1       1.910   1.691  17.515  0.00  0.00    +0.000 NA
ATOM     16  C   UNL     1       2.151   2.804  18.058  0.00  0.00    +0.000 C 
ENDBRANCH   5  16
ENDBRANCH   1   5
BRANCH   2  17
ATOM     17  C   UNL     1       6.343   4.179  18.561  0.00  0.00    +0.000 C 
BRANCH  17  18
ATOM     18  N   UNL     1       6.915   5.518  18.384  0.00  0.00    +0.000 N 
ATOM     19  C   UNL     1       6.825   6.163  17.082  0.00  0.00    +0.000 C 
ATOM     20  C   UNL     1       6.834   7.672  17.219  0.00  0.00    +0.000 C 
ATOM     21  C   UNL     1       8.011   8.089  18.052  0.00  0.00    +0.000 C 
ATOM     22  O   UNL     1       8.546   9.189  17.948  0.00  0.00    +0.000 OA
ATOM     23  N   UNL     1       8.401   7.196  19.016  0.00  0.00    +0.000 N 
ATOM     24  C   UNL     1       7.793   6.008  19.327  0.00  0.00    +0.000 C 
ATOM     25  O   UNL     1       8.039   5.439  20.386  0.00  0.00    +0.000 OA
ATOM     26  H   UNL     1       9.097   7.523  19.669  0.00  0.00    +0.000 HD
ENDBRANCH  17  18
ENDBRANCH   2  17
TORSDOF 4
ENDMDL
MODEL 6
REMARK VINA RESULT:      -6.9      1.791      2.483
REMARK  Name = 
REMARK  4 active torsions:
REMARK  status: ('A' for Active; 'I' for Inactive)
REMARK    1  A    between atoms: C_2  and  C_3
REMARK    2  A    between atoms: C_3  and  N_4
REMARK    3  A    between atoms: C_5  and  C_7
REMARK    4  A    between atoms: C_7  and  N_8
REMARK                            x       y       z     vdW  Elec       q    Type
REMARK                         _______ _______ _______ _____ _____    ______ ____
ROOT
ATOM      1  N   UNL     1       2.972   5.915  20.318  0.00  0.00    +0.000 N 
ATOM      2  C   UNL     1       1.795   6.572  20.636  0.00  0.00    +0.000 C 
ATOM      3  O   UNL     1       0.705   6.006  20.646  0.00  0.00    +0.000 OA
ATOM      4  H   UNL     1       3.844   6.427  20.384  0.00  0.00    +0.000 HD
ENDROOT
BRANCH   1   5
ATOM      5  C   UNL     1       3.051   4.470  19.946  0.00  0.00    +0.000 C 
ATOM      6  C   UNL     1       2.259   4.167  18.655  0.00  0.00    +0.000 C 
ATOM      7  C   UNL     1       2.788   4.940  17.453  0.00  0.00    +0.000 C 
ATOM      8  C   UNL     1       4.292   5.006  17.385  0.00  0.00    +0.000 A 
ATOM      9  C   UNL     1       4.884   5.544  16.233  0.00  0.00    +0.000 A 
ATOM     10  C   UNL     1       6.268   5.670  16.139  0.00  0.00    +0.000 A 
ATOM     11  C   UNL     1       7.077   5.240  17.186  0.00  0.00    +0.000 A 
ATOM     12  C   UNL     1       6.502   4.696  18.335  0.00  0.00    +0.000 A 
ATOM     13  C   UNL     1       5.109   4.602  18.458  0.00  0.00    +0.000 A 
ATOM     14  C   UNL     1       4.515   4.036  19.729  0.00  0.00    +0.000 C 
BRANCH   5  16
ATOM     15  N   UNL     1       1.941   2.921  21.971  0.00  0.00    +0.000 NA
ATOM     16  C   UNL     1       2.444   3.623  21.053  0.00  0.00    +0.000 C 
ENDBRANCH   5  16
ENDBRANCH   1   5
BRANCH   2  17
ATOM     17  C   UNL     1       1.932   8.075  20.949  0.00  0.00    +0.000 C 
BRANCH  17  18
ATOM     18  N   UNL     1       1.089   8.934  20.110  0.00  0.00    +0.000 N 
ATOM     19  C   UNL     1      -0.209   9.364  20.611  0.00  0.00    +0.000 C 
ATOM     20  C   UNL     1      -0.622  10.684  19.992  0.00  0.00    +0.000 C 
ATOM     21  C   UNL     1      -0.522  10.585  18.498  0.00  0.00    +0.000 C 
ATOM     22  O   UNL     1      -1.204  11.265  17.737  0.00  0.00    +0.000 OA
ATOM     23  N   UNL     1       0.458   9.751  18.023  0.00  0.00    +0.000 N 
ATOM     24  C   UNL     1       1.376   9.058  18.768  0.00  0.00    +0.000 C 
ATOM     25  O   UNL     1       2.379   8.587  18.241  0.00  0.00    +0.000 OA
ATOM     26  H   UNL     1       0.625   9.784  17.029  0.00  0.00    +0.000 HD
ENDBRANCH  17  18
ENDBRANCH   2  17
TORSDOF 4
ENDMDL
MODEL 7
REMARK VINA RESULT:      -6.9      2.434      4.688
REMARK  Name = 
REMARK  4 active torsions:
REMARK  status: ('A' for Active; 'I' for Inactive)
REMARK    1  A    between atoms: C_2  and  C_3
REMARK    2  A    between atoms: C_3  and  N_4
REMARK    3  A    between atoms: C_5  and  C_7
REMARK    4  A    between atoms: C_7  and  N_8
REMARK                            x       y       z     vdW  Elec       q    Type
REMARK                         _______ _______ _______ _____ _____    ______ ____
ROOT
ATOM      1  N   UNL     1       2.543   6.795  17.728  0.00  0.00    +0.000 N 
ATOM      2  C   UNL     1       2.704   8.163  17.877  0.00  0.00    +0.000 C 
ATOM      3  O   UNL     1       3.809   8.696  17.931  0.00  0.00    +0.000 OA
ATOM      4  H   UNL     1       1.604   6.427  17.633  0.00  0.00    +0.000 HD
ENDROOT
BRANCH   1   5
ATOM      5  C   UNL     1       3.675   5.824  17.626  0.00  0.00    +0.000 C 
ATOM      6  C   UNL     1       4.510   5.782  18.925  0.00  0.00    +0.000 C 
ATOM      7  C   UNL     1       3.688   5.346  20.131  0.00  0.00    +0.000 C 
ATOM      8  C   UNL     1       2.736   4.214  19.842  0.00  0.00    +0.000 A 
ATOM      9  C   UNL     1       2.058   3.622  20.918  0.00  0.00    +0.000 A 
ATOM     10  C   UNL     1       1.132   2.606  20.700  0.00  0.00    +0.000 A 
ATOM     11  C   UNL     1       0.889   2.152  19.407  0.00  0.00    +0.000 A 
ATOM     12  C   UNL     1       1.562   2.727  18.328  0.00  0.00    +0.000 A 
ATOM     13  C   UNL     1       2.466   3.779  18.532  0.00  0.00    +0.000 A 
ATOM     14  C   UNL     1       3.155   4.401  17.338  0.00  0.00    +0.000 C 
BRANCH   5  16
ATOM     15  N   UNL     1       5.387   6.595  15.575  0.00  0.00    +0.000 NA
ATOM     16  C   UNL     1       4.611   6.245  16.505  0.00  0.00    +0.000 C 
ENDBRANCH   5  16
ENDBRANCH   1   5
BRANCH   2  17
ATOM     17  C   UNL     1       1.402   8.979  18.005  0.00  0.00    +0.000 C 
BRANCH  17  18
ATOM     18  N   UNL     1       1.049   9.317  19.387  0.00  0.00    +0.000 N 
ATOM     19  C   UNL     1       1.258   8.330  20.437  0.00  0.00    +0.000 C 
ATOM     20  C   UNL     1       1.482   8.999  21.778  0.00  0.00    +0.000 C 
ATOM     21  C   UNL     1       0.371   9.975  22.039  0.00  0.00    +0.000 C 
ATOM     22  O   UNL     1       0.016  10.294  23.169  0.00  0.00    +0.000 OA
ATOM     23  N   UNL     1      -0.167  10.571  20.928  0.00  0.00    +0.000 N 
ATOM     24  C   UNL     1       0.244  10.409  19.631  0.00  0.00    +0.000 C 
ATOM     25  O   UNL     1      -0.104  11.204  18.762  0.00  0.00    +0.000 OA
ATOM     26  H   UNL     1      -0.814  11.326  21.099  0.00  0.00    +0.000 HD
ENDBRANCH  17  18
ENDBRANCH   2  17
TORSDOF 4
ENDMDL
MODEL 8
REMARK VINA RESULT:      -6.9      1.779      2.265
REMARK  Name = 
REMARK  4 active torsions:
REMARK  status: ('A' for Active; 'I' for Inactive)
REMARK    1  A    between atoms: C_2  and  C_3
REMARK    2  A    between atoms: C_3  and  N_4
REMARK    3  A    between atoms: C_5  and  C_7
REMARK    4  A    between atoms: C_7  and  N_8
REMARK                            x       y       z     vdW  Elec       q    Type
REMARK                         _______ _______ _______ _____ _____    ______ ____
ROOT
ATOM      1  N   UNL     1       2.711   6.591  20.373  0.00  0.00    +0.000 N 
ATOM      2  C   UNL     1       1.528   7.145  20.836  0.00  0.00    +0.000 C 
ATOM      3  O   UNL     1       0.436   6.611  20.662  0.00  0.00    +0.000 OA
ATOM      4  H   UNL     1       3.583   7.054  20.599  0.00  0.00    +0.000 HD
ENDROOT
BRANCH   1   5
ATOM      5  C   UNL     1       2.792   5.305  19.614  0.00  0.00    +0.000 C 
ATOM      6  C   UNL     1       2.441   5.498  18.122  0.00  0.00    +0.000 C 
ATOM      7  C   UNL     1       3.390   6.462  17.421  0.00  0.00    +0.000 C 
ATOM      8  C   UNL     1       4.836   6.284  17.811  0.00  0.00    +0.000 A 
ATOM      9  C   UNL     1       5.810   7.001  17.101  0.00  0.00    +0.000 A 
ATOM     10  C   UNL     1       7.154   6.909  17.452  0.00  0.00    +0.000 A 
ATOM     11  C   UNL     1       7.543   6.083  18.502  0.00  0.00    +0.000 A 
ATOM     12  C   UNL     1       6.585   5.359  19.212  0.00  0.00    +0.000 A 
ATOM     13  C   UNL     1       5.225   5.476  18.895  0.00  0.00    +0.000 A 
ATOM     14  C   UNL     1       4.208   4.701  19.704  0.00  0.00    +0.000 C 
BRANCH   5  16
ATOM     15  N   UNL     1       0.966   3.485  20.657  0.00  0.00    +0.000 NA
ATOM     16  C   UNL     1       1.794   4.311  20.184  0.00  0.00    +0.000 C 
ENDBRANCH   5  16
ENDBRANCH   1   5
BRANCH   2  17
ATOM     17  C   UNL     1       1.665   8.500  21.559  0.00  0.00    +0.000 C 
BRANCH  17  18
ATOM     18  N   UNL     1       0.696   9.508  21.116  0.00  0.00    +0.000 N 
ATOM     19  C   UNL     1       0.693   9.927  19.721  0.00  0.00    +0.000 C 
ATOM     20  C   UNL     1      -0.681  10.406  19.299  0.00  0.00    +0.000 C 
ATOM     21  C   UNL     1      -1.169  11.440  20.271  0.00  0.00    +0.000 C 
ATOM     22  O   UNL     1      -1.969  12.319  19.966  0.00  0.00    +0.000 OA
ATOM     23  N   UNL     1      -0.737  11.288  21.564  0.00  0.00    +0.000 N 
ATOM     24  C   UNL     1       0.033  10.267  22.056  0.00  0.00    +0.000 C 
ATOM     25  O   UNL     1       0.110  10.070  23.265  0.00  0.00    +0.000 OA
ATOM     26  H   UNL     1      -1.167  11.891  22.249  0.00  0.00    +0.000 HD
ENDBRANCH  17  18
ENDBRANCH   2  17
TORSDOF 4
ENDMDL
MODEL 9
REMARK VINA RESULT:      -6.9      1.976      2.744
REMARK  Name = 
REMARK  4 active torsions:
REMARK  status: ('A' for Active; 'I' for Inactive)
REMARK    1  A    between atoms: C_2  and  C_3
REMARK    2  A    between atoms: C_3  and  N_4
REMARK    3  A    between atoms: C_5  and  C_7
REMARK    4  A    between atoms: C_7  and  N_8
REMARK                            x       y       z     vdW  Elec       q    Type
REMARK                         _______ _______ _______ _____ _____    ______ ____
ROOT
ATOM      1  N   UNL     1       2.428   6.035  18.073  0.00  0.00    +0.000 N 
ATOM      2  C   UNL     1       2.340   7.236  18.759  0.00  0.00    +0.000 C 
ATOM      3  O   UNL     1       2.514   7.318  19.972  0.00  0.00    +0.000 OA
ATOM      4  H   UNL     1       2.330   6.046  17.065  0.00  0.00    +0.000 HD
ENDROOT
BRANCH   1   5
ATOM      5  C   UNL     1       2.729   4.721  18.720  0.00  0.00    +0.000 C 
ATOM      6  C   UNL     1       2.872   3.590  17.678  0.00  0.00    +0.000 C 
ATOM      7  C   UNL     1       4.007   3.845  16.694  0.00  0.00    +0.000 C 
ATOM      8  C   UNL     1       5.252   4.407  17.332  0.00  0.00    +0.000 A 
ATOM      9  C   UNL     1       6.410   4.517  16.549  0.00  0.00    +0.000 A 
ATOM     10  C   UNL     1       7.572   5.074  17.077  0.00  0.00    +0.000 A 
ATOM     11  C   UNL     1       7.597   5.505  18.399  0.00  0.00    +0.000 A 
ATOM     12  C   UNL     1       6.455   5.394  19.192  0.00  0.00    +0.000 A 
ATOM     13  C   UNL     1       5.267   4.874  18.659  0.00  0.00    +0.000 A 
ATOM     14  C   UNL     1       4.036   4.796  19.536  0.00  0.00    +0.000 C 
BRANCH   5  16
ATOM     15  N   UNL     1       0.644   4.014  20.418  0.00  0.00    +0.000 NA
ATOM     16  C   UNL     1       1.589   4.334  19.648  0.00  0.00    +0.000 C 
ENDBRANCH   5  16
ENDBRANCH   1   5
BRANCH   2  17
ATOM     17  C   UNL     1       1.977   8.466  17.905  0.00  0.00    +0.000 C 
BRANCH  17  18
ATOM     18  N   UNL     1       1.503   9.612  18.689  0.00  0.00    +0.000 N 
ATOM     19  C   UNL     1       0.361   9.443  19.576  0.00  0.00    +0.000 C 
ATOM     20  C   UNL     1       0.417  10.423  20.730  0.00  0.00    +0.000 C 
ATOM     21  C   UNL     1       0.600  11.813  20.193  0.00  0.00    +0.000 C 
ATOM     22  O   UNL     1       0.218  12.815  20.790  0.00  0.00    +0.000 OA
ATOM     23  N   UNL     1       1.315  11.908  19.027  0.00  0.00    +0.000 N 
ATOM     24  C   UNL     1       1.918  10.882  18.350  0.00  0.00    +0.000 C 
ATOM     25  O   UNL     1       2.770  11.112  17.496  0.00  0.00    +0.000 OA
ATOM     26  H   UNL     1       1.563  12.841  18.733  0.00  0.00    +0.000 HD
ENDBRANCH  17  18
ENDBRANCH   2  17
TORSDOF 4
ENDMDL
