MODEL 1
REMARK VINA RESULT:      -8.2      0.000      0.000
REMARK  Name = 
REMARK  3 active torsions:
REMARK  status: ('A' for Active; 'I' for Inactive)
REMARK    1  A    between atoms: C_4  and  O_5
REMARK    2  A    between atoms: N_11  and  C_12
REMARK    3  A    between atoms: C_15  and  N_16
REMARK                            x       y       z     vdW  Elec       q    Type
REMARK                         _______ _______ _______ _____ _____    ______ ____
ROOT
ATOM      1  C   UNL     1       4.055   3.747  17.157  0.00  0.00    +0.000 A 
ATOM      2  C   UNL     1       3.973   3.474  15.773  0.00  0.00    +0.000 A 
ATOM      3  C   UNL     1       4.963   3.876  14.897  0.00  0.00    +0.000 A 
ATOM      4  C   UNL     1       6.069   4.553  15.409  0.00  0.00    +0.000 A 
ATOM      5  C   UNL     1       6.210   4.876  16.784  0.00  0.00    +0.000 A 
ATOM      6  C   UNL     1       7.325   5.574  17.317  0.00  0.00    +0.000 A 
ATOM      7  C   UNL     1       7.440   5.857  18.675  0.00  0.00    +0.000 A 
ATOM      8  C   UNL     1       6.442   5.455  19.543  0.00  0.00    +0.000 A 
ATOM      9  C   UNL     1       5.331   4.768  19.053  0.00  0.00    +0.000 A 
ATOM     10  C   UNL     1       5.171   4.470  17.677  0.00  0.00    +0.000 A 
ENDROOT
BRANCH   1  20
ATOM     11  O   UNL     1       4.072   1.551  19.106  0.00  0.00    +0.000 OA
ATOM     12  C   UNL     1       3.148   2.339  18.958  0.00  0.00    +0.000 C 
ATOM     13  C   UNL     1       1.995   2.475  19.940  0.00  0.00    +0.000 C 
ATOM     14  C   UNL     1       2.449   2.796  21.365  0.00  0.00    +0.000 C 
ATOM     15  C   UNL     1       2.488   4.324  21.387  0.00  0.00    +0.000 C 
ATOM     16  C   UNL     1       1.300   4.696  20.499  0.00  0.00    +0.000 C 
ATOM     17  N   UNL     1       1.324   3.671  19.467  0.00  0.00    +0.000 N 
ATOM     18  C   UNL     1       1.896   4.080  18.258  0.00  0.00    +0.000 C 
ATOM     19  O   UNL     1       1.538   5.093  17.669  0.00  0.00    +0.000 OA
ATOM     20  N   UNL     1       2.979   3.283  17.968  0.00  0.00    +0.000 N 
BRANCH  14  21
ATOM     21  O   UNL     1       1.507   2.327  22.333  0.00  0.00    +0.000 OA
ATOM     22  H   UNL     1       0.842   1.770  21.893  0.00  0.00    +0.000 HD
ENDBRANCH  14  21
ENDBRANCH   1  20
BRANCH   4  23
ATOM     23  N   UNL     1       7.099   4.899  14.440  0.00  0.00    +0.000 N 
ATOM     24  O   UNL     1       7.959   5.713  14.801  0.00  0.00    +0.000 OA
ATOM     25  O   UNL     1       7.014   4.395  13.312  0.00  0.00    +0.000 OA
ENDBRANCH   4  23
TORSDOF 3
ENDMDL
MODEL 2
REMARK VINA RESULT:      -8.1      1.443      1.725
REMARK  Name = 
REMARK  3 active torsions:
REMARK  status: ('A' for Active; 'I' for Inactive)
REMARK    1  A    between atoms: C_4  and  O_5
REMARK    2  A    between atoms: N_11  and  C_12
REMARK    3  A    between atoms: C_15  and  N_16
REMARK                            x       y       z     vdW  Elec       q    Type
REMARK                         _______ _______ _______ _____ _____    ______ ____
ROOT
ATOM      1  C   UNL     1       4.122   3.473  17.314  0.00  0.00    +0.000 A 
ATOM      2  C   UNL     1       4.960   2.671  16.507  0.00  0.00    +0.000 A 
ATOM      3  C   UNL     1       5.859   3.232  15.620  0.00  0.00    +0.000 A 
ATOM      4  C   UNL     1       5.941   4.621  15.543  0.00  0.00    +0.000 A 
ATOM      5  C   UNL     1       5.118   5.487  16.311  0.00  0.00    +0.000 A 
ATOM      6  C   UNL     1       5.182   6.903  16.234  0.00  0.00    +0.000 A 
ATOM      7  C   UNL     1       4.374   7.723  17.017  0.00  0.00    +0.000 A 
ATOM      8  C   UNL     1       3.473   7.154  17.898  0.00  0.00    +0.000 A 
ATOM      9  C   UNL     1       3.383   5.765  17.997  0.00  0.00    +0.000 A 
ATOM     10  C   UNL     1       4.180   4.896  17.211  0.00  0.00    +0.000 A 
ENDROOT
BRANCH   1  20
ATOM     11  O   UNL     1       4.730   2.273  19.924  0.00  0.00    +0.000 OA
ATOM     12  C   UNL     1       3.603   2.400  19.466  0.00  0.00    +0.000 C 
ATOM     13  C   UNL     1       2.336   2.213  20.286  0.00  0.00    +0.000 C 
ATOM     14  C   UNL     1       2.273   3.122  21.516  0.00  0.00    +0.000 C 
ATOM     15  C   UNL     1       1.598   4.387  20.985  0.00  0.00    +0.000 C 
ATOM     16  C   UNL     1       0.594   3.826  19.977  0.00  0.00    +0.000 C 
ATOM     17  N   UNL     1       1.309   2.704  19.388  0.00  0.00    +0.000 N 
ATOM     18  C   UNL     1       1.873   2.972  18.135  0.00  0.00    +0.000 C 
ATOM     19  O   UNL     1       1.224   3.439  17.206  0.00  0.00    +0.000 OA
ATOM     20  N   UNL     1       3.235   2.789  18.195  0.00  0.00    +0.000 N 
BRANCH  14  21
ATOM     21  O   UNL     1       1.470   2.548  22.550  0.00  0.00    +0.000 OA
ATOM     22  H   UNL     1       1.809   1.663  22.768  0.00  0.00    +0.000 HD
ENDBRANCH  14  21
ENDBRANCH   1  20
BRANCH   4  23
ATOM     23  N   UNL     1       6.946   5.143  14.629  0.00  0.00    +0.000 N 
ATOM     24  O   UNL     1       6.825   4.848  13.433  0.00  0.00    +0.000 OA
ATOM     25  O   UNL     1       7.874   5.801  15.117  0.00  0.00    +0.000 OA
ENDBRANCH   4  23
TORSDOF 3
ENDMDL
MODEL 3
REMARK VINA RESULT:      -7.7      1.738      2.817
REMARK  Name = 
REMARK  3 active torsions:
REMARK  status: ('A' for Active; 'I' for Inactive)
REMARK    1  A    between atoms: C_4  and  O_5
REMARK    2  A    between atoms: N_11  and  C_12
REMARK    3  A    between atoms: C_15  and  N_16
REMARK                            x       y       z     vdW  Elec       q    Type
REMARK                         _______ _______ _______ _____ _____    ______ ____
ROOT
ATOM      1  C   UNL     1       4.932   4.417  18.402  0.00  0.00    +0.000 A 
ATOM      2  C   UNL     1       5.349   5.292  19.429  0.00  0.00    +0.000 A 
ATOM      3  C   UNL     1       6.345   6.227  19.221  0.00  0.00    +0.000 A 
ATOM      4  C   UNL     1       6.931   6.306  17.959  0.00  0.00    +0.000 A 
ATOM      5  C   UNL     1       6.574   5.447  16.886  0.00  0.00    +0.000 A 
ATOM      6  C   UNL     1       7.169   5.508  15.599  0.00  0.00    +0.000 A 
ATOM      7  C   UNL     1       6.780   4.664  14.564  0.00  0.00    +0.000 A 
ATOM      8  C   UNL     1       5.786   3.728  14.782  0.00  0.00    +0.000 A 
ATOM      9  C   UNL     1       5.181   3.640  16.036  0.00  0.00    +0.000 A 
ATOM     10  C   UNL     1       5.555   4.473  17.119  0.00  0.00    +0.000 A 
ENDROOT
BRANCH   1  20
ATOM     11  O   UNL     1       4.995   2.241  20.373  0.00  0.00    +0.000 OA
ATOM     12  C   UNL     1       3.990   2.610  19.780  0.00  0.00    +0.000 C 
ATOM     13  C   UNL     1       2.582   2.190  20.171  0.00  0.00    +0.000 C 
ATOM     14  C   UNL     1       2.229   2.536  21.620  0.00  0.00    +0.000 C 
ATOM     15  C   UNL     1       1.649   3.946  21.514  0.00  0.00    +0.000 C 
ATOM     16  C   UNL     1       0.903   3.896  20.180  0.00  0.00    +0.000 C 
ATOM     17  N   UNL     1       1.760   3.060  19.353  0.00  0.00    +0.000 N 
ATOM     18  C   UNL     1       2.574   3.769  18.462  0.00  0.00    +0.000 C 
ATOM     19  O   UNL     1       2.128   4.606  17.686  0.00  0.00    +0.000 OA
ATOM     20  N   UNL     1       3.895   3.495  18.727  0.00  0.00    +0.000 N 
BRANCH  14  21
ATOM     21  O   UNL     1       1.239   1.648  22.143  0.00  0.00    +0.000 OA
ATOM     22  H   UNL     1       0.361   1.919  21.824  0.00  0.00    +0.000 HD
ENDBRANCH  14  21
ENDBRANCH   1  20
BRANCH   4  23
ATOM     23  N   UNL     1       7.934   7.348  17.794  0.00  0.00    +0.000 N 
ATOM     24  O   UNL     1       8.685   7.561  18.755  0.00  0.00    +0.000 OA
ATOM     25  O   UNL     1       7.933   7.977  16.728  0.00  0.00    +0.000 OA
ENDBRANCH   4  23
TORSDOF 3
ENDMDL
MODEL 4
REMARK VINA RESULT:      -7.5      3.244      6.479
REMARK  Name = 
REMARK  3 active torsions:
REMARK  status: ('A' for Active; 'I' for Inactive)
REMARK    1  A    between atoms: C_4  and  O_5
REMARK    2  A    between atoms: N_11  and  C_12
REMARK    3  A    between atoms: C_15  and  N_16
REMARK                            x       y       z     vdW  Elec       q    Type
REMARK                         _______ _______ _______ _____ _____    ______ ____
ROOT
ATOM      1  C   UNL     1       3.151   5.642  19.371  0.00  0.00    +0.000 A 
ATOM      2  C   UNL     1       2.575   5.209  20.586  0.00  0.00    +0.000 A 
ATOM      3  C   UNL     1       1.699   6.008  21.296  0.00  0.00    +0.000 A 
ATOM      4  C   UNL     1       1.374   7.262  20.779  0.00  0.00    +0.000 A 
ATOM      5  C   UNL     1       1.929   7.768  19.573  0.00  0.00    +0.000 A 
ATOM      6  C   UNL     1       1.616   9.046  19.042  0.00  0.00    +0.000 A 
ATOM      7  C   UNL     1       2.162   9.503  17.846  0.00  0.00    +0.000 A 
ATOM      8  C   UNL     1       3.042   8.699  17.145  0.00  0.00    +0.000 A 
ATOM      9  C   UNL     1       3.372   7.437  17.641  0.00  0.00    +0.000 A 
ATOM     10  C   UNL     1       2.846   6.939  18.859  0.00  0.00    +0.000 A 
ENDROOT
BRANCH   1  20
ATOM     11  O   UNL     1       2.615   3.938  17.041  0.00  0.00    +0.000 OA
ATOM     12  C   UNL     1       3.719   4.100  17.541  0.00  0.00    +0.000 C 
ATOM     13  C   UNL     1       5.015   3.669  16.873  0.00  0.00    +0.000 C 
ATOM     14  C   UNL     1       5.213   4.284  15.486  0.00  0.00    +0.000 C 
ATOM     15  C   UNL     1       5.942   5.594  15.781  0.00  0.00    +0.000 C 
ATOM     16  C   UNL     1       6.844   5.211  16.956  0.00  0.00    +0.000 C 
ATOM     17  N   UNL     1       6.020   4.286  17.717  0.00  0.00    +0.000 N 
ATOM     18  C   UNL     1       5.403   4.850  18.840  0.00  0.00    +0.000 C 
ATOM     19  O   UNL     1       6.028   5.471  19.692  0.00  0.00    +0.000 OA
ATOM     20  N   UNL     1       4.038   4.735  18.723  0.00  0.00    +0.000 N 
BRANCH  14  21
ATOM     21  O   UNL     1       6.033   3.455  14.658  0.00  0.00    +0.000 OA
ATOM     22  H   UNL     1       5.596   3.323  13.799  0.00  0.00    +0.000 HD
ENDBRANCH  14  21
ENDBRANCH   1  20
BRANCH   4  23
ATOM     23  N   UNL     1       0.406   8.028  21.548  0.00  0.00    +0.000 N 
ATOM     24  O   UNL     1       0.855   8.846  22.362  0.00  0.00    +0.000 OA
ATOM     25  O   UNL     1      -0.793   7.773  21.372  0.00  0.00    +0.000 OA
ENDBRANCH   4  23
TORSDOF 3
ENDMDL
MODEL 5
REMARK VINA RESULT:      -7.3      4.079      6.889
REMARK  Name = 
REMARK  3 active torsions:
REMARK  status: ('A' for Active; 'I' for Inactive)
REMARK    1  A    between atoms: C_4  and  O_5
REMARK    2  A    between atoms: N_11  and  C_12
REMARK    3  A    between atoms: C_15  and  N_16
REMARK                            x       y       z     vdW  Elec       q    Type
REMARK                         _______ _______ _______ _____ _____    ______ ____
ROOT
ATOM      1  C   UNL     1       2.201   7.076  19.120  0.00  0.00    +0.000 A 
ATOM      2  C   UNL     1       1.989   6.422  20.354  0.00  0.00    +0.000 A 
ATOM      3  C   UNL     1       1.433   7.081  21.435  0.00  0.00    +0.000 A 
ATOM      4  C   UNL     1       1.064   8.417  21.282  0.00  0.00    +0.000 A 
ATOM      5  C   UNL     1       1.264   9.141  20.077  0.00  0.00    +0.000 A 
ATOM      6  C   UNL     1       0.904  10.503  19.911  0.00  0.00    +0.000 A 
ATOM      7  C   UNL     1       1.095  11.177  18.708  0.00  0.00    +0.000 A 
ATOM      8  C   UNL     1       1.657  10.512  17.634  0.00  0.00    +0.000 A 
ATOM      9  C   UNL     1       2.024   9.172  17.764  0.00  0.00    +0.000 A 
ATOM     10  C   UNL     1       1.856   8.454  18.973  0.00  0.00    +0.000 A 
ENDROOT
BRANCH   1  20
ATOM     11  O   UNL     1       4.827   7.415  17.851  0.00  0.00    +0.000 OA
ATOM     12  C   UNL     1       4.084   6.461  17.662  0.00  0.00    +0.000 C 
ATOM     13  C   UNL     1       4.520   5.182  16.965  0.00  0.00    +0.000 C 
ATOM     14  C   UNL     1       5.721   4.509  17.632  0.00  0.00    +0.000 C 
ATOM     15  C   UNL     1       5.078   3.584  18.665  0.00  0.00    +0.000 C 
ATOM     16  C   UNL     1       3.812   3.116  17.945  0.00  0.00    +0.000 C 
ATOM     17  N   UNL     1       3.396   4.298  17.207  0.00  0.00    +0.000 N 
ATOM     18  C   UNL     1       2.357   5.018  17.807  0.00  0.00    +0.000 C 
ATOM     19  O   UNL     1       1.305   4.492  18.154  0.00  0.00    +0.000 OA
ATOM     20  N   UNL     1       2.778   6.300  18.074  0.00  0.00    +0.000 N 
BRANCH  14  21
ATOM     21  O   UNL     1       6.473   3.734  16.696  0.00  0.00    +0.000 OA
ATOM     22  H   UNL     1       7.267   4.229  16.430  0.00  0.00    +0.000 HD
ENDBRANCH  14  21
ENDBRANCH   1  20
BRANCH   4  23
ATOM     23  N   UNL     1       0.436   9.032  22.441  0.00  0.00    +0.000 N 
ATOM     24  O   UNL     1       1.180   9.617  23.239  0.00  0.00    +0.000 OA
ATOM     25  O   UNL     1      -0.787   8.886  22.572  0.00  0.00    +0.000 OA
ENDBRANCH   4  23
TORSDOF 3
ENDMDL
MODEL 6
REMARK VINA RESULT:      -7.3      3.612      6.144
REMARK  Name = 
REMARK  3 active torsions:
REMARK  status: ('A' for Active; 'I' for Inactive)
REMARK    1  A    between atoms: C_4  and  O_5
REMARK    2  A    between atoms: N_11  and  C_12
REMARK    3  A    between atoms: C_15  and  N_16
REMARK                            x       y       z     vdW  Elec       q    Type
REMARK                         _______ _______ _______ _____ _____    ______ ____
ROOT
ATOM      1  C   UNL     1       2.274   6.248  19.400  0.00  0.00    +0.000 A 
ATOM      2  C   UNL     1       1.794   5.894  20.680  0.00  0.00    +0.000 A 
ATOM      3  C   UNL     1       1.225   6.830  21.523  0.00  0.00    +0.000 A 
ATOM      4  C   UNL     1       1.116   8.147  21.077  0.00  0.00    +0.000 A 
ATOM      5  C   UNL     1       1.592   8.576  19.810  0.00  0.00    +0.000 A 
ATOM      6  C   UNL     1       1.497   9.915  19.349  0.00  0.00    +0.000 A 
ATOM      7  C   UNL     1       1.957  10.298  18.092  0.00  0.00    +0.000 A 
ATOM      8  C   UNL     1       2.529   9.356  17.258  0.00  0.00    +0.000 A 
ATOM      9  C   UNL     1       2.639   8.031  17.681  0.00  0.00    +0.000 A 
ATOM     10  C   UNL     1       2.194   7.603  18.956  0.00  0.00    +0.000 A 
ENDROOT
BRANCH   1  20
ATOM     11  O   UNL     1       4.783   4.794  19.857  0.00  0.00    +0.000 OA
ATOM     12  C   UNL     1       3.951   4.490  19.014  0.00  0.00    +0.000 C 
ATOM     13  C   UNL     1       3.954   3.165  18.269  0.00  0.00    +0.000 C 
ATOM     14  C   UNL     1       3.909   1.950  19.197  0.00  0.00    +0.000 C 
ATOM     15  C   UNL     1       2.412   1.702  19.383  0.00  0.00    +0.000 C 
ATOM     16  C   UNL     1       1.847   2.060  18.007  0.00  0.00    +0.000 C 
ATOM     17  N   UNL     1       2.671   3.185  17.593  0.00  0.00    +0.000 N 
ATOM     18  C   UNL     1       2.071   4.437  17.768  0.00  0.00    +0.000 C 
ATOM     19  O   UNL     1       0.957   4.700  17.330  0.00  0.00    +0.000 OA
ATOM     20  N   UNL     1       2.839   5.201  18.614  0.00  0.00    +0.000 N 
BRANCH  14  21
ATOM     21  O   UNL     1       4.513   0.804  18.590  0.00  0.00    +0.000 OA
ATOM     22  H   UNL     1       5.077   1.090  17.852  0.00  0.00    +0.000 HD
ENDBRANCH  14  21
ENDBRANCH   1  20
BRANCH   4  23
ATOM     23  N   UNL     1       0.458   9.068  21.992  0.00  0.00    +0.000 N 
ATOM     24  O   UNL     1       1.176   9.650  22.816  0.00  0.00    +0.000 OA
ATOM     25  O   UNL     1      -0.774   9.167  21.915  0.00  0.00    +0.000 OA
ENDBRANCH   4  23
TORSDOF 3
ENDMDL
MODEL 7
REMARK VINA RESULT:      -7.3      2.119      6.414
REMARK  Name = 
REMARK  3 active torsions:
REMARK  status: ('A' for Active; 'I' for Inactive)
REMARK    1  A    between atoms: C_4  and  O_5
REMARK    2  A    between atoms: N_11  and  C_12
REMARK    3  A    between atoms: C_15  and  N_16
REMARK                            x       y       z     vdW  Elec       q    Type
REMARK                         _______ _______ _______ _____ _____    ______ ____
ROOT
ATOM      1  C   UNL     1       4.715   3.808  19.103  0.00  0.00    +0.000 A 
ATOM      2  C   UNL     1       4.493   2.525  19.649  0.00  0.00    +0.000 A 
ATOM      3  C   UNL     1       3.359   2.240  20.386  0.00  0.00    +0.000 A 
ATOM      4  C   UNL     1       2.414   3.249  20.571  0.00  0.00    +0.000 A 
ATOM      5  C   UNL     1       2.580   4.565  20.065  0.00  0.00    +0.000 A 
ATOM      6  C   UNL     1       1.632   5.604  20.255  0.00  0.00    +0.000 A 
ATOM      7  C   UNL     1       1.818   6.879  19.727  0.00  0.00    +0.000 A 
ATOM      8  C   UNL     1       2.958   7.157  18.996  0.00  0.00    +0.000 A 
ATOM      9  C   UNL     1       3.911   6.158  18.791  0.00  0.00    +0.000 A 
ATOM     10  C   UNL     1       3.765   4.852  19.321  0.00  0.00    +0.000 A 
ENDROOT
BRANCH   1  20
ATOM     11  O   UNL     1       5.195   3.222  16.266  0.00  0.00    +0.000 OA
ATOM     12  C   UNL     1       5.978   3.820  16.992  0.00  0.00    +0.000 C 
ATOM     13  C   UNL     1       7.185   4.586  16.475  0.00  0.00    +0.000 C 
ATOM     14  C   UNL     1       6.822   5.669  15.457  0.00  0.00    +0.000 C 
ATOM     15  C   UNL     1       6.565   6.899  16.327  0.00  0.00    +0.000 C 
ATOM     16  C   UNL     1       7.601   6.736  17.441  0.00  0.00    +0.000 C 
ATOM     17  N   UNL     1       7.630   5.298  17.657  0.00  0.00    +0.000 N 
ATOM     18  C   UNL     1       6.895   4.865  18.767  0.00  0.00    +0.000 C 
ATOM     19  O   UNL     1       7.048   5.343  19.885  0.00  0.00    +0.000 OA
ATOM     20  N   UNL     1       5.917   3.990  18.359  0.00  0.00    +0.000 N 
BRANCH  14  21
ATOM     21  O   UNL     1       7.907   5.932  14.563  0.00  0.00    +0.000 OA
ATOM     22  H   UNL     1       8.103   5.130  14.049  0.00  0.00    +0.000 HD
ENDBRANCH  14  21
ENDBRANCH   1  20
BRANCH   4  23
ATOM     23  N   UNL     1       1.220   2.865  21.309  0.00  0.00    +0.000 N 
ATOM     24  O   UNL     1       1.364   2.592  22.508  0.00  0.00    +0.000 OA
ATOM     25  O   UNL     1       0.158   2.791  20.677  0.00  0.00    +0.000 OA
ENDBRANCH   4  23
TORSDOF 3
ENDMDL
MODEL 8
REMARK VINA RESULT:      -7.2      2.459      6.319
REMARK  Name = 
REMARK  3 active torsions:
REMARK  status: ('A' for Active; 'I' for Inactive)
REMARK    1  A    between atoms: C_4  and  O_5
REMARK    2  A    between atoms: N_11  and  C_12
REMARK    3  A    between atoms: C_15  and  N_16
REMARK                            x       y       z     vdW  Elec       q    Type
REMARK                         _______ _______ _______ _____ _____    ______ ____
ROOT
ATOM      1  C   UNL     1       4.123   5.424  18.096  0.00  0.00    +0.000 A 
ATOM      2  C   UNL     1       4.034   6.763  17.655  0.00  0.00    +0.000 A 
ATOM      3  C   UNL     1       3.182   7.668  18.259  0.00  0.00    +0.000 A 
ATOM      4  C   UNL     1       2.411   7.238  19.338  0.00  0.00    +0.000 A 
ATOM      5  C   UNL     1       2.436   5.903  19.823  0.00  0.00    +0.000 A 
ATOM      6  C   UNL     1       1.648   5.449  20.912  0.00  0.00    +0.000 A 
ATOM      7  C   UNL     1       1.713   4.138  21.375  0.00  0.00    +0.000 A 
ATOM      8  C   UNL     1       2.564   3.238  20.761  0.00  0.00    +0.000 A 
ATOM      9  C   UNL     1       3.352   3.651  19.686  0.00  0.00    +0.000 A 
ATOM     10  C   UNL     1       3.307   4.973  19.178  0.00  0.00    +0.000 A 
ENDROOT
BRANCH   1  20
ATOM     11  O   UNL     1       3.524   3.405  16.050  0.00  0.00    +0.000 OA
ATOM     12  C   UNL     1       4.651   3.774  16.350  0.00  0.00    +0.000 C 
ATOM     13  C   UNL     1       5.887   3.451  15.527  0.00  0.00    +0.000 C 
ATOM     14  C   UNL     1       5.786   3.923  14.075  0.00  0.00    +0.000 C 
ATOM     15  C   UNL     1       6.340   5.346  14.127  0.00  0.00    +0.000 C 
ATOM     16  C   UNL     1       7.450   5.229  15.172  0.00  0.00    +0.000 C 
ATOM     17  N   UNL     1       6.897   4.294  16.139  0.00  0.00    +0.000 N 
ATOM     18  C   UNL     1       6.370   4.894  17.288  0.00  0.00    +0.000 C 
ATOM     19  O   UNL     1       7.008   5.689  17.968  0.00  0.00    +0.000 OA
ATOM     20  N   UNL     1       5.036   4.579  17.402  0.00  0.00    +0.000 N 
BRANCH  14  21
ATOM     21  O   UNL     1       6.595   3.125  13.207  0.00  0.00    +0.000 OA
ATOM     22  H   UNL     1       6.198   2.241  13.118  0.00  0.00    +0.000 HD
ENDBRANCH  14  21
ENDBRANCH   1  20
BRANCH   4  23
ATOM     23  N   UNL     1       1.578   8.255  19.961  0.00  0.00    +0.000 N 
ATOM     24  O   UNL     1       0.963   9.019  19.204  0.00  0.00    +0.000 OA
ATOM     25  O   UNL     1       1.581   8.317  21.198  0.00  0.00    +0.000 OA
ENDBRANCH   4  23
TORSDOF 3
ENDMDL
MODEL 9
REMARK VINA RESULT:      -7.2     10.943     13.175
REMARK  Name = 
REMARK  3 active torsions:
REMARK  status: ('A' for Active; 'I' for Inactive)
REMARK    1  A    between atoms: C_4  and  O_5
REMARK    2  A    between atoms: N_11  and  C_12
REMARK    3  A    between atoms: C_15  and  N_16
REMARK                            x       y       z     vdW  Elec       q    Type
REMARK                         _______ _______ _______ _____ _____    ______ ____
ROOT
ATOM      1  C   UNL     1      -5.863  12.448  19.376  0.00  0.00    +0.000 A 
ATOM      2  C   UNL     1      -6.377  11.992  18.142  0.00  0.00    +0.000 A 
ATOM      3  C   UNL     1      -5.551  11.463  17.168  0.00  0.00    +0.000 A 
ATOM      4  C   UNL     1      -4.186  11.370  17.430  0.00  0.00    +0.000 A 
ATOM      5  C   UNL     1      -3.599  11.825  18.641  0.00  0.00    +0.000 A 
ATOM      6  C   UNL     1      -2.209  11.746  18.918  0.00  0.00    +0.000 A 
ATOM      7  C   UNL     1      -1.670  12.183  20.124  0.00  0.00    +0.000 A 
ATOM      8  C   UNL     1      -2.502  12.716  21.092  0.00  0.00    +0.000 A 
ATOM      9  C   UNL     1      -3.874  12.809  20.852  0.00  0.00    +0.000 A 
ATOM     10  C   UNL     1      -4.460  12.385  19.633  0.00  0.00    +0.000 A 
ENDROOT
BRANCH   1  20
ATOM     11  O   UNL     1      -7.234  11.034  21.554  0.00  0.00    +0.000 OA
ATOM     12  C   UNL     1      -7.269  12.245  21.385  0.00  0.00    +0.000 C 
ATOM     13  C   UNL     1      -7.791  13.224  22.424  0.00  0.00    +0.000 C 
ATOM     14  C   UNL     1      -7.067  13.121  23.769  0.00  0.00    +0.000 C 
ATOM     15  C   UNL     1      -5.899  14.095  23.615  0.00  0.00    +0.000 C 
ATOM     16  C   UNL     1      -6.514  15.217  22.778  0.00  0.00    +0.000 C 
ATOM     17  N   UNL     1      -7.399  14.505  21.869  0.00  0.00    +0.000 N 
ATOM     18  C   UNL     1      -6.879  14.317  20.584  0.00  0.00    +0.000 C 
ATOM     19  O   UNL     1      -6.434  15.240  19.911  0.00  0.00    +0.000 OA
ATOM     20  N   UNL     1      -6.805  12.972  20.309  0.00  0.00    +0.000 N 
BRANCH  14  21
ATOM     21  O   UNL     1      -7.905  13.543  24.848  0.00  0.00    +0.000 OA
ATOM     22  H   UNL     1      -8.698  13.978  24.490  0.00  0.00    +0.000 HD
ENDBRANCH  14  21
ENDBRANCH   1  20
BRANCH   4  23
ATOM     23  N   UNL     1      -3.384  10.754  16.384  0.00  0.00    +0.000 N 
ATOM     24  O   UNL     1      -3.165  11.432  15.371  0.00  0.00    +0.000 OA
ATOM     25  O   UNL     1      -3.020   9.583  16.558  0.00  0.00    +0.000 OA
ENDBRANCH   4  23
TORSDOF 3
ENDMDL
