MODEL 1
REMARK VINA RESULT:      -7.2      0.000      0.000
REMARK  Name = 
REMARK  7 active torsions:
REMARK  status: ('A' for Active; 'I' for Inactive)
REMARK    1  A    between atoms: C_1  and  O_2
REMARK    2  A    between atoms: O_2  and  C_3
REMARK    3  A    between atoms: C_6  and  C_7
REMARK    4  A    between atoms: N_14  and  S_15
REMARK    5  A    between atoms: S_15  and  C_18
REMARK    6  A    between atoms: C_21  and  O_22
REMARK    7  A    between atoms: O_22  and  C_23
REMARK                            x       y       z     vdW  Elec       q    Type
REMARK                         _______ _______ _______ _____ _____    ______ ____
ROOT
ATOM      1  C   UNL     1       3.905   3.666  18.301  0.00  0.00    +0.000 A 
ATOM      2  C   UNL     1       4.173   2.286  18.091  0.00  0.00    +0.000 A 
ATOM      3  C   UNL     1       3.329   1.274  18.524  0.00  0.00    +0.000 A 
ATOM      4  C   UNL     1       2.144   1.594  19.161  0.00  0.00    +0.000 A 
ATOM      5  C   UNL     1       1.816   2.948  19.406  0.00  0.00    +0.000 A 
ATOM      6  C   UNL     1       0.656   3.518  20.009  0.00  0.00    +0.000 A 
ATOM      7  C   UNL     1       0.816   4.878  19.995  0.00  0.00    +0.000 A 
ATOM      8  N   UNL     1       2.061   5.148  19.489  0.00  0.00    +0.000 N 
ATOM      9  C   UNL     1       2.686   3.985  19.008  0.00  0.00    +0.000 A 
ENDROOT
BRANCH   1  13
ATOM     10  C   UNL     1       6.635   6.788  17.169  0.00  0.00    +0.000 A 
ATOM     11  C   UNL     1       5.556   6.468  16.353  0.00  0.00    +0.000 A 
ATOM     12  C   UNL     1       4.764   5.345  16.632  0.00  0.00    +0.000 A 
ATOM     13  C   UNL     1       4.909   4.639  17.826  0.00  0.00    +0.000 A 
ATOM     14  C   UNL     1       6.084   4.886  18.556  0.00  0.00    +0.000 A 
ATOM     15  C   UNL     1       6.954   5.932  18.215  0.00  0.00    +0.000 A 
BRANCH  10  17
ATOM     16  C   UNL     1       8.097   8.507  17.868  0.00  0.00    +0.000 C 
ATOM     17  O   UNL     1       7.319   7.923  16.829  0.00  0.00    +0.000 OA
ENDBRANCH  10  17
ENDBRANCH   1  13
BRANCH   8  18
ATOM     18  S   UNL     1       2.588   6.742  19.233  0.00  0.00    +0.000 S 
ATOM     19  O   UNL     1       3.891   6.820  19.869  0.00  0.00    +0.000 OA
ATOM     20  O   UNL     1       2.351   6.966  17.824  0.00  0.00    +0.000 OA
BRANCH  18  21
ATOM     21  C   UNL     1       1.587   7.949  20.068  0.00  0.00    +0.000 A 
ATOM     22  C   UNL     1       1.568   7.997  21.462  0.00  0.00    +0.000 A 
ATOM     23  C   UNL     1       1.141   9.170  22.097  0.00  0.00    +0.000 A 
ATOM     24  C   UNL     1       0.768  10.295  21.353  0.00  0.00    +0.000 A 
ATOM     25  C   UNL     1       0.750  10.225  19.962  0.00  0.00    +0.000 A 
ATOM     26  C   UNL     1       1.154   9.054  19.321  0.00  0.00    +0.000 A 
BRANCH  24  27
ATOM     27  O   UNL     1       0.429  11.404  22.079  0.00  0.00    +0.000 OA
ATOM     28  C   UNL     1      -0.950  11.519  22.426  0.00  0.00    +0.000 C 
ENDBRANCH  24  27
ENDBRANCH  18  21
ENDBRANCH   8  18
TORSDOF 5
ENDMDL
MODEL 2
REMARK VINA RESULT:      -6.8      2.112      4.824
REMARK  Name = 
REMARK  7 active torsions:
REMARK  status: ('A' for Active; 'I' for Inactive)
REMARK    1  A    between atoms: C_1  and  O_2
REMARK    2  A    between atoms: O_2  and  C_3
REMARK    3  A    between atoms: C_6  and  C_7
REMARK    4  A    between atoms: N_14  and  S_15
REMARK    5  A    between atoms: S_15  and  C_18
REMARK    6  A    between atoms: C_21  and  O_22
REMARK    7  A    between atoms: O_22  and  C_23
REMARK                            x       y       z     vdW  Elec       q    Type
REMARK                         _______ _______ _______ _____ _____    ______ ____
ROOT
ATOM      1  C   UNL     1       4.702   3.904  16.840  0.00  0.00    +0.000 A 
ATOM      2  C   UNL     1       5.531   3.145  15.969  0.00  0.00    +0.000 A 
ATOM      3  C   UNL     1       6.279   3.710  14.949  0.00  0.00    +0.000 A 
ATOM      4  C   UNL     1       6.267   5.082  14.768  0.00  0.00    +0.000 A 
ATOM      5  C   UNL     1       5.461   5.897  15.596  0.00  0.00    +0.000 A 
ATOM      6  C   UNL     1       5.308   7.315  15.621  0.00  0.00    +0.000 A 
ATOM      7  C   UNL     1       4.422   7.612  16.622  0.00  0.00    +0.000 A 
ATOM      8  N   UNL     1       3.968   6.429  17.143  0.00  0.00    +0.000 N 
ATOM      9  C   UNL     1       4.662   5.329  16.611  0.00  0.00    +0.000 A 
ENDROOT
BRANCH   1  13
ATOM     10  C   UNL     1       2.233   2.135  19.883  0.00  0.00    +0.000 A 
ATOM     11  C   UNL     1       3.526   2.550  20.180  0.00  0.00    +0.000 A 
ATOM     12  C   UNL     1       4.389   2.970  19.158  0.00  0.00    +0.000 A 
ATOM     13  C   UNL     1       3.924   3.169  17.858  0.00  0.00    +0.000 A 
ATOM     14  C   UNL     1       2.671   2.611  17.554  0.00  0.00    +0.000 A 
ATOM     15  C   UNL     1       1.845   2.074  18.551  0.00  0.00    +0.000 A 
BRANCH  10  17
ATOM     16  C   UNL     1       1.458   2.702  22.042  0.00  0.00    +0.000 C 
ATOM     17  O   UNL     1       1.463   1.780  20.957  0.00  0.00    +0.000 OA
ENDBRANCH  10  17
ENDBRANCH   1  13
BRANCH   8  18
ATOM     18  S   UNL     1       2.913   6.393  18.475  0.00  0.00    +0.000 S 
ATOM     19  O   UNL     1       1.798   5.564  18.055  0.00  0.00    +0.000 OA
ATOM     20  O   UNL     1       3.778   6.095  19.596  0.00  0.00    +0.000 OA
BRANCH  18  21
ATOM     21  C   UNL     1       2.205   7.979  18.845  0.00  0.00    +0.000 A 
ATOM     22  C   UNL     1       1.720   8.785  17.814  0.00  0.00    +0.000 A 
ATOM     23  C   UNL     1       0.807   9.802  18.118  0.00  0.00    +0.000 A 
ATOM     24  C   UNL     1       0.354   9.994  19.429  0.00  0.00    +0.000 A 
ATOM     25  C   UNL     1       0.875   9.212  20.458  0.00  0.00    +0.000 A 
ATOM     26  C   UNL     1       1.801   8.210  20.168  0.00  0.00    +0.000 A 
BRANCH  24  27
ATOM     27  O   UNL     1      -0.584  10.975  19.598  0.00  0.00    +0.000 OA
ATOM     28  C   UNL     1      -1.293  11.363  18.422  0.00  0.00    +0.000 C 
ENDBRANCH  24  27
ENDBRANCH  18  21
ENDBRANCH   8  18
TORSDOF 5
ENDMDL
MODEL 3
REMARK VINA RESULT:      -6.7      3.694      9.516
REMARK  Name = 
REMARK  7 active torsions:
REMARK  status: ('A' for Active; 'I' for Inactive)
REMARK    1  A    between atoms: C_1  and  O_2
REMARK    2  A    between atoms: O_2  and  C_3
REMARK    3  A    between atoms: C_6  and  C_7
REMARK    4  A    between atoms: N_14  and  S_15
REMARK    5  A    between atoms: S_15  and  C_18
REMARK    6  A    between atoms: C_21  and  O_22
REMARK    7  A    between atoms: O_22  and  C_23
REMARK                            x       y       z     vdW  Elec       q    Type
REMARK                         _______ _______ _______ _____ _____    ______ ____
ROOT
ATOM      1  C   UNL     1      -3.623  12.368  19.680  0.00  0.00    +0.000 A 
ATOM      2  C   UNL     1      -4.961  12.719  19.352  0.00  0.00    +0.000 A 
ATOM      3  C   UNL     1      -5.630  12.214  18.248  0.00  0.00    +0.000 A 
ATOM      4  C   UNL     1      -5.002  11.292  17.429  0.00  0.00    +0.000 A 
ATOM      5  C   UNL     1      -3.670  10.902  17.694  0.00  0.00    +0.000 A 
ATOM      6  C   UNL     1      -2.836   9.961  17.021  0.00  0.00    +0.000 A 
ATOM      7  C   UNL     1      -1.637   9.933  17.680  0.00  0.00    +0.000 A 
ATOM      8  N   UNL     1      -1.681  10.879  18.670  0.00  0.00    +0.000 N 
ATOM      9  C   UNL     1      -2.964  11.441  18.790  0.00  0.00    +0.000 A 
ENDROOT
BRANCH   1  13
ATOM     10  C   UNL     1      -1.505  14.008  23.044  0.00  0.00    +0.000 A 
ATOM     11  C   UNL     1      -2.427  12.983  23.225  0.00  0.00    +0.000 A 
ATOM     12  C   UNL     1      -3.239  12.562  22.162  0.00  0.00    +0.000 A 
ATOM     13  C   UNL     1      -3.015  13.014  20.862  0.00  0.00    +0.000 A 
ATOM     14  C   UNL     1      -2.188  14.142  20.729  0.00  0.00    +0.000 A 
ATOM     15  C   UNL     1      -1.462  14.652  21.814  0.00  0.00    +0.000 A 
BRANCH  10  17
ATOM     16  C   UNL     1      -1.301  15.267  25.033  0.00  0.00    +0.000 C 
ATOM     17  O   UNL     1      -0.740  14.315  24.135  0.00  0.00    +0.000 OA
ENDBRANCH  10  17
ENDBRANCH   1  13
BRANCH   8  18
ATOM     18  S   UNL     1      -0.398  11.079  19.765  0.00  0.00    +0.000 S 
ATOM     19  O   UNL     1       0.146  12.394  19.480  0.00  0.00    +0.000 OA
ATOM     20  O   UNL     1      -0.963  10.685  21.038  0.00  0.00    +0.000 OA
BRANCH  18  21
ATOM     21  C   UNL     1       0.941   9.946  19.483  0.00  0.00    +0.000 A 
ATOM     22  C   UNL     1       1.133   8.864  20.342  0.00  0.00    +0.000 A 
ATOM     23  C   UNL     1       1.886   7.770  19.900  0.00  0.00    +0.000 A 
ATOM     24  C   UNL     1       2.414   7.736  18.604  0.00  0.00    +0.000 A 
ATOM     25  C   UNL     1       2.252   8.839  17.767  0.00  0.00    +0.000 A 
ATOM     26  C   UNL     1       1.522   9.942  18.207  0.00  0.00    +0.000 A 
BRANCH  24  27
ATOM     27  O   UNL     1       3.078   6.591  18.260  0.00  0.00    +0.000 OA
ATOM     28  C   UNL     1       4.223   6.765  17.428  0.00  0.00    +0.000 C 
ENDBRANCH  24  27
ENDBRANCH  18  21
ENDBRANCH   8  18
TORSDOF 5
ENDMDL
MODEL 4
REMARK VINA RESULT:      -6.7      1.345      2.013
REMARK  Name = 
REMARK  7 active torsions:
REMARK  status: ('A' for Active; 'I' for Inactive)
REMARK    1  A    between atoms: C_1  and  O_2
REMARK    2  A    between atoms: O_2  and  C_3
REMARK    3  A    between atoms: C_6  and  C_7
REMARK    4  A    between atoms: N_14  and  S_15
REMARK    5  A    between atoms: S_15  and  C_18
REMARK    6  A    between atoms: C_21  and  O_22
REMARK    7  A    between atoms: O_22  and  C_23
REMARK                            x       y       z     vdW  Elec       q    Type
REMARK                         _______ _______ _______ _____ _____    ______ ____
ROOT
ATOM      1  C   UNL     1       3.793   3.291  18.144  0.00  0.00    +0.000 A 
ATOM      2  C   UNL     1       3.900   1.873  18.143  0.00  0.00    +0.000 A 
ATOM      3  C   UNL     1       3.078   1.048  18.895  0.00  0.00    +0.000 A 
ATOM      4  C   UNL     1       2.071   1.602  19.665  0.00  0.00    +0.000 A 
ATOM      5  C   UNL     1       1.910   3.006  19.716  0.00  0.00    +0.000 A 
ATOM      6  C   UNL     1       0.942   3.795  20.404  0.00  0.00    +0.000 A 
ATOM      7  C   UNL     1       1.207   5.108  20.117  0.00  0.00    +0.000 A 
ATOM      8  N   UNL     1       2.346   5.147  19.356  0.00  0.00    +0.000 N 
ATOM      9  C   UNL     1       2.767   3.858  18.989  0.00  0.00    +0.000 A 
ENDROOT
BRANCH   1  13
ATOM     10  C   UNL     1       6.740   5.129  15.610  0.00  0.00    +0.000 A 
ATOM     11  C   UNL     1       7.020   4.883  16.950  0.00  0.00    +0.000 A 
ATOM     12  C   UNL     1       6.010   4.441  17.816  0.00  0.00    +0.000 A 
ATOM     13  C   UNL     1       4.762   4.052  17.330  0.00  0.00    +0.000 A 
ATOM     14  C   UNL     1       4.458   4.442  16.015  0.00  0.00    +0.000 A 
ATOM     15  C   UNL     1       5.428   5.001  15.171  0.00  0.00    +0.000 A 
BRANCH  10  17
ATOM     16  C   UNL     1       7.727   5.183  13.464  0.00  0.00    +0.000 C 
ATOM     17  O   UNL     1       7.804   5.521  14.845  0.00  0.00    +0.000 OA
ENDBRANCH  10  17
ENDBRANCH   1  13
BRANCH   8  18
ATOM     18  S   UNL     1       2.942   6.608  18.726  0.00  0.00    +0.000 S 
ATOM     19  O   UNL     1       4.318   6.687  19.182  0.00  0.00    +0.000 OA
ATOM     20  O   UNL     1       2.542   6.578  17.336  0.00  0.00    +0.000 OA
BRANCH  18  21
ATOM     21  C   UNL     1       2.140   8.039  19.408  0.00  0.00    +0.000 A 
ATOM     22  C   UNL     1       1.643   9.031  18.562  0.00  0.00    +0.000 A 
ATOM     23  C   UNL     1       0.670   9.912  19.045  0.00  0.00    +0.000 A 
ATOM     24  C   UNL     1       0.169   9.788  20.347  0.00  0.00    +0.000 A 
ATOM     25  C   UNL     1       0.700   8.821  21.198  0.00  0.00    +0.000 A 
ATOM     26  C   UNL     1       1.686   7.952  20.732  0.00  0.00    +0.000 A 
BRANCH  24  27
ATOM     27  O   UNL     1      -0.825  10.663  20.689  0.00  0.00    +0.000 OA
ATOM     28  C   UNL     1      -0.669  11.315  21.949  0.00  0.00    +0.000 C 
ENDBRANCH  24  27
ENDBRANCH  18  21
ENDBRANCH   8  18
TORSDOF 5
ENDMDL
MODEL 5
REMARK VINA RESULT:      -6.7      0.534      1.055
REMARK  Name = 
REMARK  7 active torsions:
REMARK  status: ('A' for Active; 'I' for Inactive)
REMARK    1  A    between atoms: C_1  and  O_2
REMARK    2  A    between atoms: O_2  and  C_3
REMARK    3  A    between atoms: C_6  and  C_7
REMARK    4  A    between atoms: N_14  and  S_15
REMARK    5  A    between atoms: S_15  and  C_18
REMARK    6  A    between atoms: C_21  and  O_22
REMARK    7  A    between atoms: O_22  and  C_23
REMARK                            x       y       z     vdW  Elec       q    Type
REMARK                         _______ _______ _______ _____ _____    ______ ____
ROOT
ATOM      1  C   UNL     1       3.861   3.550  18.334  0.00  0.00    +0.000 A 
ATOM      2  C   UNL     1       4.020   2.144  18.205  0.00  0.00    +0.000 A 
ATOM      3  C   UNL     1       3.101   1.227  18.691  0.00  0.00    +0.000 A 
ATOM      4  C   UNL     1       1.944   1.674  19.303  0.00  0.00    +0.000 A 
ATOM      5  C   UNL     1       1.723   3.061  19.469  0.00  0.00    +0.000 A 
ATOM      6  C   UNL     1       0.611   3.754  20.033  0.00  0.00    +0.000 A 
ATOM      7  C   UNL     1       0.876   5.094  19.943  0.00  0.00    +0.000 A 
ATOM      8  N   UNL     1       2.138   5.237  19.428  0.00  0.00    +0.000 N 
ATOM      9  C   UNL     1       2.671   4.003  19.017  0.00  0.00    +0.000 A 
ENDROOT
BRANCH   1  13
ATOM     10  C   UNL     1       6.841   6.374  17.057  0.00  0.00    +0.000 A 
ATOM     11  C   UNL     1       5.709   6.147  16.282  0.00  0.00    +0.000 A 
ATOM     12  C   UNL     1       4.822   5.111  16.607  0.00  0.00    +0.000 A 
ATOM     13  C   UNL     1       4.938   4.413  17.809  0.00  0.00    +0.000 A 
ATOM     14  C   UNL     1       6.155   4.557  18.497  0.00  0.00    +0.000 A 
ATOM     15  C   UNL     1       7.110   5.508  18.109  0.00  0.00    +0.000 A 
BRANCH  10  17
ATOM     16  C   UNL     1       7.924   8.374  17.697  0.00  0.00    +0.000 C 
ATOM     17  O   UNL     1       7.619   7.432  16.674  0.00  0.00    +0.000 OA
ENDBRANCH  10  17
ENDBRANCH   1  13
BRANCH   8  18
ATOM     18  S   UNL     1       2.788   6.768  19.084  0.00  0.00    +0.000 S 
ATOM     19  O   UNL     1       4.125   6.751  19.648  0.00  0.00    +0.000 OA
ATOM     20  O   UNL     1       2.494   6.964  17.681  0.00  0.00    +0.000 OA
BRANCH  18  21
ATOM     21  C   UNL     1       1.943   8.087  19.922  0.00  0.00    +0.000 A 
ATOM     22  C   UNL     1       1.368   9.125  19.188  0.00  0.00    +0.000 A 
ATOM     23  C   UNL     1       0.371   9.908  19.783  0.00  0.00    +0.000 A 
ATOM     24  C   UNL     1      -0.075   9.638  21.083  0.00  0.00    +0.000 A 
ATOM     25  C   UNL     1       0.533   8.626  21.822  0.00  0.00    +0.000 A 
ATOM     26  C   UNL     1       1.542   7.855  21.246  0.00  0.00    +0.000 A 
BRANCH  24  27
ATOM     27  O   UNL     1      -1.097  10.426  21.537  0.00  0.00    +0.000 OA
ATOM     28  C   UNL     1      -0.723  11.461  22.446  0.00  0.00    +0.000 C 
ENDBRANCH  24  27
ENDBRANCH  18  21
ENDBRANCH   8  18
TORSDOF 5
ENDMDL
MODEL 6
REMARK VINA RESULT:      -6.7      1.746      2.412
REMARK  Name = 
REMARK  7 active torsions:
REMARK  status: ('A' for Active; 'I' for Inactive)
REMARK    1  A    between atoms: C_1  and  O_2
REMARK    2  A    between atoms: O_2  and  C_3
REMARK    3  A    between atoms: C_6  and  C_7
REMARK    4  A    between atoms: N_14  and  S_15
REMARK    5  A    between atoms: S_15  and  C_18
REMARK    6  A    between atoms: C_21  and  O_22
REMARK    7  A    between atoms: O_22  and  C_23
REMARK                            x       y       z     vdW  Elec       q    Type
REMARK                         _______ _______ _______ _____ _____    ______ ____
ROOT
ATOM      1  C   UNL     1       4.410   3.694  19.003  0.00  0.00    +0.000 A 
ATOM      2  C   UNL     1       4.847   2.423  19.464  0.00  0.00    +0.000 A 
ATOM      3  C   UNL     1       4.267   1.763  20.537  0.00  0.00    +0.000 A 
ATOM      4  C   UNL     1       3.184   2.329  21.185  0.00  0.00    +0.000 A 
ATOM      5  C   UNL     1       2.699   3.594  20.781  0.00  0.00    +0.000 A 
ATOM      6  C   UNL     1       1.595   4.354  21.268  0.00  0.00    +0.000 A 
ATOM      7  C   UNL     1       1.535   5.506  20.530  0.00  0.00    +0.000 A 
ATOM      8  N   UNL     1       2.607   5.512  19.677  0.00  0.00    +0.000 N 
ATOM      9  C   UNL     1       3.308   4.295  19.719  0.00  0.00    +0.000 A 
ENDROOT
BRANCH   1  13
ATOM     10  C   UNL     1       6.726   5.084  15.657  0.00  0.00    +0.000 A 
ATOM     11  C   UNL     1       7.174   5.290  16.957  0.00  0.00    +0.000 A 
ATOM     12  C   UNL     1       6.348   4.991  18.049  0.00  0.00    +0.000 A 
ATOM     13  C   UNL     1       5.145   4.305  17.877  0.00  0.00    +0.000 A 
ATOM     14  C   UNL     1       4.650   4.238  16.564  0.00  0.00    +0.000 A 
ATOM     15  C   UNL     1       5.420   4.649  15.467  0.00  0.00    +0.000 A 
BRANCH  10  17
ATOM     16  C   UNL     1       7.335   4.814  13.390  0.00  0.00    +0.000 C 
ATOM     17  O   UNL     1       7.624   5.374  14.668  0.00  0.00    +0.000 OA
ENDBRANCH  10  17
ENDBRANCH   1  13
BRANCH   8  18
ATOM     18  S   UNL     1       2.823   6.748  18.532  0.00  0.00    +0.000 S 
ATOM     19  O   UNL     1       4.237   7.070  18.578  0.00  0.00    +0.000 OA
ATOM     20  O   UNL     1       2.133   6.259  17.357  0.00  0.00    +0.000 OA
BRANCH  18  21
ATOM     21  C   UNL     1       1.985   8.253  18.966  0.00  0.00    +0.000 A 
ATOM     22  C   UNL     1       1.449   9.067  17.968  0.00  0.00    +0.000 A 
ATOM     23  C   UNL     1       0.454   9.993  18.306  0.00  0.00    +0.000 A 
ATOM     24  C   UNL     1      -0.028  10.084  19.617  0.00  0.00    +0.000 A 
ATOM     25  C   UNL     1       0.542   9.296  20.615  0.00  0.00    +0.000 A 
ATOM     26  C   UNL     1       1.548   8.387  20.292  0.00  0.00    +0.000 A 
BRANCH  24  27
ATOM     27  O   UNL     1      -1.044  10.978  19.817  0.00  0.00    +0.000 OA
ATOM     28  C   UNL     1      -1.518  11.648  18.650  0.00  0.00    +0.000 C 
ENDBRANCH  24  27
ENDBRANCH  18  21
ENDBRANCH   8  18
TORSDOF 5
ENDMDL
MODEL 7
REMARK VINA RESULT:      -6.4      3.506      9.336
REMARK  Name = 
REMARK  7 active torsions:
REMARK  status: ('A' for Active; 'I' for Inactive)
REMARK    1  A    between atoms: C_1  and  O_2
REMARK    2  A    between atoms: O_2  and  C_3
REMARK    3  A    between atoms: C_6  and  C_7
REMARK    4  A    between atoms: N_14  and  S_15
REMARK    5  A    between atoms: S_15  and  C_18
REMARK    6  A    between atoms: C_21  and  O_22
REMARK    7  A    between atoms: O_22  and  C_23
REMARK                            x       y       z     vdW  Elec       q    Type
REMARK                         _______ _______ _______ _____ _____    ______ ____
ROOT
ATOM      1  C   UNL     1      -3.088  12.315  19.892  0.00  0.00    +0.000 A 
ATOM      2  C   UNL     1      -4.417  12.761  19.654  0.00  0.00    +0.000 A 
ATOM      3  C   UNL     1      -5.182  12.332  18.581  0.00  0.00    +0.000 A 
ATOM      4  C   UNL     1      -4.668  11.395  17.703  0.00  0.00    +0.000 A 
ATOM      5  C   UNL     1      -3.351  10.911  17.877  0.00  0.00    +0.000 A 
ATOM      6  C   UNL     1      -2.623   9.937  17.131  0.00  0.00    +0.000 A 
ATOM      7  C   UNL     1      -1.391   9.812  17.716  0.00  0.00    +0.000 A 
ATOM      8  N   UNL     1      -1.314  10.731  18.729  0.00  0.00    +0.000 N 
ATOM      9  C   UNL     1      -2.547  11.372  18.941  0.00  0.00    +0.000 A 
ENDROOT
BRANCH   1  13
ATOM     10  C   UNL     1      -1.359  14.193  23.351  0.00  0.00    +0.000 A 
ATOM     11  C   UNL     1      -1.125  14.708  22.081  0.00  0.00    +0.000 A 
ATOM     12  C   UNL     1      -1.545  14.006  20.942  0.00  0.00    +0.000 A 
ATOM     13  C   UNL     1      -2.370  12.886  21.049  0.00  0.00    +0.000 A 
ATOM     14  C   UNL     1      -2.470  12.307  22.325  0.00  0.00    +0.000 A 
ATOM     15  C   UNL     1      -1.946  12.938  23.461  0.00  0.00    +0.000 A 
BRANCH  10  17
ATOM     16  C   UNL     1      -0.380  16.232  24.033  0.00  0.00    +0.000 C 
ATOM     17  O   UNL     1      -0.941  14.974  24.393  0.00  0.00    +0.000 OA
ENDBRANCH  10  17
ENDBRANCH   1  13
BRANCH   8  18
ATOM     18  S   UNL     1       0.042  10.816  19.749  0.00  0.00    +0.000 S 
ATOM     19  O   UNL     1       0.653  12.102  19.467  0.00  0.00    +0.000 OA
ATOM     20  O   UNL     1      -0.470  10.419  21.043  0.00  0.00    +0.000 OA
BRANCH  18  21
ATOM     21  C   UNL     1       1.286   9.610  19.354  0.00  0.00    +0.000 A 
ATOM     22  C   UNL     1       1.444   8.481  20.158  0.00  0.00    +0.000 A 
ATOM     23  C   UNL     1       2.099   7.360  19.634  0.00  0.00    +0.000 A 
ATOM     24  C   UNL     1       2.562   7.349  18.313  0.00  0.00    +0.000 A 
ATOM     25  C   UNL     1       2.437   8.496  17.532  0.00  0.00    +0.000 A 
ATOM     26  C   UNL     1       1.805   9.625  18.052  0.00  0.00    +0.000 A 
BRANCH  24  27
ATOM     27  O   UNL     1       3.130   6.178  17.890  0.00  0.00    +0.000 OA
ATOM     28  C   UNL     1       2.376   4.995  18.151  0.00  0.00    +0.000 C 
ENDBRANCH  24  27
ENDBRANCH  18  21
ENDBRANCH   8  18
TORSDOF 5
ENDMDL
MODEL 8
REMARK VINA RESULT:      -6.4      1.429      1.906
REMARK  Name = 
REMARK  7 active torsions:
REMARK  status: ('A' for Active; 'I' for Inactive)
REMARK    1  A    between atoms: C_1  and  O_2
REMARK    2  A    between atoms: O_2  and  C_3
REMARK    3  A    between atoms: C_6  and  C_7
REMARK    4  A    between atoms: N_14  and  S_15
REMARK    5  A    between atoms: S_15  and  C_18
REMARK    6  A    between atoms: C_21  and  O_22
REMARK    7  A    between atoms: O_22  and  C_23
REMARK                            x       y       z     vdW  Elec       q    Type
REMARK                         _______ _______ _______ _____ _____    ______ ____
ROOT
ATOM      1  C   UNL     1       3.837   3.253  18.170  0.00  0.00    +0.000 A 
ATOM      2  C   UNL     1       3.988   1.839  18.171  0.00  0.00    +0.000 A 
ATOM      3  C   UNL     1       3.198   0.992  18.934  0.00  0.00    +0.000 A 
ATOM      4  C   UNL     1       2.183   1.517  19.712  0.00  0.00    +0.000 A 
ATOM      5  C   UNL     1       1.980   2.915  19.761  0.00  0.00    +0.000 A 
ATOM      6  C   UNL     1       0.994   3.678  20.455  0.00  0.00    +0.000 A 
ATOM      7  C   UNL     1       1.217   4.996  20.162  0.00  0.00    +0.000 A 
ATOM      8  N   UNL     1       2.346   5.068  19.389  0.00  0.00    +0.000 N 
ATOM      9  C   UNL     1       2.803   3.791  19.022  0.00  0.00    +0.000 A 
ENDROOT
BRANCH   1  13
ATOM     10  C   UNL     1       6.729   5.171  15.631  0.00  0.00    +0.000 A 
ATOM     11  C   UNL     1       6.971   5.032  16.993  0.00  0.00    +0.000 A 
ATOM     12  C   UNL     1       5.965   4.562  17.849  0.00  0.00    +0.000 A 
ATOM     13  C   UNL     1       4.774   4.040  17.343  0.00  0.00    +0.000 A 
ATOM     14  C   UNL     1       4.495   4.322  15.995  0.00  0.00    +0.000 A 
ATOM     15  C   UNL     1       5.452   4.907  15.154  0.00  0.00    +0.000 A 
BRANCH  10  17
ATOM     16  C   UNL     1       7.755   5.245  13.504  0.00  0.00    +0.000 C 
ATOM     17  O   UNL     1       7.789   5.603  14.882  0.00  0.00    +0.000 OA
ENDBRANCH  10  17
ENDBRANCH   1  13
BRANCH   8  18
ATOM     18  S   UNL     1       2.892   6.544  18.750  0.00  0.00    +0.000 S 
ATOM     19  O   UNL     1       4.172   6.788  19.388  0.00  0.00    +0.000 OA
ATOM     20  O   UNL     1       2.704   6.397  17.323  0.00  0.00    +0.000 OA
BRANCH  18  21
ATOM     21  C   UNL     1       1.870   7.923  19.210  0.00  0.00    +0.000 A 
ATOM     22  C   UNL     1       1.574   8.154  20.554  0.00  0.00    +0.000 A 
ATOM     23  C   UNL     1       1.148   9.429  20.947  0.00  0.00    +0.000 A 
ATOM     24  C   UNL     1       1.051  10.472  20.019  0.00  0.00    +0.000 A 
ATOM     25  C   UNL     1       1.308  10.222  18.673  0.00  0.00    +0.000 A 
ATOM     26  C   UNL     1       1.713   8.950  18.269  0.00  0.00    +0.000 A 
BRANCH  24  27
ATOM     27  O   UNL     1       0.686  11.689  20.527  0.00  0.00    +0.000 OA
ATOM     28  C   UNL     1       1.571  12.770  20.240  0.00  0.00    +0.000 C 
ENDBRANCH  24  27
ENDBRANCH  18  21
ENDBRANCH   8  18
TORSDOF 5
ENDMDL
MODEL 9
REMARK VINA RESULT:      -6.3      7.037     10.838
REMARK  Name = 
REMARK  7 active torsions:
REMARK  status: ('A' for Active; 'I' for Inactive)
REMARK    1  A    between atoms: C_1  and  O_2
REMARK    2  A    between atoms: O_2  and  C_3
REMARK    3  A    between atoms: C_6  and  C_7
REMARK    4  A    between atoms: N_14  and  S_15
REMARK    5  A    between atoms: S_15  and  C_18
REMARK    6  A    between atoms: C_21  and  O_22
REMARK    7  A    between atoms: O_22  and  C_23
REMARK                            x       y       z     vdW  Elec       q    Type
REMARK                         _______ _______ _______ _____ _____    ______ ____
ROOT
ATOM      1  C   UNL     1      10.704  15.200  18.956  0.00  0.00    +0.000 A 
ATOM      2  C   UNL     1      12.033  15.701  18.906  0.00  0.00    +0.000 A 
ATOM      3  C   UNL     1      12.333  17.051  18.801  0.00  0.00    +0.000 A 
ATOM      4  C   UNL     1      11.309  17.981  18.780  0.00  0.00    +0.000 A 
ATOM      5  C   UNL     1       9.963  17.552  18.823  0.00  0.00    +0.000 A 
ATOM      6  C   UNL     1       8.756  18.312  18.844  0.00  0.00    +0.000 A 
ATOM      7  C   UNL     1       7.716  17.424  18.904  0.00  0.00    +0.000 A 
ATOM      8  N   UNL     1       8.240  16.160  18.833  0.00  0.00    +0.000 N 
ATOM      9  C   UNL     1       9.644  16.179  18.887  0.00  0.00    +0.000 A 
ENDROOT
BRANCH   1  13
ATOM     10  C   UNL     1       9.762  11.009  19.131  0.00  0.00    +0.000 A 
ATOM     11  C   UNL     1      10.029  11.719  20.296  0.00  0.00    +0.000 A 
ATOM     12  C   UNL     1      10.498  13.038  20.232  0.00  0.00    +0.000 A 
ATOM     13  C   UNL     1      10.526  13.736  19.024  0.00  0.00    +0.000 A 
ATOM     14  C   UNL     1      10.394  12.964  17.857  0.00  0.00    +0.000 A 
ATOM     15  C   UNL     1      10.043  11.608  17.909  0.00  0.00    +0.000 A 
BRANCH  10  17
ATOM     16  C   UNL     1       8.464   9.243  18.247  0.00  0.00    +0.000 C 
ATOM     17  O   UNL     1       9.274   9.743  19.307  0.00  0.00    +0.000 OA
ENDBRANCH  10  17
ENDBRANCH   1  13
BRANCH   8  18
ATOM     18  S   UNL     1       7.255  14.782  18.969  0.00  0.00    +0.000 S 
ATOM     19  O   UNL     1       7.485  14.027  17.750  0.00  0.00    +0.000 OA
ATOM     20  O   UNL     1       7.528  14.289  20.301  0.00  0.00    +0.000 OA
BRANCH  18  21
ATOM     21  C   UNL     1       5.520  15.163  18.963  0.00  0.00    +0.000 A 
ATOM     22  C   UNL     1       4.819  15.207  17.757  0.00  0.00    +0.000 A 
ATOM     23  C   UNL     1       3.424  15.085  17.776  0.00  0.00    +0.000 A 
ATOM     24  C   UNL     1       2.736  14.884  18.979  0.00  0.00    +0.000 A 
ATOM     25  C   UNL     1       3.440  14.882  20.182  0.00  0.00    +0.000 A 
ATOM     26  C   UNL     1       4.827  15.026  20.174  0.00  0.00    +0.000 A 
BRANCH  24  27
ATOM     27  O   UNL     1       1.383  14.714  18.870  0.00  0.00    +0.000 OA
ATOM     28  C   UNL     1       0.946  13.383  18.604  0.00  0.00    +0.000 C 
ENDBRANCH  24  27
ENDBRANCH  18  21
ENDBRANCH   8  18
TORSDOF 5
ENDMDL
