MODEL 1
REMARK VINA RESULT:      -7.4      0.000      0.000
REMARK  Name = 
REMARK  6 active torsions:
REMARK  status: ('A' for Active; 'I' for Inactive)
REMARK    1  A    between atoms: C_2  and  C_4
REMARK    2  A    between atoms: C_4  and  C_5
REMARK    3  A    between atoms: C_5  and  O_6
REMARK    4  A    between atoms: C_5  and  C_7
REMARK    5  A    between atoms: C_5  and  C_17
REMARK    6  A    between atoms: C_8  and  C_9
REMARK                            x       y       z     vdW  Elec       q    Type
REMARK                         _______ _______ _______ _____ _____    ______ ____
ROOT
ATOM      1  C   UNL     1       5.758   4.842  17.655  0.00  0.00    +0.000 C 
ENDROOT
BRANCH   1   2
ATOM      2  C   UNL     1       5.398   4.240  16.241  0.00  0.00    +0.000 C 
ATOM      3  F   UNL     1       4.252   3.523  16.263  0.00  0.00    +0.000 F 
ATOM      4  F   UNL     1       5.250   5.211  15.311  0.00  0.00    +0.000 F 
ATOM      5  F   UNL     1       6.366   3.404  15.791  0.00  0.00    +0.000 F 
ENDBRANCH   1   2
BRANCH   1   6
ATOM      6  O   UNL     1       5.608   3.860  18.716  0.00  0.00    +0.000 OA
ATOM      7  H   UNL     1       4.944   4.206  19.341  0.00  0.00    +0.000 HD
ENDBRANCH   1   6
BRANCH   1   8
ATOM      8  C   UNL     1       4.859   6.031  18.005  0.00  0.00    +0.000 C 
ATOM      9  C   UNL     1       3.533   6.002  18.243  0.00  0.00    +0.000 C 
BRANCH   9  10
ATOM     10  C   UNL     1       2.721   7.185  18.558  0.00  0.00    +0.000 A 
ATOM     11  C   UNL     1       2.482   8.201  17.625  0.00  0.00    +0.000 A 
ATOM     12  C   UNL     1       1.727   9.325  17.972  0.00  0.00    +0.000 A 
ATOM     13  C   UNL     1       1.211   9.454  19.264  0.00  0.00    +0.000 A 
ATOM     14 CL   UNL     1       0.285  10.866  19.622  0.00  0.00    +0.000 Cl
ATOM     15  C   UNL     1       1.461   8.457  20.210  0.00  0.00    +0.000 A 
ATOM     16 CL   UNL     1       0.874   8.555  21.834  0.00  0.00    +0.000 Cl
ATOM     17  C   UNL     1       2.217   7.331  19.858  0.00  0.00    +0.000 A 
ENDBRANCH   9  10
ENDBRANCH   1   8
BRANCH   1  18
ATOM     18  C   UNL     1       7.223   5.321  17.685  0.00  0.00    +0.000 C 
BRANCH  18  20
ATOM     19  N   UNL     1       8.352   7.119  18.913  0.00  0.00    +0.000 N 
ATOM     20  C   UNL     1       7.662   5.947  18.993  0.00  0.00    +0.000 C 
ATOM     21  O   UNL     1       7.500   5.388  20.072  0.00  0.00    +0.000 OA
ATOM     22  H   UNL     1       8.627   7.563  19.779  0.00  0.00    +0.000 HD
ATOM     23  H   UNL     1       8.418   7.661  18.056  0.00  0.00    +0.000 HD
ENDBRANCH  18  20
ENDBRANCH   1  18
TORSDOF 6
ENDMDL
MODEL 2
REMARK VINA RESULT:      -7.3      5.433      6.844
REMARK  Name = 
REMARK  6 active torsions:
REMARK  status: ('A' for Active; 'I' for Inactive)
REMARK    1  A    between atoms: C_2  and  C_4
REMARK    2  A    between atoms: C_4  and  C_5
REMARK    3  A    between atoms: C_5  and  O_6
REMARK    4  A    between atoms: C_5  and  C_7
REMARK    5  A    between atoms: C_5  and  C_17
REMARK    6  A    between atoms: C_8  and  C_9
REMARK                            x       y       z     vdW  Elec       q    Type
REMARK                         _______ _______ _______ _____ _____    ______ ____
ROOT
ATOM      1  C   UNL     1       7.355   6.742  17.722  0.00  0.00    +0.000 C 
ENDROOT
BRANCH   1   2
ATOM      2  C   UNL     1       7.411   5.479  18.665  0.00  0.00    +0.000 C 
ATOM      3  F   UNL     1       7.461   4.319  17.971  0.00  0.00    +0.000 F 
ATOM      4  F   UNL     1       8.493   5.511  19.476  0.00  0.00    +0.000 F 
ATOM      5  F   UNL     1       6.318   5.401  19.464  0.00  0.00    +0.000 F 
ENDBRANCH   1   2
BRANCH   1   6
ATOM      6  O   UNL     1       7.847   6.444  16.386  0.00  0.00    +0.000 OA
ATOM      7  H   UNL     1       7.745   7.252  15.851  0.00  0.00    +0.000 HD
ENDBRANCH   1   6
BRANCH   1   8
ATOM      8  C   UNL     1       8.205   7.892  18.272  0.00  0.00    +0.000 C 
ATOM      9  C   UNL     1       8.131   9.192  17.925  0.00  0.00    +0.000 C 
BRANCH   9  10
ATOM     10  C   UNL     1       8.990  10.248  18.478  0.00  0.00    +0.000 A 
ATOM     11  C   UNL     1       9.242  10.368  19.849  0.00  0.00    +0.000 A 
ATOM     12  C   UNL     1      10.043  11.403  20.340  0.00  0.00    +0.000 A 
ATOM     13  C   UNL     1      10.592  12.343  19.463  0.00  0.00    +0.000 A 
ATOM     14 CL   UNL     1      11.574  13.592  20.137  0.00  0.00    +0.000 Cl
ATOM     15  C   UNL     1      10.330  12.246  18.095  0.00  0.00    +0.000 A 
ATOM     16 CL   UNL     1      10.957  13.381  16.950  0.00  0.00    +0.000 Cl
ATOM     17  C   UNL     1       9.528  11.205  17.607  0.00  0.00    +0.000 A 
ENDBRANCH   9  10
ENDBRANCH   1   8
BRANCH   1  18
ATOM     18  C   UNL     1       5.906   7.245  17.569  0.00  0.00    +0.000 C 
BRANCH  18  20
ATOM     19  N   UNL     1       5.207   6.729  15.277  0.00  0.00    +0.000 N 
ATOM     20  C   UNL     1       5.054   6.451  16.600  0.00  0.00    +0.000 C 
ATOM     21  O   UNL     1       4.192   5.665  16.981  0.00  0.00    +0.000 OA
ATOM     22  H   UNL     1       4.666   6.187  14.616  0.00  0.00    +0.000 HD
ATOM     23  H   UNL     1       5.972   7.293  14.917  0.00  0.00    +0.000 HD
ENDBRANCH  18  20
ENDBRANCH   1  18
TORSDOF 6
ENDMDL
MODEL 3
REMARK VINA RESULT:      -7.3      1.197      1.257
REMARK  Name = 
REMARK  6 active torsions:
REMARK  status: ('A' for Active; 'I' for Inactive)
REMARK    1  A    between atoms: C_2  and  C_4
REMARK    2  A    between atoms: C_4  and  C_5
REMARK    3  A    between atoms: C_5  and  O_6
REMARK    4  A    between atoms: C_5  and  C_7
REMARK    5  A    between atoms: C_5  and  C_17
REMARK    6  A    between atoms: C_8  and  C_9
REMARK                            x       y       z     vdW  Elec       q    Type
REMARK                         _______ _______ _______ _____ _____    ______ ____
ROOT
ATOM      1  C   UNL     1       5.512   5.851  17.241  0.00  0.00    +0.000 C 
ENDROOT
BRANCH   1   2
ATOM      2  C   UNL     1       5.484   5.646  15.677  0.00  0.00    +0.000 C 
ATOM      3  F   UNL     1       4.776   4.552  15.313  0.00  0.00    +0.000 F 
ATOM      4  F   UNL     1       4.936   6.710  15.046  0.00  0.00    +0.000 F 
ATOM      5  F   UNL     1       6.731   5.483  15.170  0.00  0.00    +0.000 F 
ENDBRANCH   1   2
BRANCH   1   6
ATOM      6  O   UNL     1       5.202   4.623  17.955  0.00  0.00    +0.000 OA
ATOM      7  H   UNL     1       5.650   4.667  18.820  0.00  0.00    +0.000 HD
ENDBRANCH   1   6
BRANCH   1   8
ATOM      8  C   UNL     1       4.494   6.905  17.689  0.00  0.00    +0.000 C 
ATOM      9  C   UNL     1       3.292   6.682  18.254  0.00  0.00    +0.000 C 
BRANCH   9  10
ATOM     10  C   UNL     1       2.351   7.740  18.645  0.00  0.00    +0.000 A 
ATOM     11  C   UNL     1       1.893   8.708  17.744  0.00  0.00    +0.000 A 
ATOM     12  C   UNL     1       1.019   9.716  18.162  0.00  0.00    +0.000 A 
ATOM     13  C   UNL     1       0.601   9.775  19.494  0.00  0.00    +0.000 A 
ATOM     14 CL   UNL     1      -0.482  11.044  19.939  0.00  0.00    +0.000 Cl
ATOM     15  C   UNL     1       1.067   8.827  20.407  0.00  0.00    +0.000 A 
ATOM     16 CL   UNL     1       0.610   8.847  22.075  0.00  0.00    +0.000 Cl
ATOM     17  C   UNL     1       1.942   7.818  19.984  0.00  0.00    +0.000 A 
ENDBRANCH   9  10
ENDBRANCH   1   8
BRANCH   1  18
ATOM     18  C   UNL     1       6.910   6.305  17.706  0.00  0.00    +0.000 C 
BRANCH  18  20
ATOM     19  N   UNL     1       8.195   4.218  17.752  0.00  0.00    +0.000 N 
ATOM     20  C   UNL     1       7.699   5.262  18.470  0.00  0.00    +0.000 C 
ATOM     21  O   UNL     1       7.807   5.290  19.692  0.00  0.00    +0.000 OA
ATOM     22  H   UNL     1       8.748   3.528  18.244  0.00  0.00    +0.000 HD
ATOM     23  H   UNL     1       8.215   4.208  16.736  0.00  0.00    +0.000 HD
ENDBRANCH  18  20
ENDBRANCH   1  18
TORSDOF 6
ENDMDL
MODEL 4
REMARK VINA RESULT:      -7.2      0.970      1.269
REMARK  Name = 
REMARK  6 active torsions:
REMARK  status: ('A' for Active; 'I' for Inactive)
REMARK    1  A    between atoms: C_2  and  C_4
REMARK    2  A    between atoms: C_4  and  C_5
REMARK    3  A    between atoms: C_5  and  O_6
REMARK    4  A    between atoms: C_5  and  C_7
REMARK    5  A    between atoms: C_5  and  C_17
REMARK    6  A    between atoms: C_8  and  C_9
REMARK                            x       y       z     vdW  Elec       q    Type
REMARK                         _______ _______ _______ _____ _____    ______ ____
ROOT
ATOM      1  C   UNL     1       5.197   4.817  17.773  0.00  0.00    +0.000 C 
ENDROOT
BRANCH   1   2
ATOM      2  C   UNL     1       4.821   4.177  16.382  0.00  0.00    +0.000 C 
ATOM      3  F   UNL     1       5.666   3.183  16.026  0.00  0.00    +0.000 F 
ATOM      4  F   UNL     1       3.571   3.659  16.394  0.00  0.00    +0.000 F 
ATOM      5  F   UNL     1       4.861   5.092  15.381  0.00  0.00    +0.000 F 
ENDBRANCH   1   2
BRANCH   1   6
ATOM      6  O   UNL     1       5.404   3.806  18.797  0.00  0.00    +0.000 OA
ATOM      7  H   UNL     1       6.299   3.440  18.668  0.00  0.00    +0.000 HD
ENDBRANCH   1   6
BRANCH   1   8
ATOM      8  C   UNL     1       4.096   5.755  18.277  0.00  0.00    +0.000 C 
ATOM      9  C   UNL     1       3.752   6.952  17.764  0.00  0.00    +0.000 C 
BRANCH   9  10
ATOM     10  C   UNL     1       2.694   7.815  18.306  0.00  0.00    +0.000 A 
ATOM     11  C   UNL     1       2.092   8.828  17.552  0.00  0.00    +0.000 A 
ATOM     12  C   UNL     1       1.108   9.647  18.114  0.00  0.00    +0.000 A 
ATOM     13  C   UNL     1       0.722   9.470  19.445  0.00  0.00    +0.000 A 
ATOM     14 CL   UNL     1      -0.502  10.513  20.072  0.00  0.00    +0.000 Cl
ATOM     15  C   UNL     1       1.330   8.475  20.214  0.00  0.00    +0.000 A 
ATOM     16 CL   UNL     1       0.920   8.208  21.873  0.00  0.00    +0.000 Cl
ATOM     17  C   UNL     1       2.315   7.655  19.647  0.00  0.00    +0.000 A 
ENDBRANCH   9  10
ENDBRANCH   1   8
BRANCH   1  18
ATOM     18  C   UNL     1       6.505   5.627  17.664  0.00  0.00    +0.000 C 
BRANCH  18  20
ATOM     19  N   UNL     1       8.083   5.499  19.536  0.00  0.00    +0.000 N 
ATOM     20  C   UNL     1       7.707   4.990  18.331  0.00  0.00    +0.000 C 
ATOM     21  O   UNL     1       8.378   4.125  17.778  0.00  0.00    +0.000 OA
ATOM     22  H   UNL     1       8.867   5.065  20.006  0.00  0.00    +0.000 HD
ATOM     23  H   UNL     1       7.502   6.139  20.069  0.00  0.00    +0.000 HD
ENDBRANCH  18  20
ENDBRANCH   1  18
TORSDOF 6
ENDMDL
MODEL 5
REMARK VINA RESULT:      -7.2      2.403      2.784
REMARK  Name = 
REMARK  6 active torsions:
REMARK  status: ('A' for Active; 'I' for Inactive)
REMARK    1  A    between atoms: C_2  and  C_4
REMARK    2  A    between atoms: C_4  and  C_5
REMARK    3  A    between atoms: C_5  and  O_6
REMARK    4  A    between atoms: C_5  and  C_7
REMARK    5  A    between atoms: C_5  and  C_17
REMARK    6  A    between atoms: C_8  and  C_9
REMARK                            x       y       z     vdW  Elec       q    Type
REMARK                         _______ _______ _______ _____ _____    ______ ____
ROOT
ATOM      1  C   UNL     1       6.086   5.960  16.722  0.00  0.00    +0.000 C 
ENDROOT
BRANCH   1   2
ATOM      2  C   UNL     1       6.324   4.709  17.654  0.00  0.00    +0.000 C 
ATOM      3  F   UNL     1       6.209   5.016  18.966  0.00  0.00    +0.000 F 
ATOM      4  F   UNL     1       5.440   3.719  17.392  0.00  0.00    +0.000 F 
ATOM      5  F   UNL     1       7.564   4.188  17.487  0.00  0.00    +0.000 F 
ENDBRANCH   1   2
BRANCH   1   6
ATOM      6  O   UNL     1       7.306   6.724  16.518  0.00  0.00    +0.000 OA
ATOM      7  H   UNL     1       7.743   6.369  15.722  0.00  0.00    +0.000 HD
ENDBRANCH   1   6
BRANCH   1   8
ATOM      8  C   UNL     1       5.047   6.915  17.316  0.00  0.00    +0.000 C 
ATOM      9  C   UNL     1       3.785   6.615  17.681  0.00  0.00    +0.000 C 
BRANCH   9  10
ATOM     10  C   UNL     1       2.828   7.584  18.230  0.00  0.00    +0.000 A 
ATOM     11  C   UNL     1       2.389   8.698  17.505  0.00  0.00    +0.000 A 
ATOM     12  C   UNL     1       1.498   9.614  18.073  0.00  0.00    +0.000 A 
ATOM     13  C   UNL     1       1.044   9.432  19.382  0.00  0.00    +0.000 A 
ATOM     14 CL   UNL     1      -0.058  10.600  20.018  0.00  0.00    +0.000 Cl
ATOM     15  C   UNL     1       1.491   8.336  20.122  0.00  0.00    +0.000 A 
ATOM     16 CL   UNL     1       0.989   8.055  21.754  0.00  0.00    +0.000 Cl
ATOM     17  C   UNL     1       2.382   7.420  19.549  0.00  0.00    +0.000 A 
ENDBRANCH   9  10
ENDBRANCH   1   8
BRANCH   1  18
ATOM     18  C   UNL     1       5.592   5.516  15.330  0.00  0.00    +0.000 C 
BRANCH  18  20
ATOM     19  N   UNL     1       6.387   3.568  14.072  0.00  0.00    +0.000 N 
ATOM     20  C   UNL     1       6.640   4.847  14.465  0.00  0.00    +0.000 C 
ATOM     21  O   UNL     1       7.713   5.382  14.206  0.00  0.00    +0.000 OA
ATOM     22  H   UNL     1       7.065   3.118  13.471  0.00  0.00    +0.000 HD
ATOM     23  H   UNL     1       5.477   3.129  14.178  0.00  0.00    +0.000 HD
ENDBRANCH  18  20
ENDBRANCH   1  18
TORSDOF 6
ENDMDL
MODEL 6
REMARK VINA RESULT:      -7.2      1.781      2.270
REMARK  Name = 
REMARK  6 active torsions:
REMARK  status: ('A' for Active; 'I' for Inactive)
REMARK    1  A    between atoms: C_2  and  C_4
REMARK    2  A    between atoms: C_4  and  C_5
REMARK    3  A    between atoms: C_5  and  O_6
REMARK    4  A    between atoms: C_5  and  C_7
REMARK    5  A    between atoms: C_5  and  C_17
REMARK    6  A    between atoms: C_8  and  C_9
REMARK                            x       y       z     vdW  Elec       q    Type
REMARK                         _______ _______ _______ _____ _____    ______ ____
ROOT
ATOM      1  C   UNL     1       4.836   4.058  18.433  0.00  0.00    +0.000 C 
ENDROOT
BRANCH   1   2
ATOM      2  C   UNL     1       3.969   2.763  18.681  0.00  0.00    +0.000 C 
ATOM      3  F   UNL     1       4.575   1.890  19.517  0.00  0.00    +0.000 F 
ATOM      4  F   UNL     1       2.765   3.066  19.218  0.00  0.00    +0.000 F 
ATOM      5  F   UNL     1       3.731   2.091  17.528  0.00  0.00    +0.000 F 
ENDBRANCH   1   2
BRANCH   1   6
ATOM      6  O   UNL     1       6.063   4.047  19.211  0.00  0.00    +0.000 OA
ATOM      7  H   UNL     1       6.322   3.115  19.335  0.00  0.00    +0.000 HD
ENDBRANCH   1   6
BRANCH   1   8
ATOM      8  C   UNL     1       4.069   5.329  18.813  0.00  0.00    +0.000 C 
ATOM      9  C   UNL     1       3.205   6.016  18.040  0.00  0.00    +0.000 C 
BRANCH   9  10
ATOM     10  C   UNL     1       2.514   7.243  18.458  0.00  0.00    +0.000 A 
ATOM     11  C   UNL     1       2.286   8.311  17.584  0.00  0.00    +0.000 A 
ATOM     12  C   UNL     1       1.648   9.473  18.027  0.00  0.00    +0.000 A 
ATOM     13  C   UNL     1       1.242   9.587  19.359  0.00  0.00    +0.000 A 
ATOM     14 CL   UNL     1       0.457  11.049  19.837  0.00  0.00    +0.000 Cl
ATOM     15  C   UNL     1       1.483   8.536  20.247  0.00  0.00    +0.000 A 
ATOM     16 CL   UNL     1       1.027   8.611  21.914  0.00  0.00    +0.000 Cl
ATOM     17  C   UNL     1       2.120   7.372  19.798  0.00  0.00    +0.000 A 
ENDBRANCH   9  10
ENDBRANCH   1   8
BRANCH   1  18
ATOM     18  C   UNL     1       5.241   4.166  16.949  0.00  0.00    +0.000 C 
BRANCH  18  20
ATOM     19  N   UNL     1       6.397   6.165  16.125  0.00  0.00    +0.000 N 
ATOM     20  C   UNL     1       6.521   4.933  16.692  0.00  0.00    +0.000 C 
ATOM     21  O   UNL     1       7.628   4.441  16.886  0.00  0.00    +0.000 OA
ATOM     22  H   UNL     1       7.242   6.701  15.974  0.00  0.00    +0.000 HD
ATOM     23  H   UNL     1       5.506   6.646  16.043  0.00  0.00    +0.000 HD
ENDBRANCH  18  20
ENDBRANCH   1  18
TORSDOF 6
ENDMDL
MODEL 7
REMARK VINA RESULT:      -7.1      2.718      3.121
REMARK  Name = 
REMARK  6 active torsions:
REMARK  status: ('A' for Active; 'I' for Inactive)
REMARK    1  A    between atoms: C_2  and  C_4
REMARK    2  A    between atoms: C_4  and  C_5
REMARK    3  A    between atoms: C_5  and  O_6
REMARK    4  A    between atoms: C_5  and  C_7
REMARK    5  A    between atoms: C_5  and  C_17
REMARK    6  A    between atoms: C_8  and  C_9
REMARK                            x       y       z     vdW  Elec       q    Type
REMARK                         _______ _______ _______ _____ _____    ______ ____
ROOT
ATOM      1  C   UNL     1       3.457   4.070  17.542  0.00  0.00    +0.000 C 
ENDROOT
BRANCH   1   2
ATOM      2  C   UNL     1       4.804   4.429  16.803  0.00  0.00    +0.000 C 
ATOM      3  F   UNL     1       5.308   3.381  16.112  0.00  0.00    +0.000 F 
ATOM      4  F   UNL     1       4.634   5.447  15.927  0.00  0.00    +0.000 F 
ATOM      5  F   UNL     1       5.768   4.814  17.676  0.00  0.00    +0.000 F 
ENDBRANCH   1   2
BRANCH   1   6
ATOM      6  O   UNL     1       2.594   3.235  16.722  0.00  0.00    +0.000 OA
ATOM      7  H   UNL     1       2.771   3.460  15.790  0.00  0.00    +0.000 HD
ENDBRANCH   1   6
BRANCH   1   8
ATOM      8  C   UNL     1       2.661   5.328  17.904  0.00  0.00    +0.000 C 
ATOM      9  C   UNL     1       3.141   6.460  18.454  0.00  0.00    +0.000 C 
BRANCH   9  10
ATOM     10  C   UNL     1       2.319   7.629  18.795  0.00  0.00    +0.000 A 
ATOM     11  C   UNL     1       2.003   8.622  17.861  0.00  0.00    +0.000 A 
ATOM     12  C   UNL     1       1.241   9.734  18.231  0.00  0.00    +0.000 A 
ATOM     13  C   UNL     1       0.796   9.874  19.549  0.00  0.00    +0.000 A 
ATOM     14 CL   UNL     1      -0.143  11.270  19.935  0.00  0.00    +0.000 Cl
ATOM     15  C   UNL     1       1.122   8.899  20.495  0.00  0.00    +0.000 A 
ATOM     16 CL   UNL     1       0.624   9.012  22.147  0.00  0.00    +0.000 Cl
ATOM     17  C   UNL     1       1.884   7.785  20.119  0.00  0.00    +0.000 A 
ENDBRANCH   9  10
ENDBRANCH   1   8
BRANCH   1  18
ATOM     18  C   UNL     1       3.740   3.290  18.841  0.00  0.00    +0.000 C 
BRANCH  18  20
ATOM     19  N   UNL     1       3.915   0.885  18.396  0.00  0.00    +0.000 N 
ATOM     20  C   UNL     1       3.149   1.896  18.891  0.00  0.00    +0.000 C 
ATOM     21  O   UNL     1       1.999   1.687  19.263  0.00  0.00    +0.000 OA
ATOM     22  H   UNL     1       3.545  -0.055  18.448  0.00  0.00    +0.000 HD
ATOM     23  H   UNL     1       4.900   0.999  18.175  0.00  0.00    +0.000 HD
ENDBRANCH  18  20
ENDBRANCH   1  18
TORSDOF 6
ENDMDL
MODEL 8
REMARK VINA RESULT:      -7.0      0.771      1.780
REMARK  Name = 
REMARK  6 active torsions:
REMARK  status: ('A' for Active; 'I' for Inactive)
REMARK    1  A    between atoms: C_2  and  C_4
REMARK    2  A    between atoms: C_4  and  C_5
REMARK    3  A    between atoms: C_5  and  O_6
REMARK    4  A    between atoms: C_5  and  C_7
REMARK    5  A    between atoms: C_5  and  C_17
REMARK    6  A    between atoms: C_8  and  C_9
REMARK                            x       y       z     vdW  Elec       q    Type
REMARK                         _______ _______ _______ _____ _____    ______ ____
ROOT
ATOM      1  C   UNL     1       5.813   4.658  17.775  0.00  0.00    +0.000 C 
ENDROOT
BRANCH   1   2
ATOM      2  C   UNL     1       5.350   4.253  16.323  0.00  0.00    +0.000 C 
ATOM      3  F   UNL     1       5.049   5.327  15.559  0.00  0.00    +0.000 F 
ATOM      4  F   UNL     1       6.307   3.551  15.673  0.00  0.00    +0.000 F 
ATOM      5  F   UNL     1       4.238   3.476  16.350  0.00  0.00    +0.000 F 
ENDBRANCH   1   2
BRANCH   1   6
ATOM      6  O   UNL     1       5.803   3.524  18.684  0.00  0.00    +0.000 OA
ATOM      7  H   UNL     1       6.501   3.675  19.348  0.00  0.00    +0.000 HD
ENDBRANCH   1   6
BRANCH   1   8
ATOM      8  C   UNL     1       4.900   5.731  18.378  0.00  0.00    +0.000 C 
ATOM      9  C   UNL     1       3.570   5.646  18.574  0.00  0.00    +0.000 C 
BRANCH   9  10
ATOM     10  C   UNL     1       2.745   6.721  19.142  0.00  0.00    +0.000 A 
ATOM     11  C   UNL     1       2.114   6.605  20.385  0.00  0.00    +0.000 A 
ATOM     12  C   UNL     1       1.314   7.640  20.879  0.00  0.00    +0.000 A 
ATOM     13  C   UNL     1       1.125   8.802  20.126  0.00  0.00    +0.000 A 
ATOM     14 CL   UNL     1       0.128  10.041  20.799  0.00  0.00    +0.000 Cl
ATOM     15  C   UNL     1       1.733   8.921  18.875  0.00  0.00    +0.000 A 
ATOM     16 CL   UNL     1       1.530  10.319  17.877  0.00  0.00    +0.000 Cl
ATOM     17  C   UNL     1       2.535   7.882  18.384  0.00  0.00    +0.000 A 
ENDBRANCH   9  10
ENDBRANCH   1   8
BRANCH   1  18
ATOM     18  C   UNL     1       7.253   5.209  17.754  0.00  0.00    +0.000 C 
BRANCH  18  20
ATOM     19  N   UNL     1       8.330   7.084  18.909  0.00  0.00    +0.000 N 
ATOM     20  C   UNL     1       7.696   5.886  19.035  0.00  0.00    +0.000 C 
ATOM     21  O   UNL     1       7.585   5.346  20.131  0.00  0.00    +0.000 OA
ATOM     22  H   UNL     1       8.606   7.561  19.758  0.00  0.00    +0.000 HD
ATOM     23  H   UNL     1       8.351   7.607  18.039  0.00  0.00    +0.000 HD
ENDBRANCH  18  20
ENDBRANCH   1  18
TORSDOF 6
ENDMDL
MODEL 9
REMARK VINA RESULT:      -7.0      1.616      1.945
REMARK  Name = 
REMARK  6 active torsions:
REMARK  status: ('A' for Active; 'I' for Inactive)
REMARK    1  A    between atoms: C_2  and  C_4
REMARK    2  A    between atoms: C_4  and  C_5
REMARK    3  A    between atoms: C_5  and  O_6
REMARK    4  A    between atoms: C_5  and  C_7
REMARK    5  A    between atoms: C_5  and  C_17
REMARK    6  A    between atoms: C_8  and  C_9
REMARK                            x       y       z     vdW  Elec       q    Type
REMARK                         _______ _______ _______ _____ _____    ______ ____
ROOT
ATOM      1  C   UNL     1       4.808   4.429  17.967  0.00  0.00    +0.000 C 
ENDROOT
BRANCH   1   2
ATOM      2  C   UNL     1       3.823   3.198  17.925  0.00  0.00    +0.000 C 
ATOM      3  F   UNL     1       3.428   2.811  19.159  0.00  0.00    +0.000 F 
ATOM      4  F   UNL     1       2.707   3.478  17.213  0.00  0.00    +0.000 F 
ATOM      5  F   UNL     1       4.400   2.114  17.349  0.00  0.00    +0.000 F 
ENDBRANCH   1   2
BRANCH   1   6
ATOM      6  O   UNL     1       5.699   4.372  19.114  0.00  0.00    +0.000 OA
ATOM      7  H   UNL     1       5.404   5.051  19.747  0.00  0.00    +0.000 HD
ENDBRANCH   1   6
BRANCH   1   8
ATOM      8  C   UNL     1       4.047   5.756  18.050  0.00  0.00    +0.000 C 
ATOM      9  C   UNL     1       3.111   6.098  18.956  0.00  0.00    +0.000 C 
BRANCH   9  10
ATOM     10  C   UNL     1       2.401   7.384  18.971  0.00  0.00    +0.000 A 
ATOM     11  C   UNL     1       2.360   8.231  17.857  0.00  0.00    +0.000 A 
ATOM     12  C   UNL     1       1.697   9.460  17.919  0.00  0.00    +0.000 A 
ATOM     13  C   UNL     1       1.078   9.866  19.104  0.00  0.00    +0.000 A 
ATOM     14 CL   UNL     1       0.276  11.394  19.109  0.00  0.00    +0.000 Cl
ATOM     15  C   UNL     1       1.131   9.039  20.229  0.00  0.00    +0.000 A 
ATOM     16 CL   UNL     1       0.406   9.481  21.736  0.00  0.00    +0.000 Cl
ATOM     17  C   UNL     1       1.794   7.806  20.162  0.00  0.00    +0.000 A 
ENDBRANCH   9  10
ENDBRANCH   1   8
BRANCH   1  18
ATOM     18  C   UNL     1       5.694   4.461  16.706  0.00  0.00    +0.000 C 
BRANCH  18  20
ATOM     19  N   UNL     1       7.991   4.219  17.528  0.00  0.00    +0.000 N 
ATOM     20  C   UNL     1       7.083   5.028  16.916  0.00  0.00    +0.000 C 
ATOM     21  O   UNL     1       7.362   6.191  16.644  0.00  0.00    +0.000 OA
ATOM     22  H   UNL     1       8.931   4.574  17.650  0.00  0.00    +0.000 HD
ATOM     23  H   UNL     1       7.833   3.227  17.676  0.00  0.00    +0.000 HD
ENDBRANCH  18  20
ENDBRANCH   1  18
TORSDOF 6
ENDMDL
