MODEL 1
REMARK VINA RESULT:      -7.9      0.000      0.000
REMARK  Name = 
REMARK  3 active torsions:
REMARK  status: ('A' for Active; 'I' for Inactive)
REMARK    1  A    between atoms: C_2  and  C_16
REMARK    2  A    between atoms: N_3  and  C_4
REMARK    3  A    between atoms: C_7  and  N_8
REMARK                            x       y       z     vdW  Elec       q    Type
REMARK                         _______ _______ _______ _____ _____    ______ ____
ROOT
ATOM      1  O   UNL     1       1.703   5.812  20.716  0.00  0.00    +0.000 OA
ATOM      2  C   UNL     1       2.292   6.346  19.785  0.00  0.00    +0.000 C 
ATOM      3  N   UNL     1       2.245   7.668  19.401  0.00  0.00    +0.000 N 
ATOM      4  H   UNL     1       2.743   7.936  18.564  0.00  0.00    +0.000 HD
ENDROOT
BRANCH   2   5
ATOM      5  C   UNL     1       3.087   5.452  18.928  0.00  0.00    +0.000 A 
ATOM      6  C   UNL     1       2.507   4.552  18.030  0.00  0.00    +0.000 A 
ATOM      7  C   UNL     1       3.322   3.914  17.088  0.00  0.00    +0.000 A 
ATOM      8  C   UNL     1       4.694   4.189  17.048  0.00  0.00    +0.000 A 
ATOM      9  C   UNL     1       5.264   5.025  18.009  0.00  0.00    +0.000 A 
ATOM     10  C   UNL     1       4.469   5.655  18.948  0.00  0.00    +0.000 A 
ATOM     11  O   UNL     1       6.602   5.296  18.054  0.00  0.00    +0.000 OA
ATOM     12  C   UNL     1       7.100   5.345  16.721  0.00  0.00    +0.000 C 
ATOM     13  C   UNL     1       6.776   4.066  15.958  0.00  0.00    +0.000 C 
ATOM     14  O   UNL     1       5.401   3.659  16.007  0.00  0.00    +0.000 OA
ENDBRANCH   2   5
BRANCH   3  15
ATOM     15  C   UNL     1       1.397   8.637  19.970  0.00  0.00    +0.000 A 
ATOM     16  C   UNL     1       0.999   8.620  21.313  0.00  0.00    +0.000 A 
ATOM     17  C   UNL     1       0.111   9.575  21.806  0.00  0.00    +0.000 A 
ATOM     18  C   UNL     1      -0.394  10.591  20.996  0.00  0.00    +0.000 A 
ATOM     19  C   UNL     1       0.021  10.608  19.659  0.00  0.00    +0.000 A 
ATOM     20  C   UNL     1       0.908   9.650  19.150  0.00  0.00    +0.000 A 
BRANCH  18  21
ATOM     21  N   UNL     1      -1.221  11.557  21.529  0.00  0.00    +0.000 N 
ATOM     22  C   UNL     1      -1.244  11.823  22.961  0.00  0.00    +0.000 C 
ATOM     23  C   UNL     1      -2.704  11.894  23.408  0.00  0.00    +0.000 C 
ATOM     24  C   UNL     1      -3.484  12.924  22.595  0.00  0.00    +0.000 C 
ATOM     25  C   UNL     1      -3.345  12.678  21.092  0.00  0.00    +0.000 C 
ATOM     26  C   UNL     1      -1.883  12.541  20.671  0.00  0.00    +0.000 C 
ENDBRANCH  18  21
ENDBRANCH   3  15
TORSDOF 3
ENDMDL
MODEL 2
REMARK VINA RESULT:      -7.9      0.671      1.169
REMARK  Name = 
REMARK  3 active torsions:
REMARK  status: ('A' for Active; 'I' for Inactive)
REMARK    1  A    between atoms: C_2  and  C_16
REMARK    2  A    between atoms: N_3  and  C_4
REMARK    3  A    between atoms: C_7  and  N_8
REMARK                            x       y       z     vdW  Elec       q    Type
REMARK                         _______ _______ _______ _____ _____    ______ ____
ROOT
ATOM      1  O   UNL     1       1.305   5.959  20.551  0.00  0.00    +0.000 OA
ATOM      2  C   UNL     1       2.117   6.561  19.861  0.00  0.00    +0.000 C 
ATOM      3  N   UNL     1       2.205   7.919  19.646  0.00  0.00    +0.000 N 
ATOM      4  H   UNL     1       2.898   8.251  18.991  0.00  0.00    +0.000 HD
ENDROOT
BRANCH   2   5
ATOM      5  C   UNL     1       3.069   5.725  19.111  0.00  0.00    +0.000 A 
ATOM      6  C   UNL     1       2.741   5.105  17.902  0.00  0.00    +0.000 A 
ATOM      7  C   UNL     1       3.763   4.532  17.137  0.00  0.00    +0.000 A 
ATOM      8  C   UNL     1       5.089   4.591  17.581  0.00  0.00    +0.000 A 
ATOM      9  C   UNL     1       5.380   5.138  18.830  0.00  0.00    +0.000 A 
ATOM     10  C   UNL     1       4.378   5.702  19.597  0.00  0.00    +0.000 A 
ATOM     11  O   UNL     1       6.646   5.185  19.341  0.00  0.00    +0.000 OA
ATOM     12  C   UNL     1       7.560   5.398  18.270  0.00  0.00    +0.000 C 
ATOM     13  C   UNL     1       7.395   4.346  17.180  0.00  0.00    +0.000 C 
ATOM     14  O   UNL     1       6.052   4.156  16.714  0.00  0.00    +0.000 OA
ENDBRANCH   2   5
BRANCH   3  15
ATOM     15  C   UNL     1       1.274   8.865  20.115  0.00  0.00    +0.000 A 
ATOM     16  C   UNL     1       0.507   9.678  19.271  0.00  0.00    +0.000 A 
ATOM     17  C   UNL     1      -0.357  10.638  19.795  0.00  0.00    +0.000 A 
ATOM     18  C   UNL     1      -0.512  10.808  21.171  0.00  0.00    +0.000 A 
ATOM     19  C   UNL     1       0.247   9.980  22.006  0.00  0.00    +0.000 A 
ATOM     20  C   UNL     1       1.125   9.017  21.491  0.00  0.00    +0.000 A 
BRANCH  18  21
ATOM     21  N   UNL     1      -1.422  11.722  21.658  0.00  0.00    +0.000 N 
ATOM     22  C   UNL     1      -1.487  12.039  23.078  0.00  0.00    +0.000 C 
ATOM     23  C   UNL     1      -2.954  12.008  23.505  0.00  0.00    +0.000 C 
ATOM     24  C   UNL     1      -3.802  12.941  22.644  0.00  0.00    +0.000 C 
ATOM     25  C   UNL     1      -3.622  12.652  21.153  0.00  0.00    +0.000 C 
ATOM     26  C   UNL     1      -2.147  12.618  20.755  0.00  0.00    +0.000 C 
ENDBRANCH  18  21
ENDBRANCH   3  15
TORSDOF 3
ENDMDL
MODEL 3
REMARK VINA RESULT:      -7.8      2.931      9.849
REMARK  Name = 
REMARK  3 active torsions:
REMARK  status: ('A' for Active; 'I' for Inactive)
REMARK    1  A    between atoms: C_2  and  C_16
REMARK    2  A    between atoms: N_3  and  C_4
REMARK    3  A    between atoms: C_7  and  N_8
REMARK                            x       y       z     vdW  Elec       q    Type
REMARK                         _______ _______ _______ _____ _____    ______ ____
ROOT
ATOM      1  O   UNL     1       2.076   8.970  17.512  0.00  0.00    +0.000 OA
ATOM      2  C   UNL     1       2.213   8.325  18.543  0.00  0.00    +0.000 C 
ATOM      3  N   UNL     1       2.980   7.197  18.742  0.00  0.00    +0.000 N 
ATOM      4  H   UNL     1       2.931   6.744  19.643  0.00  0.00    +0.000 HD
ENDROOT
BRANCH   2   5
ATOM      5  C   UNL     1       1.400   8.763  19.690  0.00  0.00    +0.000 A 
ATOM      6  C   UNL     1       1.532   8.211  20.966  0.00  0.00    +0.000 A 
ATOM      7  C   UNL     1       0.901   8.840  22.045  0.00  0.00    +0.000 A 
ATOM      8  C   UNL     1       0.158  10.008  21.838  0.00  0.00    +0.000 A 
ATOM      9  C   UNL     1      -0.032  10.492  20.544  0.00  0.00    +0.000 A 
ATOM     10  C   UNL     1       0.582   9.875  19.470  0.00  0.00    +0.000 A 
ATOM     11  O   UNL     1      -0.783  11.599  20.270  0.00  0.00    +0.000 OA
ATOM     12  C   UNL     1      -0.620  12.532  21.333  0.00  0.00    +0.000 C 
ATOM     13  C   UNL     1      -0.953  11.904  22.681  0.00  0.00    +0.000 C 
ATOM     14  O   UNL     1      -0.296  10.658  22.951  0.00  0.00    +0.000 OA
ENDBRANCH   2   5
BRANCH   3  15
ATOM     15  C   UNL     1       3.674   6.513  17.726  0.00  0.00    +0.000 A 
ATOM     16  C   UNL     1       3.592   5.129  17.534  0.00  0.00    +0.000 A 
ATOM     17  C   UNL     1       4.348   4.499  16.546  0.00  0.00    +0.000 A 
ATOM     18  C   UNL     1       5.190   5.220  15.699  0.00  0.00    +0.000 A 
ATOM     19  C   UNL     1       5.252   6.605  15.889  0.00  0.00    +0.000 A 
ATOM     20  C   UNL     1       4.503   7.249  16.883  0.00  0.00    +0.000 A 
BRANCH  18  21
ATOM     21  N   UNL     1       5.876   4.576  14.692  0.00  0.00    +0.000 N 
ATOM     22  C   UNL     1       7.300   4.803  14.484  0.00  0.00    +0.000 C 
ATOM     23  C   UNL     1       7.532   5.034  12.991  0.00  0.00    +0.000 C 
ATOM     24  C   UNL     1       6.982   3.878  12.159  0.00  0.00    +0.000 C 
ATOM     25  C   UNL     1       5.515   3.596  12.485  0.00  0.00    +0.000 C 
ATOM     26  C   UNL     1       5.287   3.436  13.987  0.00  0.00    +0.000 C 
ENDBRANCH  18  21
ENDBRANCH   3  15
TORSDOF 3
ENDMDL
MODEL 4
REMARK VINA RESULT:      -7.8      1.529      1.864
REMARK  Name = 
REMARK  3 active torsions:
REMARK  status: ('A' for Active; 'I' for Inactive)
REMARK    1  A    between atoms: C_2  and  C_16
REMARK    2  A    between atoms: N_3  and  C_4
REMARK    3  A    between atoms: C_7  and  N_8
REMARK                            x       y       z     vdW  Elec       q    Type
REMARK                         _______ _______ _______ _____ _____    ______ ____
ROOT
ATOM      1  O   UNL     1       2.525   8.692  17.592  0.00  0.00    +0.000 OA
ATOM      2  C   UNL     1       2.540   7.754  18.378  0.00  0.00    +0.000 C 
ATOM      3  N   UNL     1       1.911   7.663  19.601  0.00  0.00    +0.000 N 
ATOM      4  H   UNL     1       2.080   6.839  20.160  0.00  0.00    +0.000 HD
ENDROOT
BRANCH   2   5
ATOM      5  C   UNL     1       3.395   6.615  18.005  0.00  0.00    +0.000 A 
ATOM      6  C   UNL     1       3.118   5.302  18.395  0.00  0.00    +0.000 A 
ATOM      7  C   UNL     1       3.837   4.255  17.806  0.00  0.00    +0.000 A 
ATOM      8  C   UNL     1       4.809   4.530  16.838  0.00  0.00    +0.000 A 
ATOM      9  C   UNL     1       5.128   5.852  16.528  0.00  0.00    +0.000 A 
ATOM     10  C   UNL     1       4.429   6.894  17.108  0.00  0.00    +0.000 A 
ATOM     11  O   UNL     1       6.097   6.188  15.627  0.00  0.00    +0.000 OA
ATOM     12  C   UNL     1       6.102   5.220  14.582  0.00  0.00    +0.000 C 
ATOM     13  C   UNL     1       6.263   3.808  15.133  0.00  0.00    +0.000 C 
ATOM     14  O   UNL     1       5.357   3.460  16.190  0.00  0.00    +0.000 OA
ENDBRANCH   2   5
BRANCH   3  15
ATOM     15  C   UNL     1       1.210   8.715  20.219  0.00  0.00    +0.000 A 
ATOM     16  C   UNL     1       0.698   9.816  19.521  0.00  0.00    +0.000 A 
ATOM     17  C   UNL     1       0.062  10.857  20.196  0.00  0.00    +0.000 A 
ATOM     18  C   UNL     1      -0.112  10.832  21.580  0.00  0.00    +0.000 A 
ATOM     19  C   UNL     1       0.390   9.720  22.266  0.00  0.00    +0.000 A 
ATOM     20  C   UNL     1       1.037   8.671  21.600  0.00  0.00    +0.000 A 
BRANCH  18  21
ATOM     21  N   UNL     1      -0.800  11.846  22.210  0.00  0.00    +0.000 N 
ATOM     22  C   UNL     1      -1.790  11.560  23.240  0.00  0.00    +0.000 C 
ATOM     23  C   UNL     1      -3.039  12.389  22.944  0.00  0.00    +0.000 C 
ATOM     24  C   UNL     1      -2.705  13.875  22.830  0.00  0.00    +0.000 C 
ATOM     25  C   UNL     1      -1.584  14.125  21.820  0.00  0.00    +0.000 C 
ATOM     26  C   UNL     1      -0.369  13.240  22.089  0.00  0.00    +0.000 C 
ENDBRANCH  18  21
ENDBRANCH   3  15
TORSDOF 3
ENDMDL
MODEL 5
REMARK VINA RESULT:      -7.8      3.124      9.674
REMARK  Name = 
REMARK  3 active torsions:
REMARK  status: ('A' for Active; 'I' for Inactive)
REMARK    1  A    between atoms: C_2  and  C_16
REMARK    2  A    between atoms: N_3  and  C_4
REMARK    3  A    between atoms: C_7  and  N_8
REMARK                            x       y       z     vdW  Elec       q    Type
REMARK                         _______ _______ _______ _____ _____    ______ ____
ROOT
ATOM      1  O   UNL     1      -0.097   9.856  18.192  0.00  0.00    +0.000 OA
ATOM      2  C   UNL     1       0.288  10.085  19.332  0.00  0.00    +0.000 C 
ATOM      3  N   UNL     1       1.168   9.347  20.093  0.00  0.00    +0.000 N 
ATOM      4  H   UNL     1       1.332   9.640  21.045  0.00  0.00    +0.000 HD
ENDROOT
BRANCH   2   5
ATOM      5  C   UNL     1      -0.321  11.249  19.996  0.00  0.00    +0.000 A 
ATOM      6  C   UNL     1      -0.676  12.412  19.308  0.00  0.00    +0.000 A 
ATOM      7  C   UNL     1      -1.462  13.371  19.959  0.00  0.00    +0.000 A 
ATOM      8  C   UNL     1      -1.886  13.153  21.274  0.00  0.00    +0.000 A 
ATOM      9  C   UNL     1      -1.447  12.026  21.970  0.00  0.00    +0.000 A 
ATOM     10  C   UNL     1      -0.667  11.076  21.339  0.00  0.00    +0.000 A 
ATOM     11  O   UNL     1      -1.787  11.778  23.269  0.00  0.00    +0.000 OA
ATOM     12  C   UNL     1      -3.115  12.244  23.488  0.00  0.00    +0.000 C 
ATOM     13  C   UNL     1      -3.262  13.711  23.102  0.00  0.00    +0.000 C 
ATOM     14  O   UNL     1      -2.779  14.048  21.793  0.00  0.00    +0.000 OA
ENDBRANCH   2   5
BRANCH   3  15
ATOM     15  C   UNL     1       1.706   8.103  19.711  0.00  0.00    +0.000 A 
ATOM     16  C   UNL     1       2.366   7.889  18.495  0.00  0.00    +0.000 A 
ATOM     17  C   UNL     1       2.827   6.620  18.147  0.00  0.00    +0.000 A 
ATOM     18  C   UNL     1       2.675   5.527  19.001  0.00  0.00    +0.000 A 
ATOM     19  C   UNL     1       2.028   5.756  20.221  0.00  0.00    +0.000 A 
ATOM     20  C   UNL     1       1.553   7.025  20.578  0.00  0.00    +0.000 A 
BRANCH  18  21
ATOM     21  N   UNL     1       3.198   4.300  18.655  0.00  0.00    +0.000 N 
ATOM     22  C   UNL     1       2.794   3.626  17.428  0.00  0.00    +0.000 C 
ATOM     23  C   UNL     1       2.488   2.167  17.766  0.00  0.00    +0.000 C 
ATOM     24  C   UNL     1       3.675   1.497  18.455  0.00  0.00    +0.000 C 
ATOM     25  C   UNL     1       4.143   2.293  19.674  0.00  0.00    +0.000 C 
ATOM     26  C   UNL     1       4.378   3.764  19.336  0.00  0.00    +0.000 C 
ENDBRANCH  18  21
ENDBRANCH   3  15
TORSDOF 3
ENDMDL
MODEL 6
REMARK VINA RESULT:      -7.7      0.814      1.249
REMARK  Name = 
REMARK  3 active torsions:
REMARK  status: ('A' for Active; 'I' for Inactive)
REMARK    1  A    between atoms: C_2  and  C_16
REMARK    2  A    between atoms: N_3  and  C_4
REMARK    3  A    between atoms: C_7  and  N_8
REMARK                            x       y       z     vdW  Elec       q    Type
REMARK                         _______ _______ _______ _____ _____    ______ ____
ROOT
ATOM      1  O   UNL     1       1.455   5.928  20.647  0.00  0.00    +0.000 OA
ATOM      2  C   UNL     1       2.198   6.488  19.851  0.00  0.00    +0.000 C 
ATOM      3  N   UNL     1       2.241   7.827  19.532  0.00  0.00    +0.000 N 
ATOM      4  H   UNL     1       2.874   8.120  18.801  0.00  0.00    +0.000 HD
ENDROOT
BRANCH   2   5
ATOM      5  C   UNL     1       3.103   5.612  19.089  0.00  0.00    +0.000 A 
ATOM      6  C   UNL     1       2.985   4.220  19.087  0.00  0.00    +0.000 A 
ATOM      7  C   UNL     1       3.723   3.479  18.157  0.00  0.00    +0.000 A 
ATOM      8  C   UNL     1       4.556   4.133  17.243  0.00  0.00    +0.000 A 
ATOM      9  C   UNL     1       4.725   5.516  17.320  0.00  0.00    +0.000 A 
ATOM     10  C   UNL     1       4.005   6.257  18.238  0.00  0.00    +0.000 A 
ATOM     11  O   UNL     1       5.558   6.208  16.489  0.00  0.00    +0.000 OA
ATOM     12  C   UNL     1       5.533   5.592  15.205  0.00  0.00    +0.000 C 
ATOM     13  C   UNL     1       5.874   4.109  15.292  0.00  0.00    +0.000 C 
ATOM     14  O   UNL     1       5.122   3.367  16.263  0.00  0.00    +0.000 OA
ENDBRANCH   2   5
BRANCH   3  15
ATOM     15  C   UNL     1       1.332   8.792  20.006  0.00  0.00    +0.000 A 
ATOM     16  C   UNL     1       0.643   9.679  19.169  0.00  0.00    +0.000 A 
ATOM     17  C   UNL     1      -0.202  10.652  19.701  0.00  0.00    +0.000 A 
ATOM     18  C   UNL     1      -0.412  10.765  21.076  0.00  0.00    +0.000 A 
ATOM     19  C   UNL     1       0.269   9.864  21.902  0.00  0.00    +0.000 A 
ATOM     20  C   UNL     1       1.127   8.886  21.379  0.00  0.00    +0.000 A 
BRANCH  18  21
ATOM     21  N   UNL     1      -1.302  11.696  21.566  0.00  0.00    +0.000 N 
ATOM     22  C   UNL     1      -1.365  12.004  22.989  0.00  0.00    +0.000 C 
ATOM     23  C   UNL     1      -2.834  12.005  23.411  0.00  0.00    +0.000 C 
ATOM     24  C   UNL     1      -3.657  12.963  22.553  0.00  0.00    +0.000 C 
ATOM     25  C   UNL     1      -3.479  12.681  21.061  0.00  0.00    +0.000 C 
ATOM     26  C   UNL     1      -2.004  12.615  20.668  0.00  0.00    +0.000 C 
ENDBRANCH  18  21
ENDBRANCH   3  15
TORSDOF 3
ENDMDL
MODEL 7
REMARK VINA RESULT:      -7.7      7.091     10.262
REMARK  Name = 
REMARK  3 active torsions:
REMARK  status: ('A' for Active; 'I' for Inactive)
REMARK    1  A    between atoms: C_2  and  C_16
REMARK    2  A    between atoms: N_3  and  C_4
REMARK    3  A    between atoms: C_7  and  N_8
REMARK                            x       y       z     vdW  Elec       q    Type
REMARK                         _______ _______ _______ _____ _____    ______ ____
ROOT
ATOM      1  O   UNL     1       9.065  10.126  20.047  0.00  0.00    +0.000 OA
ATOM      2  C   UNL     1       9.135  10.427  18.862  0.00  0.00    +0.000 C 
ATOM      3  N   UNL     1       8.578   9.770  17.786  0.00  0.00    +0.000 N 
ATOM      4  H   UNL     1       8.788  10.115  16.860  0.00  0.00    +0.000 HD
ENDROOT
BRANCH   2   5
ATOM      5  C   UNL     1       9.980  11.589  18.542  0.00  0.00    +0.000 A 
ATOM      6  C   UNL     1      11.171  11.483  17.819  0.00  0.00    +0.000 A 
ATOM      7  C   UNL     1      11.787  12.650  17.353  0.00  0.00    +0.000 A 
ATOM      8  C   UNL     1      11.206  13.898  17.605  0.00  0.00    +0.000 A 
ATOM      9  C   UNL     1      10.064  13.985  18.403  0.00  0.00    +0.000 A 
ATOM     10  C   UNL     1       9.451  12.840  18.873  0.00  0.00    +0.000 A 
ATOM     11  O   UNL     1       9.475  15.175  18.724  0.00  0.00    +0.000 OA
ATOM     12  C   UNL     1       9.607  16.061  17.618  0.00  0.00    +0.000 C 
ATOM     13  C   UNL     1      11.064  16.211  17.195  0.00  0.00    +0.000 C 
ATOM     14  O   UNL     1      11.769  14.979  16.989  0.00  0.00    +0.000 OA
ENDBRANCH   2   5
BRANCH   3  15
ATOM     15  C   UNL     1       7.902   8.538  17.865  0.00  0.00    +0.000 A 
ATOM     16  C   UNL     1       8.363   7.452  18.620  0.00  0.00    +0.000 A 
ATOM     17  C   UNL     1       7.680   6.236  18.613  0.00  0.00    +0.000 A 
ATOM     18  C   UNL     1       6.505   6.062  17.881  0.00  0.00    +0.000 A 
ATOM     19  C   UNL     1       6.045   7.158  17.142  0.00  0.00    +0.000 A 
ATOM     20  C   UNL     1       6.727   8.383  17.135  0.00  0.00    +0.000 A 
BRANCH  18  21
ATOM     21  N   UNL     1       5.819   4.868  17.945  0.00  0.00    +0.000 N 
ATOM     22  C   UNL     1       5.517   4.106  16.741  0.00  0.00    +0.000 C 
ATOM     23  C   UNL     1       4.049   3.684  16.801  0.00  0.00    +0.000 C 
ATOM     24  C   UNL     1       3.744   2.919  18.087  0.00  0.00    +0.000 C 
ATOM     25  C   UNL     1       4.178   3.703  19.326  0.00  0.00    +0.000 C 
ATOM     26  C   UNL     1       5.626   4.177  19.221  0.00  0.00    +0.000 C 
ENDBRANCH  18  21
ENDBRANCH   3  15
TORSDOF 3
ENDMDL
MODEL 8
REMARK VINA RESULT:      -7.7      3.154      9.983
REMARK  Name = 
REMARK  3 active torsions:
REMARK  status: ('A' for Active; 'I' for Inactive)
REMARK    1  A    between atoms: C_2  and  C_16
REMARK    2  A    between atoms: N_3  and  C_4
REMARK    3  A    between atoms: C_7  and  N_8
REMARK                            x       y       z     vdW  Elec       q    Type
REMARK                         _______ _______ _______ _____ _____    ______ ____
ROOT
ATOM      1  O   UNL     1       1.108  10.074  22.594  0.00  0.00    +0.000 OA
ATOM      2  C   UNL     1       0.366  10.490  21.713  0.00  0.00    +0.000 C 
ATOM      3  N   UNL     1       0.268  10.052  20.411  0.00  0.00    +0.000 N 
ATOM      4  H   UNL     1      -0.353  10.550  19.789  0.00  0.00    +0.000 HD
ENDROOT
BRANCH   2   5
ATOM      5  C   UNL     1      -0.469  11.649  22.069  0.00  0.00    +0.000 A 
ATOM      6  C   UNL     1      -0.299  12.910  21.493  0.00  0.00    +0.000 A 
ATOM      7  C   UNL     1      -1.276  13.889  21.704  0.00  0.00    +0.000 A 
ATOM      8  C   UNL     1      -2.407  13.595  22.474  0.00  0.00    +0.000 A 
ATOM      9  C   UNL     1      -2.514  12.359  23.111  0.00  0.00    +0.000 A 
ATOM     10  C   UNL     1      -1.551  11.386  22.914  0.00  0.00    +0.000 A 
ATOM     11  O   UNL     1      -3.568  12.027  23.913  0.00  0.00    +0.000 OA
ATOM     12  C   UNL     1      -4.746  12.630  23.387  0.00  0.00    +0.000 C 
ATOM     13  C   UNL     1      -4.574  14.135  23.220  0.00  0.00    +0.000 C 
ATOM     14  O   UNL     1      -3.395  14.538  22.508  0.00  0.00    +0.000 OA
ENDBRANCH   2   5
BRANCH   3  15
ATOM     15  C   UNL     1       1.113   9.090  19.825  0.00  0.00    +0.000 A 
ATOM     16  C   UNL     1       1.616   9.196  18.523  0.00  0.00    +0.000 A 
ATOM     17  C   UNL     1       2.402   8.183  17.976  0.00  0.00    +0.000 A 
ATOM     18  C   UNL     1       2.738   7.043  18.708  0.00  0.00    +0.000 A 
ATOM     19  C   UNL     1       2.244   6.955  20.014  0.00  0.00    +0.000 A 
ATOM     20  C   UNL     1       1.446   7.963  20.572  0.00  0.00    +0.000 A 
BRANCH  18  21
ATOM     21  N   UNL     1       3.570   6.089  18.161  0.00  0.00    +0.000 N 
ATOM     22  C   UNL     1       4.840   6.456  17.550  0.00  0.00    +0.000 C 
ATOM     23  C   UNL     1       4.948   5.732  16.208  0.00  0.00    +0.000 C 
ATOM     24  C   UNL     1       4.777   4.224  16.375  0.00  0.00    +0.000 C 
ATOM     25  C   UNL     1       3.487   3.882  17.121  0.00  0.00    +0.000 C 
ATOM     26  C   UNL     1       3.360   4.665  18.427  0.00  0.00    +0.000 C 
ENDBRANCH  18  21
ENDBRANCH   3  15
TORSDOF 3
ENDMDL
MODEL 9
REMARK VINA RESULT:      -7.6      3.195      9.810
REMARK  Name = 
REMARK  3 active torsions:
REMARK  status: ('A' for Active; 'I' for Inactive)
REMARK    1  A    between atoms: C_2  and  C_16
REMARK    2  A    between atoms: N_3  and  C_4
REMARK    3  A    between atoms: C_7  and  N_8
REMARK                            x       y       z     vdW  Elec       q    Type
REMARK                         _______ _______ _______ _____ _____    ______ ____
ROOT
ATOM      1  O   UNL     1      -1.068  10.164  17.785  0.00  0.00    +0.000 OA
ATOM      2  C   UNL     1      -0.692  10.534  18.889  0.00  0.00    +0.000 C 
ATOM      3  N   UNL     1       0.439  10.145  19.573  0.00  0.00    +0.000 N 
ATOM      4  H   UNL     1       0.570  10.498  20.510  0.00  0.00    +0.000 HD
ENDROOT
BRANCH   2   5
ATOM      5  C   UNL     1      -1.598  11.448  19.605  0.00  0.00    +0.000 A 
ATOM      6  C   UNL     1      -2.772  11.948  19.037  0.00  0.00    +0.000 A 
ATOM      7  C   UNL     1      -3.692  12.612  19.857  0.00  0.00    +0.000 A 
ATOM      8  C   UNL     1      -3.433  12.759  21.224  0.00  0.00    +0.000 A 
ATOM      9  C   UNL     1      -2.216  12.329  21.752  0.00  0.00    +0.000 A 
ATOM     10  C   UNL     1      -1.298  11.677  20.950  0.00  0.00    +0.000 A 
ATOM     11  O   UNL     1      -1.883  12.484  23.067  0.00  0.00    +0.000 OA
ATOM     12  C   UNL     1      -3.060  12.338  23.854  0.00  0.00    +0.000 C 
ATOM     13  C   UNL     1      -4.156  13.294  23.399  0.00  0.00    +0.000 C 
ATOM     14  O   UNL     1      -4.439  13.272  21.993  0.00  0.00    +0.000 OA
ENDBRANCH   2   5
BRANCH   3  15
ATOM     15  C   UNL     1       1.326   9.139  19.145  0.00  0.00    +0.000 A 
ATOM     16  C   UNL     1       1.960   9.150  17.897  0.00  0.00    +0.000 A 
ATOM     17  C   UNL     1       2.784   8.096  17.505  0.00  0.00    +0.000 A 
ATOM     18  C   UNL     1       3.028   7.009  18.344  0.00  0.00    +0.000 A 
ATOM     19  C   UNL     1       2.402   7.015  19.596  0.00  0.00    +0.000 A 
ATOM     20  C   UNL     1       1.566   8.065  19.998  0.00  0.00    +0.000 A 
BRANCH  18  21
ATOM     21  N   UNL     1       3.898   6.013  17.952  0.00  0.00    +0.000 N 
ATOM     22  C   UNL     1       5.166   6.330  17.310  0.00  0.00    +0.000 C 
ATOM     23  C   UNL     1       5.320   5.423  16.089  0.00  0.00    +0.000 C 
ATOM     24  C   UNL     1       5.193   3.950  16.472  0.00  0.00    +0.000 C 
ATOM     25  C   UNL     1       3.901   3.677  17.243  0.00  0.00    +0.000 C 
ATOM     26  C   UNL     1       3.727   4.636  18.419  0.00  0.00    +0.000 C 
ENDBRANCH  18  21
ENDBRANCH   3  15
TORSDOF 3
ENDMDL
