MODEL 1
REMARK VINA RESULT:      -9.4      0.000      0.000
REMARK  Name = 
REMARK  7 active torsions:
REMARK  status: ('A' for Active; 'I' for Inactive)
REMARK    1  A    between atoms: C_1  and  C_2
REMARK    2  A    between atoms: C_2  and  C_3
REMARK    3  A    between atoms: C_2  and  O_4
REMARK    4  A    between atoms: O_4  and  C_5
REMARK    5  A    between atoms: C_9  and  C_10
REMARK    6  A    between atoms: C_16  and  C_17
REMARK    7  A    between atoms: C_24  and  N_25
REMARK                            x       y       z     vdW  Elec       q    Type
REMARK                         _______ _______ _______ _____ _____    ______ ____
ROOT
ATOM      1  C   UNL     1       3.979   3.791  17.686  0.00  0.00    +0.000 A 
ATOM      2  C   UNL     1       3.790   2.454  17.995  0.00  0.00    +0.000 A 
ATOM      3  N   UNL     1       2.886   2.368  19.019  0.00  0.00    +0.000 N 
ATOM      4  C   UNL     1       2.467   3.623  19.390  0.00  0.00    +0.000 A 
ATOM      5  C   UNL     1       1.572   4.010  20.393  0.00  0.00    +0.000 A 
ATOM      6  C   UNL     1       1.327   5.380  20.544  0.00  0.00    +0.000 A 
ATOM      7  C   UNL     1       1.951   6.337  19.733  0.00  0.00    +0.000 A 
ATOM      8  C   UNL     1       2.852   5.907  18.738  0.00  0.00    +0.000 A 
ATOM      9  C   UNL     1       3.126   4.535  18.566  0.00  0.00    +0.000 A 
ATOM     10  H   UNL     1       2.573   1.509  19.451  0.00  0.00    +0.000 HD
ENDROOT
BRANCH   7  11
ATOM     11  C   UNL     1       1.658   7.758  19.948  0.00  0.00    +0.000 A 
ATOM     12  N   UNL     1       1.750   8.701  19.031  0.00  0.00    +0.000 NA
ATOM     13  N   UNL     1       1.354   9.935  19.506  0.00  0.00    +0.000 NA
ATOM     14  C   UNL     1       0.912   9.897  20.749  0.00  0.00    +0.000 A 
ATOM     15  N   UNL     1       0.399  10.956  21.431  0.00  0.00    +0.000 N 
ATOM     16  C   UNL     1      -0.513  10.783  22.557  0.00  0.00    +0.000 C 
ATOM     17  C   UNL     1      -1.108  12.169  22.767  0.00  0.00    +0.000 C 
ATOM     18  C   UNL     1      -1.160  12.752  21.357  0.00  0.00    +0.000 C 
ATOM     19  C   UNL     1       0.162  12.226  20.744  0.00  0.00    +0.000 C 
ATOM     20  S   UNL     1       1.067   8.328  21.453  0.00  0.00    +0.000 S 
BRANCH  18  21
ATOM     21  N   UNL     1      -2.355  12.268  20.644  0.00  0.00    +0.000 NA
ATOM     22  H   UNL     1      -2.796  11.530  21.197  0.00  0.00    +0.000 HD
ATOM     23  H   UNL     1      -2.060  11.800  19.786  0.00  0.00    +0.000 HD
ENDBRANCH  18  21
ENDBRANCH   7  11
BRANCH   1  28
ATOM     24  C   UNL     1       6.742   5.611  16.202  0.00  0.00    +0.000 A 
ATOM     25  C   UNL     1       6.976   4.967  14.997  0.00  0.00    +0.000 A 
ATOM     26  C   UNL     1       6.106   3.960  14.611  0.00  0.00    +0.000 A 
ATOM     27  C   UNL     1       5.069   3.601  15.465  0.00  0.00    +0.000 A 
ATOM     28  C   UNL     1       4.946   4.255  16.693  0.00  0.00    +0.000 A 
ATOM     29  N   UNL     1       5.755   5.282  17.063  0.00  0.00    +0.000 NA
BRANCH  24  30
ATOM     30  O   UNL     1       7.644   6.605  16.519  0.00  0.00    +0.000 OA
BRANCH  30  32
ATOM     31  C   UNL     1       8.076   6.460  18.840  0.00  0.00    +0.000 C 
ATOM     32  C   UNL     1       7.396   7.291  17.751  0.00  0.00    +0.000 C 
ATOM     33  C   UNL     1       8.013   8.691  17.721  0.00  0.00    +0.000 C 
ENDBRANCH  30  32
ENDBRANCH  24  30
ENDBRANCH   1  28
TORSDOF 5
ENDMDL
MODEL 2
REMARK VINA RESULT:      -9.2      1.337      1.920
REMARK  Name = 
REMARK  7 active torsions:
REMARK  status: ('A' for Active; 'I' for Inactive)
REMARK    1  A    between atoms: C_1  and  C_2
REMARK    2  A    between atoms: C_2  and  C_3
REMARK    3  A    between atoms: C_2  and  O_4
REMARK    4  A    between atoms: O_4  and  C_5
REMARK    5  A    between atoms: C_9  and  C_10
REMARK    6  A    between atoms: C_16  and  C_17
REMARK    7  A    between atoms: C_24  and  N_25
REMARK                            x       y       z     vdW  Elec       q    Type
REMARK                         _______ _______ _______ _____ _____    ______ ____
ROOT
ATOM      1  C   UNL     1       4.130   3.784  17.891  0.00  0.00    +0.000 A 
ATOM      2  C   UNL     1       4.072   2.446  18.245  0.00  0.00    +0.000 A 
ATOM      3  N   UNL     1       3.219   2.314  19.306  0.00  0.00    +0.000 N 
ATOM      4  C   UNL     1       2.705   3.538  19.658  0.00  0.00    +0.000 A 
ATOM      5  C   UNL     1       1.818   3.878  20.685  0.00  0.00    +0.000 A 
ATOM      6  C   UNL     1       1.458   5.225  20.807  0.00  0.00    +0.000 A 
ATOM      7  C   UNL     1       1.964   6.207  19.944  0.00  0.00    +0.000 A 
ATOM      8  C   UNL     1       2.861   5.825  18.927  0.00  0.00    +0.000 A 
ATOM      9  C   UNL     1       3.249   4.478  18.782  0.00  0.00    +0.000 A 
ATOM     10  H   UNL     1       3.000   1.446  19.775  0.00  0.00    +0.000 HD
ENDROOT
BRANCH   7  11
ATOM     11  C   UNL     1       1.554   7.603  20.131  0.00  0.00    +0.000 A 
ATOM     12  N   UNL     1       1.070   8.111  21.246  0.00  0.00    +0.000 NA
ATOM     13  N   UNL     1       0.827   9.466  21.144  0.00  0.00    +0.000 NA
ATOM     14  C   UNL     1       1.186   9.973  19.980  0.00  0.00    +0.000 A 
ATOM     15  N   UNL     1       1.121  11.289  19.643  0.00  0.00    +0.000 N 
ATOM     16  C   UNL     1       1.963  11.865  18.600  0.00  0.00    +0.000 C 
ATOM     17  C   UNL     1       1.835  13.367  18.810  0.00  0.00    +0.000 C 
ATOM     18  C   UNL     1       1.666  13.503  20.322  0.00  0.00    +0.000 C 
ATOM     19  C   UNL     1       0.766  12.287  20.653  0.00  0.00    +0.000 C 
ATOM     20  S   UNL     1       1.752   8.764  18.884  0.00  0.00    +0.000 S 
BRANCH  18  21
ATOM     21  N   UNL     1       2.976  13.448  20.993  0.00  0.00    +0.000 NA
ATOM     22  H   UNL     1       3.426  14.363  20.920  0.00  0.00    +0.000 HD
ATOM     23  H   UNL     1       3.588  12.822  20.469  0.00  0.00    +0.000 HD
ENDBRANCH  18  21
ENDBRANCH   7  11
BRANCH   1  28
ATOM     24  C   UNL     1       6.735   5.717  16.270  0.00  0.00    +0.000 A 
ATOM     25  C   UNL     1       6.903   5.108  15.035  0.00  0.00    +0.000 A 
ATOM     26  C   UNL     1       6.036   4.086  14.683  0.00  0.00    +0.000 A 
ATOM     27  C   UNL     1       5.070   3.677  15.597  0.00  0.00    +0.000 A 
ATOM     28  C   UNL     1       5.014   4.298  16.846  0.00  0.00    +0.000 A 
ATOM     29  N   UNL     1       5.819   5.339  17.186  0.00  0.00    +0.000 NA
BRANCH  24  30
ATOM     30  O   UNL     1       7.630   6.728  16.550  0.00  0.00    +0.000 OA
BRANCH  30  32
ATOM     31  C   UNL     1       8.117   6.512  18.854  0.00  0.00    +0.000 C 
ATOM     32  C   UNL     1       7.436   7.391  17.804  0.00  0.00    +0.000 C 
ATOM     33  C   UNL     1       8.096   8.771  17.791  0.00  0.00    +0.000 C 
ENDBRANCH  30  32
ENDBRANCH  24  30
ENDBRANCH   1  28
TORSDOF 5
ENDMDL
MODEL 3
REMARK VINA RESULT:      -9.2      1.603      2.748
REMARK  Name = 
REMARK  7 active torsions:
REMARK  status: ('A' for Active; 'I' for Inactive)
REMARK    1  A    between atoms: C_1  and  C_2
REMARK    2  A    between atoms: C_2  and  C_3
REMARK    3  A    between atoms: C_2  and  O_4
REMARK    4  A    between atoms: O_4  and  C_5
REMARK    5  A    between atoms: C_9  and  C_10
REMARK    6  A    between atoms: C_16  and  C_17
REMARK    7  A    between atoms: C_24  and  N_25
REMARK                            x       y       z     vdW  Elec       q    Type
REMARK                         _______ _______ _______ _____ _____    ______ ____
ROOT
ATOM      1  C   UNL     1       4.354   3.813  18.371  0.00  0.00    +0.000 A 
ATOM      2  C   UNL     1       4.212   2.580  18.986  0.00  0.00    +0.000 A 
ATOM      3  N   UNL     1       3.280   2.696  19.981  0.00  0.00    +0.000 N 
ATOM      4  C   UNL     1       2.797   3.981  20.032  0.00  0.00    +0.000 A 
ATOM      5  C   UNL     1       1.853   4.551  20.893  0.00  0.00    +0.000 A 
ATOM      6  C   UNL     1       1.545   5.904  20.707  0.00  0.00    +0.000 A 
ATOM      7  C   UNL     1       2.155   6.670  19.705  0.00  0.00    +0.000 A 
ATOM      8  C   UNL     1       3.105   6.060  18.862  0.00  0.00    +0.000 A 
ATOM      9  C   UNL     1       3.443   4.701  19.028  0.00  0.00    +0.000 A 
ATOM     10  H   UNL     1       2.990   1.950  20.599  0.00  0.00    +0.000 HD
ENDROOT
BRANCH   7  11
ATOM     11  C   UNL     1       1.795   8.085  19.567  0.00  0.00    +0.000 A 
ATOM     12  N   UNL     1       1.981   8.816  18.486  0.00  0.00    +0.000 NA
ATOM     13  N   UNL     1       1.490  10.099  18.628  0.00  0.00    +0.000 NA
ATOM     14  C   UNL     1       0.888  10.300  19.785  0.00  0.00    +0.000 A 
ATOM     15  N   UNL     1       0.259  11.448  20.152  0.00  0.00    +0.000 N 
ATOM     16  C   UNL     1      -0.789  11.467  21.168  0.00  0.00    +0.000 C 
ATOM     17  C   UNL     1      -1.446  12.830  20.996  0.00  0.00    +0.000 C 
ATOM     18  C   UNL     1      -1.327  13.096  19.497  0.00  0.00    +0.000 C 
ATOM     19  C   UNL     1       0.079  12.528  19.181  0.00  0.00    +0.000 C 
ATOM     20  S   UNL     1       0.993   8.927  20.828  0.00  0.00    +0.000 S 
BRANCH  18  21
ATOM     21  N   UNL     1      -2.403  12.405  18.766  0.00  0.00    +0.000 NA
ATOM     22  H   UNL     1      -2.645  11.545  19.263  0.00  0.00    +0.000 HD
ATOM     23  H   UNL     1      -2.038  12.085  17.868  0.00  0.00    +0.000 HD
ENDBRANCH  18  21
ENDBRANCH   7  11
BRANCH   1  28
ATOM     24  C   UNL     1       5.752   4.358  15.069  0.00  0.00    +0.000 A 
ATOM     25  C   UNL     1       7.028   4.844  15.307  0.00  0.00    +0.000 A 
ATOM     26  C   UNL     1       7.483   4.883  16.615  0.00  0.00    +0.000 A 
ATOM     27  C   UNL     1       6.628   4.485  17.638  0.00  0.00    +0.000 A 
ATOM     28  C   UNL     1       5.333   4.074  17.316  0.00  0.00    +0.000 A 
ATOM     29  N   UNL     1       4.890   3.976  16.035  0.00  0.00    +0.000 NA
BRANCH  24  30
ATOM     30  O   UNL     1       5.369   4.343  13.744  0.00  0.00    +0.000 OA
BRANCH  30  32
ATOM     31  C   UNL     1       5.192   2.853  11.917  0.00  0.00    +0.000 C 
ATOM     32  C   UNL     1       6.168   3.526  12.882  0.00  0.00    +0.000 C 
ATOM     33  C   UNL     1       7.154   4.386  12.088  0.00  0.00    +0.000 C 
ENDBRANCH  30  32
ENDBRANCH  24  30
ENDBRANCH   1  28
TORSDOF 5
ENDMDL
MODEL 4
REMARK VINA RESULT:      -8.7      2.033      3.351
REMARK  Name = 
REMARK  7 active torsions:
REMARK  status: ('A' for Active; 'I' for Inactive)
REMARK    1  A    between atoms: C_1  and  C_2
REMARK    2  A    between atoms: C_2  and  C_3
REMARK    3  A    between atoms: C_2  and  O_4
REMARK    4  A    between atoms: O_4  and  C_5
REMARK    5  A    between atoms: C_9  and  C_10
REMARK    6  A    between atoms: C_16  and  C_17
REMARK    7  A    between atoms: C_24  and  N_25
REMARK                            x       y       z     vdW  Elec       q    Type
REMARK                         _______ _______ _______ _____ _____    ______ ____
ROOT
ATOM      1  C   UNL     1       4.308   3.728  18.361  0.00  0.00    +0.000 A 
ATOM      2  C   UNL     1       4.193   2.443  18.865  0.00  0.00    +0.000 A 
ATOM      3  N   UNL     1       3.256   2.450  19.862  0.00  0.00    +0.000 N 
ATOM      4  C   UNL     1       2.743   3.714  20.024  0.00  0.00    +0.000 A 
ATOM      5  C   UNL     1       1.785   4.185  20.927  0.00  0.00    +0.000 A 
ATOM      6  C   UNL     1       1.446   5.541  20.859  0.00  0.00    +0.000 A 
ATOM      7  C   UNL     1       2.040   6.406  19.930  0.00  0.00    +0.000 A 
ATOM      8  C   UNL     1       3.006   5.894  19.041  0.00  0.00    +0.000 A 
ATOM      9  C   UNL     1       3.374   4.534  19.089  0.00  0.00    +0.000 A 
ATOM     10  H   UNL     1       2.982   1.647  20.412  0.00  0.00    +0.000 HD
ENDROOT
BRANCH   7  11
ATOM     11  C   UNL     1       1.647   7.819  19.915  0.00  0.00    +0.000 A 
ATOM     12  N   UNL     1       1.035   8.449  20.899  0.00  0.00    +0.000 NA
ATOM     13  N   UNL     1       0.844   9.789  20.626  0.00  0.00    +0.000 NA
ATOM     14  C   UNL     1       1.366  10.165  19.473  0.00  0.00    +0.000 A 
ATOM     15  N   UNL     1       1.379  11.438  18.997  0.00  0.00    +0.000 N 
ATOM     16  C   UNL     1       2.365  11.889  18.020  0.00  0.00    +0.000 C 
ATOM     17  C   UNL     1       2.252  13.407  18.055  0.00  0.00    +0.000 C 
ATOM     18  C   UNL     1       1.891  13.704  19.509  0.00  0.00    +0.000 C 
ATOM     19  C   UNL     1       0.924  12.542  19.843  0.00  0.00    +0.000 C 
ATOM     20  S   UNL     1       2.036   8.839  18.592  0.00  0.00    +0.000 S 
BRANCH  18  21
ATOM     21  N   UNL     1       3.101  13.703  20.350  0.00  0.00    +0.000 NA
ATOM     22  H   UNL     1       3.561  14.614  20.272  0.00  0.00    +0.000 HD
ATOM     23  H   UNL     1       3.775  13.045  19.956  0.00  0.00    +0.000 HD
ENDBRANCH  18  21
ENDBRANCH   7  11
BRANCH   1  28
ATOM     24  C   UNL     1       5.726   4.475  15.107  0.00  0.00    +0.000 A 
ATOM     25  C   UNL     1       6.945   5.072  15.388  0.00  0.00    +0.000 A 
ATOM     26  C   UNL     1       7.363   5.124  16.708  0.00  0.00    +0.000 A 
ATOM     27  C   UNL     1       6.525   4.625  17.700  0.00  0.00    +0.000 A 
ATOM     28  C   UNL     1       5.283   4.102  17.337  0.00  0.00    +0.000 A 
ATOM     29  N   UNL     1       4.882   3.992  16.043  0.00  0.00    +0.000 NA
BRANCH  24  30
ATOM     30  O   UNL     1       5.378   4.454  13.773  0.00  0.00    +0.000 OA
BRANCH  30  32
ATOM     31  C   UNL     1       5.180   2.926  11.979  0.00  0.00    +0.000 C 
ATOM     32  C   UNL     1       6.163   3.588  12.946  0.00  0.00    +0.000 C 
ATOM     33  C   UNL     1       7.193   4.392  12.150  0.00  0.00    +0.000 C 
ENDBRANCH  30  32
ENDBRANCH  24  30
ENDBRANCH   1  28
TORSDOF 5
ENDMDL
MODEL 5
REMARK VINA RESULT:      -8.6      1.162      2.306
REMARK  Name = 
REMARK  7 active torsions:
REMARK  status: ('A' for Active; 'I' for Inactive)
REMARK    1  A    between atoms: C_1  and  C_2
REMARK    2  A    between atoms: C_2  and  C_3
REMARK    3  A    between atoms: C_2  and  O_4
REMARK    4  A    between atoms: O_4  and  C_5
REMARK    5  A    between atoms: C_9  and  C_10
REMARK    6  A    between atoms: C_16  and  C_17
REMARK    7  A    between atoms: C_24  and  N_25
REMARK                            x       y       z     vdW  Elec       q    Type
REMARK                         _______ _______ _______ _____ _____    ______ ____
ROOT
ATOM      1  C   UNL     1       4.345   4.340  18.676  0.00  0.00    +0.000 A 
ATOM      2  C   UNL     1       4.134   2.992  18.913  0.00  0.00    +0.000 A 
ATOM      3  N   UNL     1       3.016   2.858  19.691  0.00  0.00    +0.000 N 
ATOM      4  C   UNL     1       2.479   4.092  19.968  0.00  0.00    +0.000 A 
ATOM      5  C   UNL     1       1.359   4.432  20.734  0.00  0.00    +0.000 A 
ATOM      6  C   UNL     1       1.039   5.790  20.840  0.00  0.00    +0.000 A 
ATOM      7  C   UNL     1       1.806   6.782  20.214  0.00  0.00    +0.000 A 
ATOM      8  C   UNL     1       2.931   6.399  19.457  0.00  0.00    +0.000 A 
ATOM      9  C   UNL     1       3.284   5.040  19.336  0.00  0.00    +0.000 A 
ATOM     10  H   UNL     1       2.639   1.982  20.025  0.00  0.00    +0.000 HD
ENDROOT
BRANCH   7  11
ATOM     11  C   UNL     1       1.422   8.189  20.371  0.00  0.00    +0.000 A 
ATOM     12  N   UNL     1       1.443   9.095  19.414  0.00  0.00    +0.000 NA
ATOM     13  N   UNL     1       0.972  10.321  19.841  0.00  0.00    +0.000 NA
ATOM     14  C   UNL     1       0.545  10.308  21.090  0.00  0.00    +0.000 A 
ATOM     15  N   UNL     1      -0.029  11.360  21.732  0.00  0.00    +0.000 N 
ATOM     16  C   UNL     1      -0.916  11.178  22.876  0.00  0.00    +0.000 C 
ATOM     17  C   UNL     1      -1.598  12.530  23.034  0.00  0.00    +0.000 C 
ATOM     18  C   UNL     1      -1.703  13.046  21.601  0.00  0.00    +0.000 C 
ATOM     19  C   UNL     1      -0.355  12.581  20.994  0.00  0.00    +0.000 C 
ATOM     20  S   UNL     1       0.810   8.785  21.859  0.00  0.00    +0.000 S 
BRANCH  18  21
ATOM     21  N   UNL     1      -2.871  12.455  20.925  0.00  0.00    +0.000 NA
ATOM     22  H   UNL     1      -2.998  11.497  21.258  0.00  0.00    +0.000 HD
ATOM     23  H   UNL     1      -2.660  12.352  19.932  0.00  0.00    +0.000 HD
ENDBRANCH  18  21
ENDBRANCH   7  11
BRANCH   1  28
ATOM     24  C   UNL     1       6.416   5.492  15.930  0.00  0.00    +0.000 A 
ATOM     25  C   UNL     1       7.512   6.079  16.543  0.00  0.00    +0.000 A 
ATOM     26  C   UNL     1       7.621   5.987  17.920  0.00  0.00    +0.000 A 
ATOM     27  C   UNL     1       6.608   5.358  18.637  0.00  0.00    +0.000 A 
ATOM     28  C   UNL     1       5.505   4.853  17.947  0.00  0.00    +0.000 A 
ATOM     29  N   UNL     1       5.408   4.885  16.592  0.00  0.00    +0.000 NA
BRANCH  24  30
ATOM     30  O   UNL     1       6.375   5.619  14.557  0.00  0.00    +0.000 OA
BRANCH  30  32
ATOM     31  C   UNL     1       6.115   3.736  13.150  0.00  0.00    +0.000 C 
ATOM     32  C   UNL     1       7.136   4.652  13.827  0.00  0.00    +0.000 C 
ATOM     33  C   UNL     1       7.991   5.335  12.757  0.00  0.00    +0.000 C 
ENDBRANCH  30  32
ENDBRANCH  24  30
ENDBRANCH   1  28
TORSDOF 5
ENDMDL
MODEL 6
REMARK VINA RESULT:      -8.6      2.088      3.486
REMARK  Name = 
REMARK  7 active torsions:
REMARK  status: ('A' for Active; 'I' for Inactive)
REMARK    1  A    between atoms: C_1  and  C_2
REMARK    2  A    between atoms: C_2  and  C_3
REMARK    3  A    between atoms: C_2  and  O_4
REMARK    4  A    between atoms: O_4  and  C_5
REMARK    5  A    between atoms: C_9  and  C_10
REMARK    6  A    between atoms: C_16  and  C_17
REMARK    7  A    between atoms: C_24  and  N_25
REMARK                            x       y       z     vdW  Elec       q    Type
REMARK                         _______ _______ _______ _____ _____    ______ ____
ROOT
ATOM      1  C   UNL     1       4.581   3.674  16.825  0.00  0.00    +0.000 A 
ATOM      2  C   UNL     1       4.325   2.386  17.265  0.00  0.00    +0.000 A 
ATOM      3  N   UNL     1       3.354   2.439  18.227  0.00  0.00    +0.000 N 
ATOM      4  C   UNL     1       2.957   3.739  18.430  0.00  0.00    +0.000 A 
ATOM      5  C   UNL     1       2.013   4.260  19.320  0.00  0.00    +0.000 A 
ATOM      6  C   UNL     1       1.806   5.644  19.303  0.00  0.00    +0.000 A 
ATOM      7  C   UNL     1       2.516   6.487  18.437  0.00  0.00    +0.000 A 
ATOM      8  C   UNL     1       3.463   5.924  17.560  0.00  0.00    +0.000 A 
ATOM      9  C   UNL     1       3.699   4.534  17.557  0.00  0.00    +0.000 A 
ATOM     10  H   UNL     1       2.984   1.643  18.729  0.00  0.00    +0.000 HD
ENDROOT
BRANCH   7  11
ATOM     11  C   UNL     1       2.259   7.931  18.475  0.00  0.00    +0.000 A 
ATOM     12  N   UNL     1       2.626   8.794  17.548  0.00  0.00    +0.000 NA
ATOM     13  N   UNL     1       2.196  10.076  17.824  0.00  0.00    +0.000 NA
ATOM     14  C   UNL     1       1.461  10.155  18.917  0.00  0.00    +0.000 A 
ATOM     15  N   UNL     1       0.857  11.283  19.377  0.00  0.00    +0.000 N 
ATOM     16  C   UNL     1      -0.311  11.236  20.250  0.00  0.00    +0.000 C 
ATOM     17  C   UNL     1      -0.860  12.655  20.210  0.00  0.00    +0.000 C 
ATOM     18  C   UNL     1      -0.532  13.125  18.795  0.00  0.00    +0.000 C 
ATOM     19  C   UNL     1       0.868  12.502  18.567  0.00  0.00    +0.000 C 
ATOM     20  S   UNL     1       1.350   8.642  19.743  0.00  0.00    +0.000 S 
BRANCH  18  21
ATOM     21  N   UNL     1      -1.542  12.631  17.842  0.00  0.00    +0.000 NA
ATOM     22  H   UNL     1      -1.831  13.401  17.235  0.00  0.00    +0.000 HD
ATOM     23  H   UNL     1      -2.387  12.383  18.357  0.00  0.00    +0.000 HD
ENDBRANCH  18  21
ENDBRANCH   7  11
BRANCH   1  28
ATOM     24  C   UNL     1       6.296   4.048  13.652  0.00  0.00    +0.000 A 
ATOM     25  C   UNL     1       7.398   4.837  13.942  0.00  0.00    +0.000 A 
ATOM     26  C   UNL     1       7.642   5.162  15.267  0.00  0.00    +0.000 A 
ATOM     27  C   UNL     1       6.749   4.730  16.242  0.00  0.00    +0.000 A 
ATOM     28  C   UNL     1       5.626   3.997  15.855  0.00  0.00    +0.000 A 
ATOM     29  N   UNL     1       5.401   3.622  14.569  0.00  0.00    +0.000 NA
BRANCH  24  30
ATOM     30  O   UNL     1       6.118   3.761  12.314  0.00  0.00    +0.000 OA
BRANCH  30  32
ATOM     31  C   UNL     1       4.124   3.256  11.148  0.00  0.00    +0.000 C 
ATOM     32  C   UNL     1       5.229   2.675  12.031  0.00  0.00    +0.000 C 
ATOM     33  C   UNL     1       5.958   1.567  11.269  0.00  0.00    +0.000 C 
ENDBRANCH  30  32
ENDBRANCH  24  30
ENDBRANCH   1  28
TORSDOF 5
ENDMDL
MODEL 7
REMARK VINA RESULT:      -8.5      1.522      2.760
REMARK  Name = 
REMARK  7 active torsions:
REMARK  status: ('A' for Active; 'I' for Inactive)
REMARK    1  A    between atoms: C_1  and  C_2
REMARK    2  A    between atoms: C_2  and  C_3
REMARK    3  A    between atoms: C_2  and  O_4
REMARK    4  A    between atoms: O_4  and  C_5
REMARK    5  A    between atoms: C_9  and  C_10
REMARK    6  A    between atoms: C_16  and  C_17
REMARK    7  A    between atoms: C_24  and  N_25
REMARK                            x       y       z     vdW  Elec       q    Type
REMARK                         _______ _______ _______ _____ _____    ______ ____
ROOT
ATOM      1  C   UNL     1       3.965   4.082  17.915  0.00  0.00    +0.000 A 
ATOM      2  C   UNL     1       3.884   2.758  18.315  0.00  0.00    +0.000 A 
ATOM      3  N   UNL     1       3.069   2.685  19.412  0.00  0.00    +0.000 N 
ATOM      4  C   UNL     1       2.603   3.934  19.742  0.00  0.00    +0.000 A 
ATOM      5  C   UNL     1       1.765   4.332  20.789  0.00  0.00    +0.000 A 
ATOM      6  C   UNL     1       1.448   5.692  20.880  0.00  0.00    +0.000 A 
ATOM      7  C   UNL     1       1.947   6.630  19.967  0.00  0.00    +0.000 A 
ATOM      8  C   UNL     1       2.793   6.191  18.930  0.00  0.00    +0.000 A 
ATOM      9  C   UNL     1       3.138   4.829  18.815  0.00  0.00    +0.000 A 
ATOM     10  H   UNL     1       2.844   1.838  19.917  0.00  0.00    +0.000 HD
ENDROOT
BRANCH   7  11
ATOM     11  C   UNL     1       1.583   8.043  20.122  0.00  0.00    +0.000 A 
ATOM     12  N   UNL     1       1.588   8.940  19.156  0.00  0.00    +0.000 NA
ATOM     13  N   UNL     1       1.143  10.175  19.584  0.00  0.00    +0.000 NA
ATOM     14  C   UNL     1       0.750  10.179  20.844  0.00  0.00    +0.000 A 
ATOM     15  N   UNL     1       0.205  11.242  21.493  0.00  0.00    +0.000 N 
ATOM     16  C   UNL     1      -0.653  11.080  22.662  0.00  0.00    +0.000 C 
ATOM     17  C   UNL     1      -1.315  12.441  22.826  0.00  0.00    +0.000 C 
ATOM     18  C   UNL     1      -1.453  12.946  21.391  0.00  0.00    +0.000 C 
ATOM     19  C   UNL     1      -0.128  12.460  20.753  0.00  0.00    +0.000 C 
ATOM     20  S   UNL     1       1.018   8.659  21.620  0.00  0.00    +0.000 S 
BRANCH  18  21
ATOM     21  N   UNL     1      -2.645  12.362  20.753  0.00  0.00    +0.000 NA
ATOM     22  H   UNL     1      -3.151  13.099  20.255  0.00  0.00    +0.000 HD
ATOM     23  H   UNL     1      -3.293  12.058  21.480  0.00  0.00    +0.000 HD
ENDBRANCH  18  21
ENDBRANCH   7  11
BRANCH   1  28
ATOM     24  C   UNL     1       5.867   4.047  14.827  0.00  0.00    +0.000 A 
ATOM     25  C   UNL     1       6.170   5.379  14.591  0.00  0.00    +0.000 A 
ATOM     26  C   UNL     1       5.827   6.312  15.555  0.00  0.00    +0.000 A 
ATOM     27  C   UNL     1       5.149   5.888  16.693  0.00  0.00    +0.000 A 
ATOM     28  C   UNL     1       4.822   4.537  16.821  0.00  0.00    +0.000 A 
ATOM     29  N   UNL     1       5.199   3.600  15.912  0.00  0.00    +0.000 NA
BRANCH  24  30
ATOM     30  O   UNL     1       6.241   3.175  13.827  0.00  0.00    +0.000 OA
BRANCH  30  32
ATOM     31  C   UNL     1       7.123   2.934  11.646  0.00  0.00    +0.000 C 
ATOM     32  C   UNL     1       6.078   3.664  12.491  0.00  0.00    +0.000 C 
ATOM     33  C   UNL     1       4.680   3.335  11.965  0.00  0.00    +0.000 C 
ENDBRANCH  30  32
ENDBRANCH  24  30
ENDBRANCH   1  28
TORSDOF 5
ENDMDL
MODEL 8
REMARK VINA RESULT:      -8.5      1.635      2.925
REMARK  Name = 
REMARK  7 active torsions:
REMARK  status: ('A' for Active; 'I' for Inactive)
REMARK    1  A    between atoms: C_1  and  C_2
REMARK    2  A    between atoms: C_2  and  C_3
REMARK    3  A    between atoms: C_2  and  O_4
REMARK    4  A    between atoms: O_4  and  C_5
REMARK    5  A    between atoms: C_9  and  C_10
REMARK    6  A    between atoms: C_16  and  C_17
REMARK    7  A    between atoms: C_24  and  N_25
REMARK                            x       y       z     vdW  Elec       q    Type
REMARK                         _______ _______ _______ _____ _____    ______ ____
ROOT
ATOM      1  C   UNL     1       4.274   4.421  18.688  0.00  0.00    +0.000 A 
ATOM      2  C   UNL     1       4.014   3.065  18.807  0.00  0.00    +0.000 A 
ATOM      3  N   UNL     1       2.868   2.905  19.538  0.00  0.00    +0.000 N 
ATOM      4  C   UNL     1       2.361   4.129  19.900  0.00  0.00    +0.000 A 
ATOM      5  C   UNL     1       1.227   4.443  20.657  0.00  0.00    +0.000 A 
ATOM      6  C   UNL     1       0.945   5.798  20.866  0.00  0.00    +0.000 A 
ATOM      7  C   UNL     1       1.762   6.811  20.347  0.00  0.00    +0.000 A 
ATOM      8  C   UNL     1       2.898   6.455  19.594  0.00  0.00    +0.000 A 
ATOM      9  C   UNL     1       3.214   5.099  19.372  0.00  0.00    +0.000 A 
ATOM     10  H   UNL     1       2.454   2.018  19.787  0.00  0.00    +0.000 HD
ENDROOT
BRANCH   7  11
ATOM     11  C   UNL     1       1.416   8.213  20.608  0.00  0.00    +0.000 A 
ATOM     12  N   UNL     1       1.361   8.773  21.801  0.00  0.00    +0.000 NA
ATOM     13  N   UNL     1       1.066  10.120  21.735  0.00  0.00    +0.000 NA
ATOM     14  C   UNL     1       0.964  10.570  20.498  0.00  0.00    +0.000 A 
ATOM     15  N   UNL     1       0.750  11.868  20.152  0.00  0.00    +0.000 N 
ATOM     16  C   UNL     1       1.139  12.396  18.849  0.00  0.00    +0.000 C 
ATOM     17  C   UNL     1       1.063  13.906  19.024  0.00  0.00    +0.000 C 
ATOM     18  C   UNL     1       1.453  14.116  20.486  0.00  0.00    +0.000 C 
ATOM     19  C   UNL     1       0.765  12.912  21.176  0.00  0.00    +0.000 C 
ATOM     20  S   UNL     1       1.119   9.312  19.326  0.00  0.00    +0.000 S 
BRANCH  18  21
ATOM     21  N   UNL     1       2.919  14.101  20.634  0.00  0.00    +0.000 NA
ATOM     22  H   UNL     1       3.285  13.235  20.231  0.00  0.00    +0.000 HD
ATOM     23  H   UNL     1       3.150  14.035  21.626  0.00  0.00    +0.000 HD
ENDBRANCH  18  21
ENDBRANCH   7  11
BRANCH   1  28
ATOM     24  C   UNL     1       6.495   5.637  16.091  0.00  0.00    +0.000 A 
ATOM     25  C   UNL     1       7.551   6.215  16.779  0.00  0.00    +0.000 A 
ATOM     26  C   UNL     1       7.581   6.093  18.159  0.00  0.00    +0.000 A 
ATOM     27  C   UNL     1       6.531   5.446  18.802  0.00  0.00    +0.000 A 
ATOM     28  C   UNL     1       5.472   4.952  18.038  0.00  0.00    +0.000 A 
ATOM     29  N   UNL     1       5.453   5.013  16.681  0.00  0.00    +0.000 NA
BRANCH  24  30
ATOM     30  O   UNL     1       6.533   5.793  14.722  0.00  0.00    +0.000 OA
BRANCH  30  32
ATOM     31  C   UNL     1       6.073   3.816  13.509  0.00  0.00    +0.000 C 
ATOM     32  C   UNL     1       7.186   4.742  14.001  0.00  0.00    +0.000 C 
ATOM     33  C   UNL     1       7.946   5.305  12.799  0.00  0.00    +0.000 C 
ENDBRANCH  30  32
ENDBRANCH  24  30
ENDBRANCH   1  28
TORSDOF 5
ENDMDL
MODEL 9
REMARK VINA RESULT:      -8.4      2.025      3.322
REMARK  Name = 
REMARK  7 active torsions:
REMARK  status: ('A' for Active; 'I' for Inactive)
REMARK    1  A    between atoms: C_1  and  C_2
REMARK    2  A    between atoms: C_2  and  C_3
REMARK    3  A    between atoms: C_2  and  O_4
REMARK    4  A    between atoms: O_4  and  C_5
REMARK    5  A    between atoms: C_9  and  C_10
REMARK    6  A    between atoms: C_16  and  C_17
REMARK    7  A    between atoms: C_24  and  N_25
REMARK                            x       y       z     vdW  Elec       q    Type
REMARK                         _______ _______ _______ _____ _____    ______ ____
ROOT
ATOM      1  C   UNL     1       3.963   3.956  17.831  0.00  0.00    +0.000 A 
ATOM      2  C   UNL     1       3.958   2.614  18.175  0.00  0.00    +0.000 A 
ATOM      3  N   UNL     1       3.200   2.458  19.303  0.00  0.00    +0.000 N 
ATOM      4  C   UNL     1       2.697   3.670  19.710  0.00  0.00    +0.000 A 
ATOM      5  C   UNL     1       1.895   3.984  20.811  0.00  0.00    +0.000 A 
ATOM      6  C   UNL     1       1.524   5.324  20.977  0.00  0.00    +0.000 A 
ATOM      7  C   UNL     1       1.938   6.321  20.085  0.00  0.00    +0.000 A 
ATOM      8  C   UNL     1       2.752   5.965  18.991  0.00  0.00    +0.000 A 
ATOM      9  C   UNL     1       3.148   4.626  18.801  0.00  0.00    +0.000 A 
ATOM     10  H   UNL     1       3.037   1.581  19.780  0.00  0.00    +0.000 HD
ENDROOT
BRANCH   7  11
ATOM     11  C   UNL     1       1.522   7.709  20.320  0.00  0.00    +0.000 A 
ATOM     12  N   UNL     1       1.133   8.200  21.480  0.00  0.00    +0.000 NA
ATOM     13  N   UNL     1       0.857   9.551  21.411  0.00  0.00    +0.000 NA
ATOM     14  C   UNL     1       1.098  10.072  20.223  0.00  0.00    +0.000 A 
ATOM     15  N   UNL     1       0.978  11.389  19.905  0.00  0.00    +0.000 N 
ATOM     16  C   UNL     1       1.709  11.987  18.793  0.00  0.00    +0.000 C 
ATOM     17  C   UNL     1       1.574  13.486  19.026  0.00  0.00    +0.000 C 
ATOM     18  C   UNL     1       1.542  13.608  20.548  0.00  0.00    +0.000 C 
ATOM     19  C   UNL     1       0.699  12.373  20.951  0.00  0.00    +0.000 C 
ATOM     20  S   UNL     1       1.583   8.881  19.070  0.00  0.00    +0.000 S 
BRANCH  18  21
ATOM     21  N   UNL     1       2.910  13.574  21.095  0.00  0.00    +0.000 NA
ATOM     22  H   UNL     1       3.097  14.455  21.579  0.00  0.00    +0.000 HD
ATOM     23  H   UNL     1       3.574  13.563  20.321  0.00  0.00    +0.000 HD
ENDBRANCH  18  21
ENDBRANCH   7  11
BRANCH   1  28
ATOM     24  C   UNL     1       5.859   4.098  14.743  0.00  0.00    +0.000 A 
ATOM     25  C   UNL     1       5.961   5.451  14.458  0.00  0.00    +0.000 A 
ATOM     26  C   UNL     1       5.478   6.355  15.390  0.00  0.00    +0.000 A 
ATOM     27  C   UNL     1       4.868   5.875  16.543  0.00  0.00    +0.000 A 
ATOM     28  C   UNL     1       4.746   4.495  16.720  0.00  0.00    +0.000 A 
ATOM     29  N   UNL     1       5.263   3.594  15.844  0.00  0.00    +0.000 NA
BRANCH  24  30
ATOM     30  O   UNL     1       6.364   3.256  13.773  0.00  0.00    +0.000 OA
BRANCH  30  32
ATOM     31  C   UNL     1       7.139   2.896  11.568  0.00  0.00    +0.000 C 
ATOM     32  C   UNL     1       6.129   3.665  12.421  0.00  0.00    +0.000 C 
ATOM     33  C   UNL     1       4.710   3.294  11.986  0.00  0.00    +0.000 C 
ENDBRANCH  30  32
ENDBRANCH  24  30
ENDBRANCH   1  28
TORSDOF 5
ENDMDL
