MODEL 1
REMARK VINA RESULT:      -8.1      0.000      0.000
REMARK  Name = 
REMARK  6 active torsions:
REMARK  status: ('A' for Active; 'I' for Inactive)
REMARK    1  A    between atoms: C_7  and  O_8
REMARK    2  A    between atoms: O_8  and  C_9
REMARK    3  A    between atoms: C_9  and  C_10
REMARK    4  A    between atoms: C_13  and  S_14
REMARK    5  A    between atoms: S_14  and  C_15
REMARK    6  A    between atoms: N_20  and  C_21
REMARK                            x       y       z     vdW  Elec       q    Type
REMARK                         _______ _______ _______ _____ _____    ______ ____
ROOT
ATOM      1  C   UNL     1       3.194   6.842  18.084  0.00  0.00    +0.000 A 
ATOM      2  N   UNL     1       4.014   7.577  17.359  0.00  0.00    +0.000 NA
ATOM      3  N   UNL     1       4.836   6.744  16.651  0.00  0.00    +0.000 NA
ATOM      4  C   UNL     1       4.508   5.506  16.937  0.00  0.00    +0.000 A 
ATOM      5  N   UNL     1       3.444   5.488  17.836  0.00  0.00    +0.000 N 
ENDROOT
BRANCH   5   6
ATOM      6  C   UNL     1       2.800   4.389  18.471  0.00  0.00    +0.000 A 
ATOM      7  C   UNL     1       1.595   3.861  18.004  0.00  0.00    +0.000 A 
ATOM      8  C   UNL     1       1.088   2.697  18.586  0.00  0.00    +0.000 A 
ATOM      9  C   UNL     1       1.803   2.099  19.612  0.00  0.00    +0.000 A 
ATOM     10  N   UNL     1       2.949   2.604  20.109  0.00  0.00    +0.000 NA
ATOM     11  C   UNL     1       3.406   3.747  19.546  0.00  0.00    +0.000 A 
ENDBRANCH   5   6
BRANCH   1  12
ATOM     12  C   UNL     1       2.320   7.378  19.177  0.00  0.00    +0.000 C 
BRANCH  12  13
ATOM     13  O   UNL     1       1.768   8.621  18.733  0.00  0.00    +0.000 OA
BRANCH  13  20
ATOM     14 CL   UNL     1      -0.001   9.469  23.506  0.00  0.00    +0.000 Cl
ATOM     15  C   UNL     1       0.121   9.838  21.827  0.00  0.00    +0.000 A 
ATOM     16  C   UNL     1      -0.574  10.924  21.311  0.00  0.00    +0.000 A 
ATOM     17  C   UNL     1      -0.486  11.198  19.952  0.00  0.00    +0.000 A 
ATOM     18 CL   UNL     1      -1.354  12.530  19.295  0.00  0.00    +0.000 Cl
ATOM     19  C   UNL     1       0.304  10.403  19.119  0.00  0.00    +0.000 A 
ATOM     20  C   UNL     1       1.032   9.332  19.645  0.00  0.00    +0.000 A 
ATOM     21  C   UNL     1       0.917   9.033  21.003  0.00  0.00    +0.000 A 
ENDBRANCH  13  20
ENDBRANCH  12  13
ENDBRANCH   1  12
BRANCH   4  22
ATOM     22  S   UNL     1       5.190   4.102  16.175  0.00  0.00    +0.000 S 
BRANCH  22  23
ATOM     23  C   UNL     1       5.625   4.647  14.482  0.00  0.00    +0.000 C 
ATOM     24  C   UNL     1       7.121   4.983  14.448  0.00  0.00    +0.000 C 
ATOM     25  C   UNL     1       7.569   4.774  13.010  0.00  0.00    +0.000 C 
ATOM     26  C   UNL     1       6.573   3.809  12.383  0.00  0.00    +0.000 C 
ATOM     27  C   UNL     1       5.466   3.570  13.409  0.00  0.00    +0.000 C 
ENDBRANCH  22  23
ENDBRANCH   4  22
TORSDOF 6
ENDMDL
MODEL 2
REMARK VINA RESULT:      -7.8      0.609      1.824
REMARK  Name = 
REMARK  6 active torsions:
REMARK  status: ('A' for Active; 'I' for Inactive)
REMARK    1  A    between atoms: C_7  and  O_8
REMARK    2  A    between atoms: O_8  and  C_9
REMARK    3  A    between atoms: C_9  and  C_10
REMARK    4  A    between atoms: C_13  and  S_14
REMARK    5  A    between atoms: S_14  and  C_15
REMARK    6  A    between atoms: N_20  and  C_21
REMARK                            x       y       z     vdW  Elec       q    Type
REMARK                         _______ _______ _______ _____ _____    ______ ____
ROOT
ATOM      1  C   UNL     1       3.511   6.814  17.714  0.00  0.00    +0.000 A 
ATOM      2  N   UNL     1       4.347   7.551  17.008  0.00  0.00    +0.000 NA
ATOM      3  N   UNL     1       5.209   6.719  16.347  0.00  0.00    +0.000 NA
ATOM      4  C   UNL     1       4.889   5.480  16.642  0.00  0.00    +0.000 A 
ATOM      5  N   UNL     1       3.792   5.461  17.499  0.00  0.00    +0.000 N 
ENDROOT
BRANCH   5   6
ATOM      6  C   UNL     1       3.141   4.362  18.128  0.00  0.00    +0.000 A 
ATOM      7  C   UNL     1       1.932   3.845  17.659  0.00  0.00    +0.000 A 
ATOM      8  C   UNL     1       1.418   2.682  18.236  0.00  0.00    +0.000 A 
ATOM      9  C   UNL     1       2.130   2.072  19.256  0.00  0.00    +0.000 A 
ATOM     10  N   UNL     1       3.280   2.565  19.754  0.00  0.00    +0.000 NA
ATOM     11  C   UNL     1       3.744   3.708  19.197  0.00  0.00    +0.000 A 
ENDBRANCH   5   6
BRANCH   1  12
ATOM     12  C   UNL     1       2.586   7.354  18.762  0.00  0.00    +0.000 C 
BRANCH  12  13
ATOM     13  O   UNL     1       2.306   8.721  18.444  0.00  0.00    +0.000 OA
BRANCH  13  20
ATOM     14 CL   UNL     1      -1.929  11.669  18.493  0.00  0.00    +0.000 Cl
ATOM     15  C   UNL     1      -0.754  10.660  19.248  0.00  0.00    +0.000 A 
ATOM     16  C   UNL     1      -0.850  10.393  20.607  0.00  0.00    +0.000 A 
ATOM     17  C   UNL     1       0.117   9.597  21.209  0.00  0.00    +0.000 A 
ATOM     18 CL   UNL     1       0.021   9.270  22.896  0.00  0.00    +0.000 Cl
ATOM     19  C   UNL     1       1.161   9.059  20.455  0.00  0.00    +0.000 A 
ATOM     20  C   UNL     1       1.238   9.297  19.080  0.00  0.00    +0.000 A 
ATOM     21  C   UNL     1       0.288  10.126  18.480  0.00  0.00    +0.000 A 
ENDBRANCH  13  20
ENDBRANCH  12  13
ENDBRANCH   1  12
BRANCH   4  22
ATOM     22  S   UNL     1       5.624   4.076  15.933  0.00  0.00    +0.000 S 
BRANCH  22  23
ATOM     23  C   UNL     1       5.829   4.492  14.162  0.00  0.00    +0.000 C 
ATOM     24  C   UNL     1       7.242   5.051  13.954  0.00  0.00    +0.000 C 
ATOM     25  C   UNL     1       7.604   4.757  12.506  0.00  0.00    +0.000 C 
ATOM     26  C   UNL     1       6.734   3.587  12.072  0.00  0.00    +0.000 C 
ATOM     27  C   UNL     1       5.765   3.293  13.217  0.00  0.00    +0.000 C 
ENDBRANCH  22  23
ENDBRANCH   4  22
TORSDOF 6
ENDMDL
MODEL 3
REMARK VINA RESULT:      -7.8      1.233      1.579
REMARK  Name = 
REMARK  6 active torsions:
REMARK  status: ('A' for Active; 'I' for Inactive)
REMARK    1  A    between atoms: C_7  and  O_8
REMARK    2  A    between atoms: O_8  and  C_9
REMARK    3  A    between atoms: C_9  and  C_10
REMARK    4  A    between atoms: C_13  and  S_14
REMARK    5  A    between atoms: S_14  and  C_15
REMARK    6  A    between atoms: N_20  and  C_21
REMARK                            x       y       z     vdW  Elec       q    Type
REMARK                         _______ _______ _______ _____ _____    ______ ____
ROOT
ATOM      1  C   UNL     1       3.116   7.355  17.848  0.00  0.00    +0.000 A 
ATOM      2  N   UNL     1       4.204   7.918  17.359  0.00  0.00    +0.000 NA
ATOM      3  N   UNL     1       5.244   7.038  17.486  0.00  0.00    +0.000 NA
ATOM      4  C   UNL     1       4.786   5.941  18.041  0.00  0.00    +0.000 A 
ATOM      5  N   UNL     1       3.419   6.061  18.282  0.00  0.00    +0.000 N 
ENDROOT
BRANCH   5   6
ATOM      6  C   UNL     1       2.520   5.160  18.918  0.00  0.00    +0.000 A 
ATOM      7  C   UNL     1       1.764   4.232  18.200  0.00  0.00    +0.000 A 
ATOM      8  C   UNL     1       1.006   3.286  18.894  0.00  0.00    +0.000 A 
ATOM      9  C   UNL     1       1.032   3.297  20.280  0.00  0.00    +0.000 A 
ATOM     10  N   UNL     1       1.722   4.202  21.000  0.00  0.00    +0.000 NA
ATOM     11  C   UNL     1       2.427   5.125  20.306  0.00  0.00    +0.000 A 
ENDBRANCH   5   6
BRANCH   1  12
ATOM     12  C   UNL     1       1.836   8.086  18.119  0.00  0.00    +0.000 C 
BRANCH  12  13
ATOM     13  O   UNL     1       1.814   8.441  19.505  0.00  0.00    +0.000 OA
BRANCH  13  20
ATOM     14 CL   UNL     1      -0.980  10.886  23.089  0.00  0.00    +0.000 Cl
ATOM     15  C   UNL     1      -0.499  10.583  21.462  0.00  0.00    +0.000 A 
ATOM     16  C   UNL     1      -1.085  11.301  20.429  0.00  0.00    +0.000 A 
ATOM     17  C   UNL     1      -0.705  11.032  19.120  0.00  0.00    +0.000 A 
ATOM     18 CL   UNL     1      -1.434  11.902  17.826  0.00  0.00    +0.000 Cl
ATOM     19  C   UNL     1       0.264  10.064  18.848  0.00  0.00    +0.000 A 
ATOM     20  C   UNL     1       0.880   9.367  19.891  0.00  0.00    +0.000 A 
ATOM     21  C   UNL     1       0.475   9.611  21.204  0.00  0.00    +0.000 A 
ENDBRANCH  13  20
ENDBRANCH  12  13
ENDBRANCH   1  12
BRANCH   4  22
ATOM     22  S   UNL     1       5.715   4.493  18.280  0.00  0.00    +0.000 S 
BRANCH  22  23
ATOM     23  C   UNL     1       6.165   3.935  16.595  0.00  0.00    +0.000 C 
ATOM     24  C   UNL     1       4.944   4.110  15.683  0.00  0.00    +0.000 C 
ATOM     25  C   UNL     1       5.490   4.291  14.276  0.00  0.00    +0.000 C 
ATOM     26  C   UNL     1       6.917   4.795  14.428  0.00  0.00    +0.000 C 
ATOM     27  C   UNL     1       7.251   4.770  15.919  0.00  0.00    +0.000 C 
ENDBRANCH  22  23
ENDBRANCH   4  22
TORSDOF 6
ENDMDL
MODEL 4
REMARK VINA RESULT:      -7.8      0.915      2.053
REMARK  Name = 
REMARK  6 active torsions:
REMARK  status: ('A' for Active; 'I' for Inactive)
REMARK    1  A    between atoms: C_7  and  O_8
REMARK    2  A    between atoms: O_8  and  C_9
REMARK    3  A    between atoms: C_9  and  C_10
REMARK    4  A    between atoms: C_13  and  S_14
REMARK    5  A    between atoms: S_14  and  C_15
REMARK    6  A    between atoms: N_20  and  C_21
REMARK                            x       y       z     vdW  Elec       q    Type
REMARK                         _______ _______ _______ _____ _____    ______ ____
ROOT
ATOM      1  C   UNL     1       3.541   6.634  17.881  0.00  0.00    +0.000 A 
ATOM      2  N   UNL     1       4.405   7.396  17.239  0.00  0.00    +0.000 NA
ATOM      3  N   UNL     1       5.246   6.590  16.521  0.00  0.00    +0.000 NA
ATOM      4  C   UNL     1       4.887   5.344  16.718  0.00  0.00    +0.000 A 
ATOM      5  N   UNL     1       3.782   5.293  17.565  0.00  0.00    +0.000 N 
ENDROOT
BRANCH   5   6
ATOM      6  C   UNL     1       3.093   4.170  18.104  0.00  0.00    +0.000 A 
ATOM      7  C   UNL     1       3.587   3.442  19.188  0.00  0.00    +0.000 A 
ATOM      8  C   UNL     1       2.797   2.440  19.754  0.00  0.00    +0.000 A 
ATOM      9  C   UNL     1       1.540   2.201  19.222  0.00  0.00    +0.000 A 
ATOM     10  N   UNL     1       1.050   2.860  18.155  0.00  0.00    +0.000 NA
ATOM     11  C   UNL     1       1.845   3.809  17.607  0.00  0.00    +0.000 A 
ENDBRANCH   5   6
BRANCH   1  12
ATOM     12  C   UNL     1       2.625   7.121  18.963  0.00  0.00    +0.000 C 
BRANCH  12  13
ATOM     13  O   UNL     1       1.713   8.057  18.382  0.00  0.00    +0.000 OA
BRANCH  13  20
ATOM     14 CL   UNL     1       0.696  13.065  19.105  0.00  0.00    +0.000 Cl
ATOM     15  C   UNL     1       0.836  11.434  19.646  0.00  0.00    +0.000 A 
ATOM     16  C   UNL     1       0.564  11.125  20.971  0.00  0.00    +0.000 A 
ATOM     17  C   UNL     1       0.703   9.811  21.400  0.00  0.00    +0.000 A 
ATOM     18 CL   UNL     1       0.386   9.415  23.045  0.00  0.00    +0.000 Cl
ATOM     19  C   UNL     1       1.094   8.812  20.507  0.00  0.00    +0.000 A 
ATOM     20  C   UNL     1       1.333   9.117  19.164  0.00  0.00    +0.000 A 
ATOM     21  C   UNL     1       1.228  10.442  18.739  0.00  0.00    +0.000 A 
ENDBRANCH  13  20
ENDBRANCH  12  13
ENDBRANCH   1  12
BRANCH   4  22
ATOM     22  S   UNL     1       5.584   3.976  15.907  0.00  0.00    +0.000 S 
BRANCH  22  23
ATOM     23  C   UNL     1       5.831   4.526  14.178  0.00  0.00    +0.000 C 
ATOM     24  C   UNL     1       7.269   5.037  14.031  0.00  0.00    +0.000 C 
ATOM     25  C   UNL     1       7.639   4.846  12.568  0.00  0.00    +0.000 C 
ATOM     26  C   UNL     1       6.725   3.755  12.031  0.00  0.00    +0.000 C 
ATOM     27  C   UNL     1       5.729   3.411  13.138  0.00  0.00    +0.000 C 
ENDBRANCH  22  23
ENDBRANCH   4  22
TORSDOF 6
ENDMDL
MODEL 5
REMARK VINA RESULT:      -7.8      0.856      1.129
REMARK  Name = 
REMARK  6 active torsions:
REMARK  status: ('A' for Active; 'I' for Inactive)
REMARK    1  A    between atoms: C_7  and  O_8
REMARK    2  A    between atoms: O_8  and  C_9
REMARK    3  A    between atoms: C_9  and  C_10
REMARK    4  A    between atoms: C_13  and  S_14
REMARK    5  A    between atoms: S_14  and  C_15
REMARK    6  A    between atoms: N_20  and  C_21
REMARK                            x       y       z     vdW  Elec       q    Type
REMARK                         _______ _______ _______ _____ _____    ______ ____
ROOT
ATOM      1  C   UNL     1       3.648   6.616  17.953  0.00  0.00    +0.000 A 
ATOM      2  N   UNL     1       4.532   7.370  17.329  0.00  0.00    +0.000 NA
ATOM      3  N   UNL     1       5.355   6.560  16.595  0.00  0.00    +0.000 NA
ATOM      4  C   UNL     1       4.964   5.319  16.764  0.00  0.00    +0.000 A 
ATOM      5  N   UNL     1       3.856   5.276  17.608  0.00  0.00    +0.000 N 
ENDROOT
BRANCH   5   6
ATOM      6  C   UNL     1       3.139   4.160  18.120  0.00  0.00    +0.000 A 
ATOM      7  C   UNL     1       3.618   3.389  19.180  0.00  0.00    +0.000 A 
ATOM      8  C   UNL     1       2.803   2.394  19.725  0.00  0.00    +0.000 A 
ATOM      9  C   UNL     1       1.537   2.205  19.195  0.00  0.00    +0.000 A 
ATOM     10  N   UNL     1       1.060   2.908  18.149  0.00  0.00    +0.000 NA
ATOM     11  C   UNL     1       1.878   3.848  17.622  0.00  0.00    +0.000 A 
ENDBRANCH   5   6
BRANCH   1  12
ATOM     12  C   UNL     1       2.741   7.101  19.043  0.00  0.00    +0.000 C 
BRANCH  12  13
ATOM     13  O   UNL     1       1.873   8.094  18.487  0.00  0.00    +0.000 OA
BRANCH  13  20
ATOM     14 CL   UNL     1       0.043   9.498  23.104  0.00  0.00    +0.000 Cl
ATOM     15  C   UNL     1       0.469   9.810  21.463  0.00  0.00    +0.000 A 
ATOM     16  C   UNL     1       0.280  11.079  20.934  0.00  0.00    +0.000 A 
ATOM     17  C   UNL     1       0.606  11.312  19.604  0.00  0.00    +0.000 A 
ATOM     18 CL   UNL     1       0.362  12.876  18.929  0.00  0.00    +0.000 Cl
ATOM     19  C   UNL     1       1.132  10.288  18.814  0.00  0.00    +0.000 A 
ATOM     20  C   UNL     1       1.356   9.019  19.356  0.00  0.00    +0.000 A 
ATOM     21  C   UNL     1       0.997   8.774  20.682  0.00  0.00    +0.000 A 
ENDBRANCH  13  20
ENDBRANCH  12  13
ENDBRANCH   1  12
BRANCH   4  22
ATOM     22  S   UNL     1       5.629   3.952  15.925  0.00  0.00    +0.000 S 
BRANCH  22  23
ATOM     23  C   UNL     1       5.871   4.526  14.203  0.00  0.00    +0.000 C 
ATOM     24  C   UNL     1       7.306   5.050  14.062  0.00  0.00    +0.000 C 
ATOM     25  C   UNL     1       7.676   4.881  12.597  0.00  0.00    +0.000 C 
ATOM     26  C   UNL     1       6.771   3.789  12.046  0.00  0.00    +0.000 C 
ATOM     27  C   UNL     1       5.778   3.424  13.148  0.00  0.00    +0.000 C 
ENDBRANCH  22  23
ENDBRANCH   4  22
TORSDOF 6
ENDMDL
MODEL 6
REMARK VINA RESULT:      -7.8      1.047      1.258
REMARK  Name = 
REMARK  6 active torsions:
REMARK  status: ('A' for Active; 'I' for Inactive)
REMARK    1  A    between atoms: C_7  and  O_8
REMARK    2  A    between atoms: O_8  and  C_9
REMARK    3  A    between atoms: C_9  and  C_10
REMARK    4  A    between atoms: C_13  and  S_14
REMARK    5  A    between atoms: S_14  and  C_15
REMARK    6  A    between atoms: N_20  and  C_21
REMARK                            x       y       z     vdW  Elec       q    Type
REMARK                         _______ _______ _______ _____ _____    ______ ____
ROOT
ATOM      1  C   UNL     1       2.994   6.971  18.153  0.00  0.00    +0.000 A 
ATOM      2  N   UNL     1       3.810   7.698  17.413  0.00  0.00    +0.000 NA
ATOM      3  N   UNL     1       4.649   6.856  16.735  0.00  0.00    +0.000 NA
ATOM      4  C   UNL     1       4.336   5.622  17.054  0.00  0.00    +0.000 A 
ATOM      5  N   UNL     1       3.265   5.615  17.945  0.00  0.00    +0.000 N 
ENDROOT
BRANCH   5   6
ATOM      6  C   UNL     1       2.631   4.525  18.605  0.00  0.00    +0.000 A 
ATOM      7  C   UNL     1       1.476   3.922  18.106  0.00  0.00    +0.000 A 
ATOM      8  C   UNL     1       0.984   2.771  18.726  0.00  0.00    +0.000 A 
ATOM      9  C   UNL     1       1.664   2.260  19.820  0.00  0.00    +0.000 A 
ATOM     10  N   UNL     1       2.760   2.839  20.347  0.00  0.00    +0.000 NA
ATOM     11  C   UNL     1       3.202   3.968  19.745  0.00  0.00    +0.000 A 
ENDBRANCH   5   6
BRANCH   1  12
ATOM     12  C   UNL     1       2.103   7.526  19.223  0.00  0.00    +0.000 C 
BRANCH  12  13
ATOM     13  O   UNL     1       2.169   8.954  19.157  0.00  0.00    +0.000 OA
BRANCH  13  20
ATOM     14 CL   UNL     1      -1.286  11.772  21.756  0.00  0.00    +0.000 Cl
ATOM     15  C   UNL     1      -0.726  10.944  20.352  0.00  0.00    +0.000 A 
ATOM     16  C   UNL     1      -1.511  10.927  19.207  0.00  0.00    +0.000 A 
ATOM     17  C   UNL     1      -1.058  10.238  18.089  0.00  0.00    +0.000 A 
ATOM     18 CL   UNL     1      -2.027  10.193  16.667  0.00  0.00    +0.000 Cl
ATOM     19  C   UNL     1       0.176   9.585  18.110  0.00  0.00    +0.000 A 
ATOM     20  C   UNL     1       0.982   9.632  19.251  0.00  0.00    +0.000 A 
ATOM     21  C   UNL     1       0.514  10.295  20.387  0.00  0.00    +0.000 A 
ENDBRANCH  13  20
ENDBRANCH  12  13
ENDBRANCH   1  12
BRANCH   4  22
ATOM     22  S   UNL     1       5.044   4.207  16.338  0.00  0.00    +0.000 S 
BRANCH  22  23
ATOM     23  C   UNL     1       5.569   4.735  14.665  0.00  0.00    +0.000 C 
ATOM     24  C   UNL     1       7.075   5.020  14.695  0.00  0.00    +0.000 C 
ATOM     25  C   UNL     1       7.576   4.794  13.277  0.00  0.00    +0.000 C 
ATOM     26  C   UNL     1       6.575   3.864  12.608  0.00  0.00    +0.000 C 
ATOM     27  C   UNL     1       5.418   3.664  13.586  0.00  0.00    +0.000 C 
ENDBRANCH  22  23
ENDBRANCH   4  22
TORSDOF 6
ENDMDL
MODEL 7
REMARK VINA RESULT:      -7.7      1.224      2.361
REMARK  Name = 
REMARK  6 active torsions:
REMARK  status: ('A' for Active; 'I' for Inactive)
REMARK    1  A    between atoms: C_7  and  O_8
REMARK    2  A    between atoms: O_8  and  C_9
REMARK    3  A    between atoms: C_9  and  C_10
REMARK    4  A    between atoms: C_13  and  S_14
REMARK    5  A    between atoms: S_14  and  C_15
REMARK    6  A    between atoms: N_20  and  C_21
REMARK                            x       y       z     vdW  Elec       q    Type
REMARK                         _______ _______ _______ _____ _____    ______ ____
ROOT
ATOM      1  C   UNL     1       3.154   7.231  17.812  0.00  0.00    +0.000 A 
ATOM      2  N   UNL     1       4.223   7.873  17.384  0.00  0.00    +0.000 NA
ATOM      3  N   UNL     1       5.304   7.040  17.493  0.00  0.00    +0.000 NA
ATOM      4  C   UNL     1       4.889   5.893  17.976  0.00  0.00    +0.000 A 
ATOM      5  N   UNL     1       3.512   5.931  18.186  0.00  0.00    +0.000 N 
ENDROOT
BRANCH   5   6
ATOM      6  C   UNL     1       2.644   4.954  18.749  0.00  0.00    +0.000 A 
ATOM      7  C   UNL     1       2.319   4.940  20.106  0.00  0.00    +0.000 A 
ATOM      8  C   UNL     1       1.356   4.040  20.568  0.00  0.00    +0.000 A 
ATOM      9  C   UNL     1       0.747   3.189  19.659  0.00  0.00    +0.000 A 
ATOM     10  N   UNL     1       1.065   3.154  18.351  0.00  0.00    +0.000 NA
ATOM     11  C   UNL     1       2.021   4.017  17.932  0.00  0.00    +0.000 A 
ENDBRANCH   5   6
BRANCH   1  12
ATOM     12  C   UNL     1       1.831   7.880  18.086  0.00  0.00    +0.000 C 
BRANCH  12  13
ATOM     13  O   UNL     1       1.851   8.376  19.428  0.00  0.00    +0.000 OA
BRANCH  13  20
ATOM     14 CL   UNL     1      -1.059  12.455  18.192  0.00  0.00    +0.000 Cl
ATOM     15  C   UNL     1      -0.455  11.281  19.299  0.00  0.00    +0.000 A 
ATOM     16  C   UNL     1      -0.879  11.302  20.620  0.00  0.00    +0.000 A 
ATOM     17  C   UNL     1      -0.368  10.364  21.509  0.00  0.00    +0.000 A 
ATOM     18 CL   UNL     1      -0.872  10.387  23.154  0.00  0.00    +0.000 Cl
ATOM     19  C   UNL     1       0.548   9.403  21.076  0.00  0.00    +0.000 A 
ATOM     20  C   UNL     1       0.948   9.360  19.737  0.00  0.00    +0.000 A 
ATOM     21  C   UNL     1       0.463  10.322  18.851  0.00  0.00    +0.000 A 
ENDBRANCH  13  20
ENDBRANCH  12  13
ENDBRANCH   1  12
BRANCH   4  22
ATOM     22  S   UNL     1       5.885   4.483  18.165  0.00  0.00    +0.000 S 
BRANCH  22  23
ATOM     23  C   UNL     1       6.297   3.963  16.458  0.00  0.00    +0.000 C 
ATOM     24  C   UNL     1       5.036   4.088  15.594  0.00  0.00    +0.000 C 
ATOM     25  C   UNL     1       5.520   4.309  14.169  0.00  0.00    +0.000 C 
ATOM     26  C   UNL     1       6.927   4.879  14.274  0.00  0.00    +0.000 C 
ATOM     27  C   UNL     1       7.317   4.855  15.752  0.00  0.00    +0.000 C 
ENDBRANCH  22  23
ENDBRANCH   4  22
TORSDOF 6
ENDMDL
MODEL 8
REMARK VINA RESULT:      -7.7      1.687      3.646
REMARK  Name = 
REMARK  6 active torsions:
REMARK  status: ('A' for Active; 'I' for Inactive)
REMARK    1  A    between atoms: C_7  and  O_8
REMARK    2  A    between atoms: O_8  and  C_9
REMARK    3  A    between atoms: C_9  and  C_10
REMARK    4  A    between atoms: C_13  and  S_14
REMARK    5  A    between atoms: S_14  and  C_15
REMARK    6  A    between atoms: N_20  and  C_21
REMARK                            x       y       z     vdW  Elec       q    Type
REMARK                         _______ _______ _______ _____ _____    ______ ____
ROOT
ATOM      1  C   UNL     1       3.163   5.523  18.483  0.00  0.00    +0.000 A 
ATOM      2  N   UNL     1       2.232   4.706  18.030  0.00  0.00    +0.000 NA
ATOM      3  N   UNL     1       2.803   3.858  17.120  0.00  0.00    +0.000 NA
ATOM      4  C   UNL     1       4.078   4.153  17.030  0.00  0.00    +0.000 A 
ATOM      5  N   UNL     1       4.390   5.200  17.894  0.00  0.00    +0.000 N 
ENDROOT
BRANCH   5   6
ATOM      6  C   UNL     1       5.619   5.890  18.090  0.00  0.00    +0.000 A 
ATOM      7  C   UNL     1       6.591   5.441  18.985  0.00  0.00    +0.000 A 
ATOM      8  C   UNL     1       7.830   6.084  19.028  0.00  0.00    +0.000 A 
ATOM      9  C   UNL     1       8.057   7.151  18.173  0.00  0.00    +0.000 A 
ATOM     10  N   UNL     1       7.127   7.630  17.324  0.00  0.00    +0.000 NA
ATOM     11  C   UNL     1       5.926   7.007  17.320  0.00  0.00    +0.000 A 
ENDBRANCH   5   6
BRANCH   1  12
ATOM     12  C   UNL     1       2.887   6.751  19.298  0.00  0.00    +0.000 C 
BRANCH  12  13
ATOM     13  O   UNL     1       2.371   7.757  18.422  0.00  0.00    +0.000 OA
BRANCH  13  20
ATOM     14 CL   UNL     1      -1.050  11.598  18.008  0.00  0.00    +0.000 Cl
ATOM     15  C   UNL     1      -0.159  10.428  18.906  0.00  0.00    +0.000 A 
ATOM     16  C   UNL     1      -0.340  10.334  20.279  0.00  0.00    +0.000 A 
ATOM     17  C   UNL     1       0.401   9.402  20.995  0.00  0.00    +0.000 A 
ATOM     18 CL   UNL     1       0.201   9.285  22.701  0.00  0.00    +0.000 Cl
ATOM     19  C   UNL     1       1.303   8.560  20.341  0.00  0.00    +0.000 A 
ATOM     20  C   UNL     1       1.457   8.630  18.954  0.00  0.00    +0.000 A 
ATOM     21  C   UNL     1       0.740   9.589  18.237  0.00  0.00    +0.000 A 
ENDBRANCH  13  20
ENDBRANCH  12  13
ENDBRANCH   1  12
BRANCH   4  22
ATOM     22  S   UNL     1       5.234   3.255  16.095  0.00  0.00    +0.000 S 
BRANCH  22  23
ATOM     23  C   UNL     1       5.633   4.336  14.672  0.00  0.00    +0.000 C 
ATOM     24  C   UNL     1       7.083   4.815  14.816  0.00  0.00    +0.000 C 
ATOM     25  C   UNL     1       7.575   5.104  13.407  0.00  0.00    +0.000 C 
ATOM     26  C   UNL     1       6.703   4.285  12.468  0.00  0.00    +0.000 C 
ATOM     27  C   UNL     1       5.613   3.631  13.316  0.00  0.00    +0.000 C 
ENDBRANCH  22  23
ENDBRANCH   4  22
TORSDOF 6
ENDMDL
MODEL 9
REMARK VINA RESULT:      -7.7      1.122      2.274
REMARK  Name = 
REMARK  6 active torsions:
REMARK  status: ('A' for Active; 'I' for Inactive)
REMARK    1  A    between atoms: C_7  and  O_8
REMARK    2  A    between atoms: O_8  and  C_9
REMARK    3  A    between atoms: C_9  and  C_10
REMARK    4  A    between atoms: C_13  and  S_14
REMARK    5  A    between atoms: S_14  and  C_15
REMARK    6  A    between atoms: N_20  and  C_21
REMARK                            x       y       z     vdW  Elec       q    Type
REMARK                         _______ _______ _______ _____ _____    ______ ____
ROOT
ATOM      1  C   UNL     1       2.921   7.219  17.897  0.00  0.00    +0.000 A 
ATOM      2  N   UNL     1       3.958   7.817  17.343  0.00  0.00    +0.000 NA
ATOM      3  N   UNL     1       5.047   6.998  17.463  0.00  0.00    +0.000 NA
ATOM      4  C   UNL     1       4.670   5.902  18.078  0.00  0.00    +0.000 A 
ATOM      5  N   UNL     1       3.309   5.961  18.369  0.00  0.00    +0.000 N 
ENDROOT
BRANCH   5   6
ATOM      6  C   UNL     1       2.484   5.042  19.076  0.00  0.00    +0.000 A 
ATOM      7  C   UNL     1       1.705   4.086  18.422  0.00  0.00    +0.000 A 
ATOM      8  C   UNL     1       1.026   3.126  19.177  0.00  0.00    +0.000 A 
ATOM      9  C   UNL     1       1.151   3.152  20.557  0.00  0.00    +0.000 A 
ATOM     10  N   UNL     1       1.866   4.083  21.218  0.00  0.00    +0.000 NA
ATOM     11  C   UNL     1       2.492   5.018  20.466  0.00  0.00    +0.000 A 
ENDBRANCH   5   6
BRANCH   1  12
ATOM     12  C   UNL     1       1.614   7.893  18.190  0.00  0.00    +0.000 C 
BRANCH  12  13
ATOM     13  O   UNL     1       1.894   9.208  18.680  0.00  0.00    +0.000 OA
BRANCH  13  20
ATOM     14 CL   UNL     1      -2.071  12.432  19.397  0.00  0.00    +0.000 Cl
ATOM     15  C   UNL     1      -0.919  11.271  19.942  0.00  0.00    +0.000 A 
ATOM     16  C   UNL     1      -0.920  10.877  21.274  0.00  0.00    +0.000 A 
ATOM     17  C   UNL     1       0.028   9.958  21.706  0.00  0.00    +0.000 A 
ATOM     18 CL   UNL     1       0.051   9.472  23.357  0.00  0.00    +0.000 Cl
ATOM     19  C   UNL     1       0.957   9.424  20.811  0.00  0.00    +0.000 A 
ATOM     20  C   UNL     1       0.934   9.793  19.463  0.00  0.00    +0.000 A 
ATOM     21  C   UNL     1       0.006  10.743  19.034  0.00  0.00    +0.000 A 
ENDBRANCH  13  20
ENDBRANCH  12  13
ENDBRANCH   1  12
BRANCH   4  22
ATOM     22  S   UNL     1       5.684   4.516  18.337  0.00  0.00    +0.000 S 
BRANCH  22  23
ATOM     23  C   UNL     1       6.167   3.963  16.660  0.00  0.00    +0.000 C 
ATOM     24  C   UNL     1       4.961   4.129  15.727  0.00  0.00    +0.000 C 
ATOM     25  C   UNL     1       5.531   4.316  14.329  0.00  0.00    +0.000 C 
ATOM     26  C   UNL     1       6.951   4.832  14.507  0.00  0.00    +0.000 C 
ATOM     27  C   UNL     1       7.258   4.809  16.003  0.00  0.00    +0.000 C 
ENDBRANCH  22  23
ENDBRANCH   4  22
TORSDOF 6
ENDMDL
