MODEL 1
REMARK VINA RESULT:      -7.8      0.000      0.000
REMARK  Name = 
REMARK  3 active torsions:
REMARK  status: ('A' for Active; 'I' for Inactive)
REMARK    1  A    between atoms: N_6  and  C_7
REMARK    2  A    between atoms: N_14  and  C_15
REMARK    3  A    between atoms: C_15  and  C_16
REMARK                            x       y       z     vdW  Elec       q    Type
REMARK                         _______ _______ _______ _____ _____    ______ ____
ROOT
ATOM      1  O   UNL     1       3.926   1.622  18.774  0.00  0.00    +0.000 OA
ATOM      2  C   UNL     1       3.284   2.668  18.820  0.00  0.00    +0.000 C 
ATOM      3  C   UNL     1       1.789   2.697  18.928  0.00  0.00    +0.000 C 
ATOM      4  S   UNL     1       1.343   4.421  19.144  0.00  0.00    +0.000 S 
ATOM      5  C   UNL     1       2.977   4.995  18.888  0.00  0.00    +0.000 C 
ATOM      6  N   UNL     1       3.384   6.224  18.823  0.00  0.00    +0.000 NA
ATOM      7  N   UNL     1       3.836   3.932  18.787  0.00  0.00    +0.000 N 
ENDROOT
BRANCH   6   8
ATOM      8  C   UNL     1       2.531   7.331  18.965  0.00  0.00    +0.000 A 
ATOM      9  C   UNL     1       2.014   7.618  20.234  0.00  0.00    +0.000 A 
ATOM     10  C   UNL     1       1.132   8.690  20.428  0.00  0.00    +0.000 A 
ATOM     11  C   UNL     1       0.752   9.477  19.345  0.00  0.00    +0.000 A 
ATOM     12 CL   UNL     1      -0.385  10.748  19.558  0.00  0.00    +0.000 Cl
ATOM     13  C   UNL     1       1.296   9.242  18.086  0.00  0.00    +0.000 A 
ATOM     14  C   UNL     1       2.215   8.202  17.913  0.00  0.00    +0.000 A 
ENDBRANCH   6   8
BRANCH   7  15
ATOM     15  C   UNL     1       5.281   4.089  18.736  0.00  0.00    +0.000 C 
BRANCH  15  16
ATOM     16  C   UNL     1       5.810   4.269  17.340  0.00  0.00    +0.000 A 
ATOM     17  C   UNL     1       4.972   4.165  16.226  0.00  0.00    +0.000 A 
ATOM     18  C   UNL     1       5.493   4.344  14.949  0.00  0.00    +0.000 A 
ATOM     19  C   UNL     1       6.844   4.619  14.824  0.00  0.00    +0.000 A 
ATOM     20  N   UNL     1       7.686   4.728  15.874  0.00  0.00    +0.000 NA
ATOM     21  C   UNL     1       7.153   4.549  17.105  0.00  0.00    +0.000 A 
ENDBRANCH  15  16
ENDBRANCH   7  15
TORSDOF 3
ENDMDL
MODEL 2
REMARK VINA RESULT:      -7.8      0.495      1.158
REMARK  Name = 
REMARK  3 active torsions:
REMARK  status: ('A' for Active; 'I' for Inactive)
REMARK    1  A    between atoms: N_6  and  C_7
REMARK    2  A    between atoms: N_14  and  C_15
REMARK    3  A    between atoms: C_15  and  C_16
REMARK                            x       y       z     vdW  Elec       q    Type
REMARK                         _______ _______ _______ _____ _____    ______ ____
ROOT
ATOM      1  O   UNL     1       4.250   1.813  19.421  0.00  0.00    +0.000 OA
ATOM      2  C   UNL     1       3.548   2.820  19.409  0.00  0.00    +0.000 C 
ATOM      3  C   UNL     1       2.067   2.779  19.638  0.00  0.00    +0.000 C 
ATOM      4  S   UNL     1       1.530   4.489  19.706  0.00  0.00    +0.000 S 
ATOM      5  C   UNL     1       3.100   5.121  19.255  0.00  0.00    +0.000 C 
ATOM      6  N   UNL     1       3.420   6.355  19.026  0.00  0.00    +0.000 NA
ATOM      7  N   UNL     1       4.014   4.102  19.195  0.00  0.00    +0.000 N 
ENDROOT
BRANCH   6   8
ATOM      8  C   UNL     1       2.512   7.422  19.120  0.00  0.00    +0.000 A 
ATOM      9  C   UNL     1       2.204   8.141  17.958  0.00  0.00    +0.000 A 
ATOM     10  C   UNL     1       1.330   9.236  17.999  0.00  0.00    +0.000 A 
ATOM     11  C   UNL     1       0.767   9.627  19.210  0.00  0.00    +0.000 A 
ATOM     12 CL   UNL     1      -0.247  11.012  19.284  0.00  0.00    +0.000 Cl
ATOM     13  C   UNL     1       1.018   8.894  20.366  0.00  0.00    +0.000 A 
ATOM     14  C   UNL     1       1.850   7.771  20.305  0.00  0.00    +0.000 A 
ENDBRANCH   6   8
BRANCH   7  15
ATOM     15  C   UNL     1       5.437   4.331  19.008  0.00  0.00    +0.000 C 
BRANCH  15  16
ATOM     16  C   UNL     1       5.819   4.551  17.569  0.00  0.00    +0.000 A 
ATOM     17  C   UNL     1       5.093   3.967  16.528  0.00  0.00    +0.000 A 
ATOM     18  C   UNL     1       5.469   4.196  15.209  0.00  0.00    +0.000 A 
ATOM     19  C   UNL     1       6.568   5.004  14.971  0.00  0.00    +0.000 A 
ATOM     20  N   UNL     1       7.295   5.586  15.949  0.00  0.00    +0.000 NA
ATOM     21  C   UNL     1       6.907   5.347  17.223  0.00  0.00    +0.000 A 
ENDBRANCH  15  16
ENDBRANCH   7  15
TORSDOF 3
ENDMDL
MODEL 3
REMARK VINA RESULT:      -7.3      1.332      1.873
REMARK  Name = 
REMARK  3 active torsions:
REMARK  status: ('A' for Active; 'I' for Inactive)
REMARK    1  A    between atoms: N_6  and  C_7
REMARK    2  A    between atoms: N_14  and  C_15
REMARK    3  A    between atoms: C_15  and  C_16
REMARK                            x       y       z     vdW  Elec       q    Type
REMARK                         _______ _______ _______ _____ _____    ______ ____
ROOT
ATOM      1  O   UNL     1       3.622   1.733  17.785  0.00  0.00    +0.000 OA
ATOM      2  C   UNL     1       3.066   2.765  18.150  0.00  0.00    +0.000 C 
ATOM      3  C   UNL     1       1.872   2.765  19.057  0.00  0.00    +0.000 C 
ATOM      4  S   UNL     1       1.545   4.486  19.442  0.00  0.00    +0.000 S 
ATOM      5  C   UNL     1       2.750   5.086  18.322  0.00  0.00    +0.000 C 
ATOM      6  N   UNL     1       3.004   6.319  18.018  0.00  0.00    +0.000 NA
ATOM      7  N   UNL     1       3.457   4.039  17.792  0.00  0.00    +0.000 N 
ENDROOT
BRANCH   6   8
ATOM      8  C   UNL     1       2.321   7.412  18.577  0.00  0.00    +0.000 A 
ATOM      9  C   UNL     1       2.097   7.424  19.959  0.00  0.00    +0.000 A 
ATOM     10  C   UNL     1       1.392   8.472  20.567  0.00  0.00    +0.000 A 
ATOM     11  C   UNL     1       0.895   9.513  19.789  0.00  0.00    +0.000 A 
ATOM     12 CL   UNL     1      -0.033  10.765  20.513  0.00  0.00    +0.000 Cl
ATOM     13  C   UNL     1       1.152   9.547  18.422  0.00  0.00    +0.000 A 
ATOM     14  C   UNL     1       1.901   8.524  17.833  0.00  0.00    +0.000 A 
ENDBRANCH   6   8
BRANCH   7  15
ATOM     15  C   UNL     1       4.633   4.226  16.957  0.00  0.00    +0.000 C 
BRANCH  15  16
ATOM     16  C   UNL     1       5.757   4.935  17.663  0.00  0.00    +0.000 A 
ATOM     17  C   UNL     1       6.495   5.937  17.028  0.00  0.00    +0.000 A 
ATOM     18  C   UNL     1       7.524   6.577  17.711  0.00  0.00    +0.000 A 
ATOM     19  C   UNL     1       7.785   6.191  19.015  0.00  0.00    +0.000 A 
ATOM     20  N   UNL     1       7.095   5.228  19.663  0.00  0.00    +0.000 NA
ATOM     21  C   UNL     1       6.100   4.622  18.975  0.00  0.00    +0.000 A 
ENDBRANCH  15  16
ENDBRANCH   7  15
TORSDOF 3
ENDMDL
MODEL 4
REMARK VINA RESULT:      -7.2      0.683      1.487
REMARK  Name = 
REMARK  3 active torsions:
REMARK  status: ('A' for Active; 'I' for Inactive)
REMARK    1  A    between atoms: N_6  and  C_7
REMARK    2  A    between atoms: N_14  and  C_15
REMARK    3  A    between atoms: C_15  and  C_16
REMARK                            x       y       z     vdW  Elec       q    Type
REMARK                         _______ _______ _______ _____ _____    ______ ____
ROOT
ATOM      1  O   UNL     1       3.654   1.372  18.662  0.00  0.00    +0.000 OA
ATOM      2  C   UNL     1       3.060   2.443  18.752  0.00  0.00    +0.000 C 
ATOM      3  C   UNL     1       1.565   2.539  18.800  0.00  0.00    +0.000 C 
ATOM      4  S   UNL     1       1.191   4.265  19.113  0.00  0.00    +0.000 S 
ATOM      5  C   UNL     1       2.860   4.773  18.966  0.00  0.00    +0.000 C 
ATOM      6  N   UNL     1       3.325   5.982  19.002  0.00  0.00    +0.000 NA
ATOM      7  N   UNL     1       3.671   3.678  18.829  0.00  0.00    +0.000 N 
ENDROOT
BRANCH   6   8
ATOM      8  C   UNL     1       2.519   7.118  19.183  0.00  0.00    +0.000 A 
ATOM      9  C   UNL     1       2.258   7.934  18.076  0.00  0.00    +0.000 A 
ATOM     10  C   UNL     1       1.488   9.099  18.204  0.00  0.00    +0.000 A 
ATOM     11  C   UNL     1       0.983   9.460  19.450  0.00  0.00    +0.000 A 
ATOM     12 CL   UNL     1       0.101  10.923  19.633  0.00  0.00    +0.000 Cl
ATOM     13  C   UNL     1       1.187   8.635  20.552  0.00  0.00    +0.000 A 
ATOM     14  C   UNL     1       1.912   7.448  20.402  0.00  0.00    +0.000 A 
ENDBRANCH   6   8
BRANCH   7  15
ATOM     15  C   UNL     1       5.123   3.766  18.849  0.00  0.00    +0.000 C 
BRANCH  15  16
ATOM     16  C   UNL     1       5.706   4.263  17.555  0.00  0.00    +0.000 A 
ATOM     17  C   UNL     1       6.656   5.289  17.533  0.00  0.00    +0.000 A 
ATOM     18  C   UNL     1       7.181   5.720  16.320  0.00  0.00    +0.000 A 
ATOM     19  C   UNL     1       6.735   5.111  15.159  0.00  0.00    +0.000 A 
ATOM     20  N   UNL     1       5.820   4.118  15.138  0.00  0.00    +0.000 NA
ATOM     21  C   UNL     1       5.327   3.718  16.333  0.00  0.00    +0.000 A 
ENDBRANCH  15  16
ENDBRANCH   7  15
TORSDOF 3
ENDMDL
MODEL 5
REMARK VINA RESULT:      -7.0      1.666      2.343
REMARK  Name = 
REMARK  3 active torsions:
REMARK  status: ('A' for Active; 'I' for Inactive)
REMARK    1  A    between atoms: N_6  and  C_7
REMARK    2  A    between atoms: N_14  and  C_15
REMARK    3  A    between atoms: C_15  and  C_16
REMARK                            x       y       z     vdW  Elec       q    Type
REMARK                         _______ _______ _______ _____ _____    ______ ____
ROOT
ATOM      1  O   UNL     1       3.560   2.347  18.281  0.00  0.00    +0.000 OA
ATOM      2  C   UNL     1       2.994   3.324  18.763  0.00  0.00    +0.000 C 
ATOM      3  C   UNL     1       1.987   3.213  19.869  0.00  0.00    +0.000 C 
ATOM      4  S   UNL     1       1.591   4.897  20.345  0.00  0.00    +0.000 S 
ATOM      5  C   UNL     1       2.520   5.607  19.042  0.00  0.00    +0.000 C 
ATOM      6  N   UNL     1       2.610   6.861  18.726  0.00  0.00    +0.000 NA
ATOM      7  N   UNL     1       3.206   4.630  18.370  0.00  0.00    +0.000 N 
ENDROOT
BRANCH   6   8
ATOM      8  C   UNL     1       1.949   7.886  19.424  0.00  0.00    +0.000 A 
ATOM      9  C   UNL     1       1.485   8.992  18.702  0.00  0.00    +0.000 A 
ATOM     10  C   UNL     1       0.849  10.060  19.351  0.00  0.00    +0.000 A 
ATOM     11  C   UNL     1       0.683  10.030  20.732  0.00  0.00    +0.000 A 
ATOM     12 CL   UNL     1      -0.029  11.366  21.545  0.00  0.00    +0.000 Cl
ATOM     13  C   UNL     1       1.090   8.916  21.460  0.00  0.00    +0.000 A 
ATOM     14  C   UNL     1       1.677   7.834  20.798  0.00  0.00    +0.000 A 
ENDBRANCH   6   8
BRANCH   7  15
ATOM     15  C   UNL     1       4.192   4.925  17.343  0.00  0.00    +0.000 C 
BRANCH  15  16
ATOM     16  C   UNL     1       5.498   5.425  17.899  0.00  0.00    +0.000 A 
ATOM     17  C   UNL     1       6.264   6.372  17.213  0.00  0.00    +0.000 A 
ATOM     18  C   UNL     1       7.463   6.818  17.757  0.00  0.00    +0.000 A 
ATOM     19  C   UNL     1       7.863   6.298  18.977  0.00  0.00    +0.000 A 
ATOM     20  N   UNL     1       7.152   5.383  19.670  0.00  0.00    +0.000 NA
ATOM     21  C   UNL     1       5.990   4.966  19.117  0.00  0.00    +0.000 A 
ENDBRANCH  15  16
ENDBRANCH   7  15
TORSDOF 3
ENDMDL
MODEL 6
REMARK VINA RESULT:      -6.9      1.954      3.951
REMARK  Name = 
REMARK  3 active torsions:
REMARK  status: ('A' for Active; 'I' for Inactive)
REMARK    1  A    between atoms: N_6  and  C_7
REMARK    2  A    between atoms: N_14  and  C_15
REMARK    3  A    between atoms: C_15  and  C_16
REMARK                            x       y       z     vdW  Elec       q    Type
REMARK                         _______ _______ _______ _____ _____    ______ ____
ROOT
ATOM      1  O   UNL     1       5.620   3.413  16.132  0.00  0.00    +0.000 OA
ATOM      2  C   UNL     1       5.185   4.470  16.579  0.00  0.00    +0.000 C 
ATOM      3  C   UNL     1       5.946   5.760  16.495  0.00  0.00    +0.000 C 
ATOM      4  S   UNL     1       4.837   7.028  17.111  0.00  0.00    +0.000 S 
ATOM      5  C   UNL     1       3.613   5.879  17.608  0.00  0.00    +0.000 C 
ATOM      6  N   UNL     1       2.509   6.123  18.241  0.00  0.00    +0.000 NA
ATOM      7  N   UNL     1       3.962   4.619  17.201  0.00  0.00    +0.000 N 
ENDROOT
BRANCH   6   8
ATOM      8  C   UNL     1       2.108   7.411  18.633  0.00  0.00    +0.000 A 
ATOM      9  C   UNL     1       1.875   7.653  19.992  0.00  0.00    +0.000 A 
ATOM     10  C   UNL     1       1.440   8.910  20.436  0.00  0.00    +0.000 A 
ATOM     11  C   UNL     1       1.225   9.932  19.516  0.00  0.00    +0.000 A 
ATOM     12 CL   UNL     1       0.623  11.454  20.041  0.00  0.00    +0.000 Cl
ATOM     13  C   UNL     1       1.502   9.727  18.168  0.00  0.00    +0.000 A 
ATOM     14  C   UNL     1       1.984   8.486  17.741  0.00  0.00    +0.000 A 
ENDBRANCH   6   8
BRANCH   7  15
ATOM     15  C   UNL     1       3.070   3.477  17.322  0.00  0.00    +0.000 C 
BRANCH  15  16
ATOM     16  C   UNL     1       2.680   3.174  18.743  0.00  0.00    +0.000 A 
ATOM     17  C   UNL     1       1.347   3.237  19.159  0.00  0.00    +0.000 A 
ATOM     18  C   UNL     1       1.020   2.945  20.479  0.00  0.00    +0.000 A 
ATOM     19  C   UNL     1       2.042   2.600  21.347  0.00  0.00    +0.000 A 
ATOM     20  N   UNL     1       3.340   2.528  20.984  0.00  0.00    +0.000 NA
ATOM     21  C   UNL     1       3.630   2.817  19.694  0.00  0.00    +0.000 A 
ENDBRANCH  15  16
ENDBRANCH   7  15
TORSDOF 3
ENDMDL
MODEL 7
REMARK VINA RESULT:      -6.9      1.194      2.050
REMARK  Name = 
REMARK  3 active torsions:
REMARK  status: ('A' for Active; 'I' for Inactive)
REMARK    1  A    between atoms: N_6  and  C_7
REMARK    2  A    between atoms: N_14  and  C_15
REMARK    3  A    between atoms: C_15  and  C_16
REMARK                            x       y       z     vdW  Elec       q    Type
REMARK                         _______ _______ _______ _____ _____    ______ ____
ROOT
ATOM      1  O   UNL     1       3.743   1.720  18.419  0.00  0.00    +0.000 OA
ATOM      2  C   UNL     1       3.196   2.770  18.741  0.00  0.00    +0.000 C 
ATOM      3  C   UNL     1       2.173   2.849  19.835  0.00  0.00    +0.000 C 
ATOM      4  S   UNL     1       1.813   4.593  20.049  0.00  0.00    +0.000 S 
ATOM      5  C   UNL     1       2.776   5.080  18.671  0.00  0.00    +0.000 C 
ATOM      6  N   UNL     1       2.901   6.270  18.174  0.00  0.00    +0.000 NA
ATOM      7  N   UNL     1       3.446   3.999  18.163  0.00  0.00    +0.000 N 
ENDROOT
BRANCH   6   8
ATOM      8  C   UNL     1       2.258   7.402  18.701  0.00  0.00    +0.000 A 
ATOM      9  C   UNL     1       1.859   8.414  17.819  0.00  0.00    +0.000 A 
ATOM     10  C   UNL     1       1.244   9.581  18.293  0.00  0.00    +0.000 A 
ATOM     11  C   UNL     1       1.033   9.747  19.659  0.00  0.00    +0.000 A 
ATOM     12 CL   UNL     1       0.346  11.205  20.256  0.00  0.00    +0.000 Cl
ATOM     13  C   UNL     1       1.373   8.730  20.546  0.00  0.00    +0.000 A 
ATOM     14  C   UNL     1       1.939   7.548  20.058  0.00  0.00    +0.000 A 
ENDBRANCH   6   8
BRANCH   7  15
ATOM     15  C   UNL     1       4.452   4.114  17.120  0.00  0.00    +0.000 C 
BRANCH  15  16
ATOM     16  C   UNL     1       5.586   5.033  17.487  0.00  0.00    +0.000 A 
ATOM     17  C   UNL     1       6.257   4.906  18.706  0.00  0.00    +0.000 A 
ATOM     18  C   UNL     1       7.306   5.767  19.011  0.00  0.00    +0.000 A 
ATOM     19  C   UNL     1       7.650   6.735  18.084  0.00  0.00    +0.000 A 
ATOM     20  N   UNL     1       7.026   6.890  16.896  0.00  0.00    +0.000 NA
ATOM     21  C   UNL     1       6.010   6.039  16.625  0.00  0.00    +0.000 A 
ENDBRANCH  15  16
ENDBRANCH   7  15
TORSDOF 3
ENDMDL
MODEL 8
REMARK VINA RESULT:      -6.9      1.247      1.822
REMARK  Name = 
REMARK  3 active torsions:
REMARK  status: ('A' for Active; 'I' for Inactive)
REMARK    1  A    between atoms: N_6  and  C_7
REMARK    2  A    between atoms: N_14  and  C_15
REMARK    3  A    between atoms: C_15  and  C_16
REMARK                            x       y       z     vdW  Elec       q    Type
REMARK                         _______ _______ _______ _____ _____    ______ ____
ROOT
ATOM      1  O   UNL     1       3.959   1.909  18.764  0.00  0.00    +0.000 OA
ATOM      2  C   UNL     1       3.369   2.954  19.024  0.00  0.00    +0.000 C 
ATOM      3  C   UNL     1       2.359   3.062  20.127  0.00  0.00    +0.000 C 
ATOM      4  S   UNL     1       1.923   4.799  20.229  0.00  0.00    +0.000 S 
ATOM      5  C   UNL     1       2.842   5.232  18.803  0.00  0.00    +0.000 C 
ATOM      6  N   UNL     1       2.906   6.390  18.224  0.00  0.00    +0.000 NA
ATOM      7  N   UNL     1       3.553   4.149  18.359  0.00  0.00    +0.000 N 
ENDROOT
BRANCH   6   8
ATOM      8  C   UNL     1       2.219   7.526  18.683  0.00  0.00    +0.000 A 
ATOM      9  C   UNL     1       1.971   7.646  20.056  0.00  0.00    +0.000 A 
ATOM     10  C   UNL     1       1.260   8.742  20.567  0.00  0.00    +0.000 A 
ATOM     11  C   UNL     1       0.783   9.721  19.700  0.00  0.00    +0.000 A 
ATOM     12 CL   UNL     1      -0.151  11.030  20.307  0.00  0.00    +0.000 Cl
ATOM     13  C   UNL     1       1.066   9.647  18.340  0.00  0.00    +0.000 A 
ATOM     14  C   UNL     1       1.819   8.577  17.847  0.00  0.00    +0.000 A 
ENDBRANCH   6   8
BRANCH   7  15
ATOM     15  C   UNL     1       4.538   4.238  17.292  0.00  0.00    +0.000 C 
BRANCH  15  16
ATOM     16  C   UNL     1       5.711   5.113  17.637  0.00  0.00    +0.000 A 
ATOM     17  C   UNL     1       6.393   4.970  18.849  0.00  0.00    +0.000 A 
ATOM     18  C   UNL     1       7.478   5.791  19.135  0.00  0.00    +0.000 A 
ATOM     19  C   UNL     1       7.849   6.738  18.195  0.00  0.00    +0.000 A 
ATOM     20  N   UNL     1       7.217   6.908  17.014  0.00  0.00    +0.000 NA
ATOM     21  C   UNL     1       6.165   6.095  16.762  0.00  0.00    +0.000 A 
ENDBRANCH  15  16
ENDBRANCH   7  15
TORSDOF 3
ENDMDL
MODEL 9
REMARK VINA RESULT:      -6.8      1.232      1.382
REMARK  Name = 
REMARK  3 active torsions:
REMARK  status: ('A' for Active; 'I' for Inactive)
REMARK    1  A    between atoms: N_6  and  C_7
REMARK    2  A    between atoms: N_14  and  C_15
REMARK    3  A    between atoms: C_15  and  C_16
REMARK                            x       y       z     vdW  Elec       q    Type
REMARK                         _______ _______ _______ _____ _____    ______ ____
ROOT
ATOM      1  O   UNL     1       3.783   2.100  19.674  0.00  0.00    +0.000 OA
ATOM      2  C   UNL     1       3.089   3.109  19.761  0.00  0.00    +0.000 C 
ATOM      3  C   UNL     1       1.642   3.066  20.154  0.00  0.00    +0.000 C 
ATOM      4  S   UNL     1       1.125   4.776  20.315  0.00  0.00    +0.000 S 
ATOM      5  C   UNL     1       2.637   5.413  19.706  0.00  0.00    +0.000 C 
ATOM      6  N   UNL     1       2.936   6.651  19.468  0.00  0.00    +0.000 NA
ATOM      7  N   UNL     1       3.534   4.393  19.524  0.00  0.00    +0.000 N 
ENDROOT
BRANCH   6   8
ATOM      8  C   UNL     1       2.049   7.718  19.684  0.00  0.00    +0.000 A 
ATOM      9  C   UNL     1       1.526   7.902  20.969  0.00  0.00    +0.000 A 
ATOM     10  C   UNL     1       0.610   8.929  21.236  0.00  0.00    +0.000 A 
ATOM     11  C   UNL     1       0.204   9.776  20.208  0.00  0.00    +0.000 A 
ATOM     12 CL   UNL     1      -0.973  10.993  20.507  0.00  0.00    +0.000 Cl
ATOM     13  C   UNL     1       0.753   9.644  18.936  0.00  0.00    +0.000 A 
ATOM     14  C   UNL     1       1.704   8.649  18.694  0.00  0.00    +0.000 A 
ENDBRANCH   6   8
BRANCH   7  15
ATOM     15  C   UNL     1       4.929   4.623  19.183  0.00  0.00    +0.000 C 
BRANCH  15  16
ATOM     16  C   UNL     1       5.145   4.907  17.722  0.00  0.00    +0.000 A 
ATOM     17  C   UNL     1       5.301   6.213  17.251  0.00  0.00    +0.000 A 
ATOM     18  C   UNL     1       5.506   6.440  15.894  0.00  0.00    +0.000 A 
ATOM     19  C   UNL     1       5.546   5.347  15.045  0.00  0.00    +0.000 A 
ATOM     20  N   UNL     1       5.401   4.070  15.461  0.00  0.00    +0.000 NA
ATOM     21  C   UNL     1       5.203   3.879  16.786  0.00  0.00    +0.000 A 
ENDBRANCH  15  16
ENDBRANCH   7  15
TORSDOF 3
ENDMDL
