MODEL 1
REMARK VINA RESULT:      -6.8      0.000      0.000
REMARK  Name = 
REMARK  4 active torsions:
REMARK  status: ('A' for Active; 'I' for Inactive)
REMARK    1  A    between atoms: C_1  and  O_2
REMARK    2  A    between atoms: O_2  and  C_3
REMARK    3  A    between atoms: C_6  and  C_7
REMARK    4  A    between atoms: C_16  and  C_17
REMARK                            x       y       z     vdW  Elec       q    Type
REMARK                         _______ _______ _______ _____ _____    ______ ____
ROOT
ATOM      1  C   UNL     1       3.132   4.998  17.637  0.00  0.00    +0.000 C 
ATOM      2  C   UNL     1       4.589   5.029  18.041  0.00  0.00    +0.000 A 
ATOM      3  S   UNL     1       5.662   6.362  17.626  0.00  0.00    +0.000 S 
ATOM      4  C   UNL     1       6.899   5.762  18.727  0.00  0.00    +0.000 A 
ATOM      5  O   UNL     1       7.933   6.350  19.010  0.00  0.00    +0.000 OA
ATOM      6  N   UNL     1       6.475   4.551  19.205  0.00  0.00    +0.000 N 
ATOM      7  C   UNL     1       5.216   4.171  18.849  0.00  0.00    +0.000 A 
ATOM      8  S   UNL     1       4.517   2.790  19.542  0.00  0.00    +0.000 S 
ATOM      9  C   UNL     1       3.250   2.426  18.290  0.00  0.00    +0.000 C 
ATOM     10  C   UNL     1       2.415   3.614  17.781  0.00  0.00    +0.000 C 
ATOM     11  H   UNL     1       7.025   4.041  19.878  0.00  0.00    +0.000 HD
ENDROOT
BRANCH   1  15
ATOM     12  C   UNL     1       1.636   8.643  19.453  0.00  0.00    +0.000 A 
ATOM     13  C   UNL     1       1.701   8.510  18.068  0.00  0.00    +0.000 A 
ATOM     14  C   UNL     1       2.079   7.298  17.489  0.00  0.00    +0.000 A 
ATOM     15  C   UNL     1       2.449   6.205  18.290  0.00  0.00    +0.000 A 
ATOM     16  C   UNL     1       2.379   6.350  19.687  0.00  0.00    +0.000 A 
ATOM     17  C   UNL     1       1.958   7.555  20.261  0.00  0.00    +0.000 A 
BRANCH  12  19
ATOM     18  C   UNL     1       0.058  10.402  19.476  0.00  0.00    +0.000 C 
ATOM     19  O   UNL     1       1.317   9.896  19.897  0.00  0.00    +0.000 OA
ENDBRANCH  12  19
ENDBRANCH   1  15
BRANCH  10  20
ATOM     20  C   UNL     1       1.052   3.675  18.455  0.00  0.00    +0.000 C 
ATOM     21  O   UNL     1       0.745   3.046  19.462  0.00  0.00    +0.000 OA
ENDBRANCH  10  20
TORSDOF 3
ENDMDL
MODEL 2
REMARK VINA RESULT:      -6.8      0.750      1.310
REMARK  Name = 
REMARK  4 active torsions:
REMARK  status: ('A' for Active; 'I' for Inactive)
REMARK    1  A    between atoms: C_1  and  O_2
REMARK    2  A    between atoms: O_2  and  C_3
REMARK    3  A    between atoms: C_6  and  C_7
REMARK    4  A    between atoms: C_16  and  C_17
REMARK                            x       y       z     vdW  Elec       q    Type
REMARK                         _______ _______ _______ _____ _____    ______ ____
ROOT
ATOM      1  C   UNL     1       3.506   5.535  17.528  0.00  0.00    +0.000 C 
ATOM      2  C   UNL     1       4.952   5.425  17.956  0.00  0.00    +0.000 A 
ATOM      3  S   UNL     1       6.139   6.683  17.622  0.00  0.00    +0.000 S 
ATOM      4  C   UNL     1       7.300   5.932  18.713  0.00  0.00    +0.000 A 
ATOM      5  O   UNL     1       8.373   6.418  19.041  0.00  0.00    +0.000 OA
ATOM      6  N   UNL     1       6.768   4.739  19.126  0.00  0.00    +0.000 N 
ATOM      7  C   UNL     1       5.490   4.482  18.732  0.00  0.00    +0.000 A 
ATOM      8  S   UNL     1       4.666   3.133  19.347  0.00  0.00    +0.000 S 
ATOM      9  C   UNL     1       3.398   2.933  18.059  0.00  0.00    +0.000 C 
ATOM     10  C   UNL     1       2.674   4.210  17.594  0.00  0.00    +0.000 C 
ATOM     11  H   UNL     1       7.261   4.155  19.783  0.00  0.00    +0.000 HD
ENDROOT
BRANCH   1  15
ATOM     12  C   UNL     1       1.390   8.775  19.490  0.00  0.00    +0.000 A 
ATOM     13  C   UNL     1       1.858   7.682  20.218  0.00  0.00    +0.000 A 
ATOM     14  C   UNL     1       2.632   6.698  19.602  0.00  0.00    +0.000 A 
ATOM     15  C   UNL     1       2.911   6.763  18.227  0.00  0.00    +0.000 A 
ATOM     16  C   UNL     1       2.435   7.869  17.502  0.00  0.00    +0.000 A 
ATOM     17  C   UNL     1       1.696   8.875  18.134  0.00  0.00    +0.000 A 
BRANCH  12  19
ATOM     18  C   UNL     1       0.069   9.136  21.416  0.00  0.00    +0.000 C 
ATOM     19  O   UNL     1       0.589   9.633  20.190  0.00  0.00    +0.000 OA
ENDBRANCH  12  19
ENDBRANCH   1  15
BRANCH  10  20
ATOM     20  C   UNL     1       1.308   4.352  18.249  0.00  0.00    +0.000 C 
ATOM     21  O   UNL     1       0.912   3.672  19.190  0.00  0.00    +0.000 OA
ENDBRANCH  10  20
TORSDOF 3
ENDMDL
MODEL 3
REMARK VINA RESULT:      -6.6      1.001      1.474
REMARK  Name = 
REMARK  4 active torsions:
REMARK  status: ('A' for Active; 'I' for Inactive)
REMARK    1  A    between atoms: C_1  and  O_2
REMARK    2  A    between atoms: O_2  and  C_3
REMARK    3  A    between atoms: C_6  and  C_7
REMARK    4  A    between atoms: C_16  and  C_17
REMARK                            x       y       z     vdW  Elec       q    Type
REMARK                         _______ _______ _______ _____ _____    ______ ____
ROOT
ATOM      1  C   UNL     1       2.753   4.935  17.931  0.00  0.00    +0.000 C 
ATOM      2  C   UNL     1       4.251   4.764  17.827  0.00  0.00    +0.000 A 
ATOM      3  S   UNL     1       5.268   5.854  16.889  0.00  0.00    +0.000 S 
ATOM      4  C   UNL     1       6.726   5.170  17.601  0.00  0.00    +0.000 A 
ATOM      5  O   UNL     1       7.858   5.604  17.440  0.00  0.00    +0.000 OA
ATOM      6  N   UNL     1       6.350   4.098  18.367  0.00  0.00    +0.000 N 
ATOM      7  C   UNL     1       5.009   3.898  18.503  0.00  0.00    +0.000 A 
ATOM      8  S   UNL     1       4.431   2.726  19.584  0.00  0.00    +0.000 S 
ATOM      9  C   UNL     1       2.775   2.455  18.885  0.00  0.00    +0.000 C 
ATOM     10  C   UNL     1       1.966   3.709  18.506  0.00  0.00    +0.000 C 
ATOM     11  H   UNL     1       7.033   3.574  18.890  0.00  0.00    +0.000 HD
ENDROOT
BRANCH   1  15
ATOM     12  C   UNL     1       1.538   8.646  19.822  0.00  0.00    +0.000 A 
ATOM     13  C   UNL     1       1.854   7.524  20.586  0.00  0.00    +0.000 A 
ATOM     14  C   UNL     1       2.349   6.369  19.980  0.00  0.00    +0.000 A 
ATOM     15  C   UNL     1       2.490   6.296  18.585  0.00  0.00    +0.000 A 
ATOM     16  C   UNL     1       2.170   7.433  17.823  0.00  0.00    +0.000 A 
ATOM     17  C   UNL     1       1.715   8.604  18.441  0.00  0.00    +0.000 A 
BRANCH  12  19
ATOM     18  C   UNL     1       0.980   9.540  21.937  0.00  0.00    +0.000 C 
ATOM     19  O   UNL     1       1.002   9.689  20.524  0.00  0.00    +0.000 OA
ENDBRANCH  12  19
ENDBRANCH   1  15
BRANCH  10  20
ATOM     20  C   UNL     1       0.939   4.060  19.573  0.00  0.00    +0.000 C 
ATOM     21  O   UNL     1       0.724   3.393  20.579  0.00  0.00    +0.000 OA
ENDBRANCH  10  20
TORSDOF 3
ENDMDL
MODEL 4
REMARK VINA RESULT:      -6.1      1.113      1.555
REMARK  Name = 
REMARK  4 active torsions:
REMARK  status: ('A' for Active; 'I' for Inactive)
REMARK    1  A    between atoms: C_1  and  O_2
REMARK    2  A    between atoms: O_2  and  C_3
REMARK    3  A    between atoms: C_6  and  C_7
REMARK    4  A    between atoms: C_16  and  C_17
REMARK                            x       y       z     vdW  Elec       q    Type
REMARK                         _______ _______ _______ _____ _____    ______ ____
ROOT
ATOM      1  C   UNL     1       2.801   5.502  17.684  0.00  0.00    +0.000 C 
ATOM      2  C   UNL     1       4.293   5.501  17.436  0.00  0.00    +0.000 A 
ATOM      3  S   UNL     1       5.080   6.669  16.378  0.00  0.00    +0.000 S 
ATOM      4  C   UNL     1       6.670   6.181  16.959  0.00  0.00    +0.000 A 
ATOM      5  O   UNL     1       7.722   6.737  16.677  0.00  0.00    +0.000 OA
ATOM      6  N   UNL     1       6.497   5.100  17.782  0.00  0.00    +0.000 N 
ATOM      7  C   UNL     1       5.208   4.752  18.054  0.00  0.00    +0.000 A 
ATOM      8  S   UNL     1       4.877   3.559  19.213  0.00  0.00    +0.000 S 
ATOM      9  C   UNL     1       3.206   3.075  18.687  0.00  0.00    +0.000 C 
ATOM     10  C   UNL     1       2.223   4.214  18.361  0.00  0.00    +0.000 C 
ATOM     11  H   UNL     1       7.284   4.676  18.247  0.00  0.00    +0.000 HD
ENDROOT
BRANCH   1  15
ATOM     12  C   UNL     1       1.330   9.127  19.559  0.00  0.00    +0.000 A 
ATOM     13  C   UNL     1       1.744   8.041  20.329  0.00  0.00    +0.000 A 
ATOM     14  C   UNL     1       2.318   6.922  19.726  0.00  0.00    +0.000 A 
ATOM     15  C   UNL     1       2.443   6.846  18.329  0.00  0.00    +0.000 A 
ATOM     16  C   UNL     1       2.024   7.946  17.561  0.00  0.00    +0.000 A 
ATOM     17  C   UNL     1       1.488   9.084  18.175  0.00  0.00    +0.000 A 
BRANCH  12  19
ATOM     18  C   UNL     1       1.116  11.453  19.912  0.00  0.00    +0.000 C 
ATOM     19  O   UNL     1       0.725  10.132  20.260  0.00  0.00    +0.000 OA
ENDBRANCH  12  19
ENDBRANCH   1  15
BRANCH  10  20
ATOM     20  C   UNL     1       1.268   4.480  19.515  0.00  0.00    +0.000 C 
ATOM     21  O   UNL     1       0.615   3.618  20.093  0.00  0.00    +0.000 OA
ENDBRANCH  10  20
TORSDOF 3
ENDMDL
MODEL 5
REMARK VINA RESULT:      -5.9      1.910      3.953
REMARK  Name = 
REMARK  4 active torsions:
REMARK  status: ('A' for Active; 'I' for Inactive)
REMARK    1  A    between atoms: C_1  and  O_2
REMARK    2  A    between atoms: O_2  and  C_3
REMARK    3  A    between atoms: C_6  and  C_7
REMARK    4  A    between atoms: C_16  and  C_17
REMARK                            x       y       z     vdW  Elec       q    Type
REMARK                         _______ _______ _______ _____ _____    ______ ____
ROOT
ATOM      1  C   UNL     1       3.807   5.583  19.174  0.00  0.00    +0.000 C 
ATOM      2  C   UNL     1       3.032   4.315  18.893  0.00  0.00    +0.000 A 
ATOM      3  S   UNL     1       1.643   3.819  19.855  0.00  0.00    +0.000 S 
ATOM      4  C   UNL     1       1.219   2.582  18.676  0.00  0.00    +0.000 A 
ATOM      5  O   UNL     1       0.200   1.906  18.701  0.00  0.00    +0.000 OA
ATOM      6  N   UNL     1       2.217   2.543  17.739  0.00  0.00    +0.000 N 
ATOM      7  C   UNL     1       3.183   3.498  17.850  0.00  0.00    +0.000 A 
ATOM      8  S   UNL     1       4.354   3.666  16.634  0.00  0.00    +0.000 S 
ATOM      9  C   UNL     1       5.648   4.531  17.574  0.00  0.00    +0.000 C 
ATOM     10  C   UNL     1       5.196   5.705  18.462  0.00  0.00    +0.000 C 
ATOM     11  H   UNL     1       2.161   1.917  16.951  0.00  0.00    +0.000 HD
ENDROOT
BRANCH   1  15
ATOM     12  C   UNL     1       1.459   9.206  18.737  0.00  0.00    +0.000 A 
ATOM     13  C   UNL     1       2.080   8.619  17.636  0.00  0.00    +0.000 A 
ATOM     14  C   UNL     1       2.741   7.397  17.761  0.00  0.00    +0.000 A 
ATOM     15  C   UNL     1       2.837   6.760  19.009  0.00  0.00    +0.000 A 
ATOM     16  C   UNL     1       2.207   7.358  20.113  0.00  0.00    +0.000 A 
ATOM     17  C   UNL     1       1.508   8.563  19.972  0.00  0.00    +0.000 A 
BRANCH  12  19
ATOM     18  C   UNL     1      -0.455  10.583  18.888  0.00  0.00    +0.000 C 
ATOM     19  O   UNL     1       0.903  10.431  18.499  0.00  0.00    +0.000 OA
ENDBRANCH  12  19
ENDBRANCH   1  15
BRANCH  10  20
ATOM     20  C   UNL     1       5.449   7.048  17.792  0.00  0.00    +0.000 C 
ATOM     21  O   UNL     1       6.213   7.223  16.849  0.00  0.00    +0.000 OA
ENDBRANCH  10  20
TORSDOF 3
ENDMDL
MODEL 6
REMARK VINA RESULT:      -5.9      3.074      5.602
REMARK  Name = 
REMARK  4 active torsions:
REMARK  status: ('A' for Active; 'I' for Inactive)
REMARK    1  A    between atoms: C_1  and  O_2
REMARK    2  A    between atoms: O_2  and  C_3
REMARK    3  A    between atoms: C_6  and  C_7
REMARK    4  A    between atoms: C_16  and  C_17
REMARK                            x       y       z     vdW  Elec       q    Type
REMARK                         _______ _______ _______ _____ _____    ______ ____
ROOT
ATOM      1  C   UNL     1       4.781   4.651  18.819  0.00  0.00    +0.000 C 
ATOM      2  C   UNL     1       3.815   5.803  18.655  0.00  0.00    +0.000 A 
ATOM      3  S   UNL     1       4.313   7.380  18.050  0.00  0.00    +0.000 S 
ATOM      4  C   UNL     1       2.635   7.881  17.861  0.00  0.00    +0.000 A 
ATOM      5  O   UNL     1       2.267   8.919  17.330  0.00  0.00    +0.000 OA
ATOM      6  N   UNL     1       1.846   6.896  18.391  0.00  0.00    +0.000 N 
ATOM      7  C   UNL     1       2.489   5.765  18.798  0.00  0.00    +0.000 A 
ATOM      8  S   UNL     1       1.595   4.408  19.285  0.00  0.00    +0.000 S 
ATOM      9  C   UNL     1       2.853   3.554  20.282  0.00  0.00    +0.000 C 
ATOM     10  C   UNL     1       4.264   3.447  19.676  0.00  0.00    +0.000 C 
ATOM     11  H   UNL     1       0.841   6.968  18.362  0.00  0.00    +0.000 HD
ENDROOT
BRANCH   1  15
ATOM     12  C   UNL     1       6.392   4.213  14.815  0.00  0.00    +0.000 A 
ATOM     13  C   UNL     1       7.231   4.460  15.900  0.00  0.00    +0.000 A 
ATOM     14  C   UNL     1       6.721   4.491  17.198  0.00  0.00    +0.000 A 
ATOM     15  C   UNL     1       5.346   4.324  17.432  0.00  0.00    +0.000 A 
ATOM     16  C   UNL     1       4.509   4.075  16.332  0.00  0.00    +0.000 A 
ATOM     17  C   UNL     1       5.032   4.002  15.036  0.00  0.00    +0.000 A 
BRANCH  12  19
ATOM     18  C   UNL     1       6.344   3.579  12.539  0.00  0.00    +0.000 C 
ATOM     19  O   UNL     1       6.998   4.274  13.592  0.00  0.00    +0.000 OA
ENDBRANCH  12  19
ENDBRANCH   1  15
BRANCH  10  20
ATOM     20  C   UNL     1       4.509   2.078  19.057  0.00  0.00    +0.000 C 
ATOM     21  O   UNL     1       3.643   1.385  18.535  0.00  0.00    +0.000 OA
ENDBRANCH  10  20
TORSDOF 3
ENDMDL
MODEL 7
REMARK VINA RESULT:      -5.7      1.881      4.075
REMARK  Name = 
REMARK  4 active torsions:
REMARK  status: ('A' for Active; 'I' for Inactive)
REMARK    1  A    between atoms: C_1  and  O_2
REMARK    2  A    between atoms: O_2  and  C_3
REMARK    3  A    between atoms: C_6  and  C_7
REMARK    4  A    between atoms: C_16  and  C_17
REMARK                            x       y       z     vdW  Elec       q    Type
REMARK                         _______ _______ _______ _____ _____    ______ ____
ROOT
ATOM      1  C   UNL     1       4.151   5.559  19.115  0.00  0.00    +0.000 C 
ATOM      2  C   UNL     1       3.265   4.382  18.772  0.00  0.00    +0.000 A 
ATOM      3  S   UNL     1       1.831   3.969  19.707  0.00  0.00    +0.000 S 
ATOM      4  C   UNL     1       1.302   2.835  18.468  0.00  0.00    +0.000 A 
ATOM      5  O   UNL     1       0.225   2.255  18.460  0.00  0.00    +0.000 OA
ATOM      6  N   UNL     1       2.297   2.750  17.531  0.00  0.00    +0.000 N 
ATOM      7  C   UNL     1       3.345   3.606  17.689  0.00  0.00    +0.000 A 
ATOM      8  S   UNL     1       4.534   3.726  16.485  0.00  0.00    +0.000 S 
ATOM      9  C   UNL     1       5.897   4.422  17.466  0.00  0.00    +0.000 C 
ATOM     10  C   UNL     1       5.549   5.587  18.411  0.00  0.00    +0.000 C 
ATOM     11  H   UNL     1       2.188   2.172  16.714  0.00  0.00    +0.000 HD
ENDROOT
BRANCH   1  15
ATOM     12  C   UNL     1       1.337   8.843  18.763  0.00  0.00    +0.000 A 
ATOM     13  C   UNL     1       1.556   8.217  19.989  0.00  0.00    +0.000 A 
ATOM     14  C   UNL     1       2.540   7.237  20.120  0.00  0.00    +0.000 A 
ATOM     15  C   UNL     1       3.294   6.826  19.008  0.00  0.00    +0.000 A 
ATOM     16  C   UNL     1       3.066   7.463  17.777  0.00  0.00    +0.000 A 
ATOM     17  C   UNL     1       2.107   8.476  17.661  0.00  0.00    +0.000 A 
BRANCH  12  19
ATOM     18  C   UNL     1      -0.096  10.243  20.014  0.00  0.00    +0.000 C 
ATOM     19  O   UNL     1       0.303   9.736  18.748  0.00  0.00    +0.000 OA
ENDBRANCH  12  19
ENDBRANCH   1  15
BRANCH  10  20
ATOM     20  C   UNL     1       5.927   6.932  17.808  0.00  0.00    +0.000 C 
ATOM     21  O   UNL     1       6.438   7.082  16.703  0.00  0.00    +0.000 OA
ENDBRANCH  10  20
TORSDOF 3
ENDMDL
MODEL 8
REMARK VINA RESULT:      -5.6      2.728      4.813
REMARK  Name = 
REMARK  4 active torsions:
REMARK  status: ('A' for Active; 'I' for Inactive)
REMARK    1  A    between atoms: C_1  and  O_2
REMARK    2  A    between atoms: O_2  and  C_3
REMARK    3  A    between atoms: C_6  and  C_7
REMARK    4  A    between atoms: C_16  and  C_17
REMARK                            x       y       z     vdW  Elec       q    Type
REMARK                         _______ _______ _______ _____ _____    ______ ____
ROOT
ATOM      1  C   UNL     1       3.251   3.708  18.080  0.00  0.00    +0.000 C 
ATOM      2  C   UNL     1       3.573   2.871  19.298  0.00  0.00    +0.000 A 
ATOM      3  S   UNL     1       4.738   1.551  19.261  0.00  0.00    +0.000 S 
ATOM      4  C   UNL     1       4.729   1.442  21.019  0.00  0.00    +0.000 A 
ATOM      5  O   UNL     1       5.476   0.738  21.684  0.00  0.00    +0.000 OA
ATOM      6  N   UNL     1       3.762   2.294  21.482  0.00  0.00    +0.000 N 
ATOM      7  C   UNL     1       3.156   3.080  20.548  0.00  0.00    +0.000 A 
ATOM      8  S   UNL     1       2.089   4.307  21.033  0.00  0.00    +0.000 S 
ATOM      9  C   UNL     1       1.152   4.525  19.490  0.00  0.00    +0.000 C 
ATOM     10  C   UNL     1       1.968   4.599  18.186  0.00  0.00    +0.000 C 
ATOM     11  H   UNL     1       3.605   2.408  22.471  0.00  0.00    +0.000 HD
ENDROOT
BRANCH   1  15
ATOM     12  C   UNL     1       6.658   6.101  16.860  0.00  0.00    +0.000 A 
ATOM     13  C   UNL     1       6.320   5.973  18.206  0.00  0.00    +0.000 A 
ATOM     14  C   UNL     1       5.292   5.116  18.601  0.00  0.00    +0.000 A 
ATOM     15  C   UNL     1       4.546   4.405  17.646  0.00  0.00    +0.000 A 
ATOM     16  C   UNL     1       4.895   4.540  16.292  0.00  0.00    +0.000 A 
ATOM     17  C   UNL     1       5.955   5.368  15.905  0.00  0.00    +0.000 A 
BRANCH  12  19
ATOM     18  C   UNL     1       7.803   8.042  17.567  0.00  0.00    +0.000 C 
ATOM     19  O   UNL     1       7.636   7.019  16.596  0.00  0.00    +0.000 OA
ENDBRANCH  12  19
ENDBRANCH   1  15
BRANCH  10  20
ATOM     20  C   UNL     1       2.154   6.036  17.719  0.00  0.00    +0.000 C 
ATOM     21  O   UNL     1       2.336   6.992  18.465  0.00  0.00    +0.000 OA
ENDBRANCH  10  20
TORSDOF 3
ENDMDL
MODEL 9
REMARK VINA RESULT:      -5.3      5.012      8.793
REMARK  Name = 
REMARK  4 active torsions:
REMARK  status: ('A' for Active; 'I' for Inactive)
REMARK    1  A    between atoms: C_1  and  O_2
REMARK    2  A    between atoms: O_2  and  C_3
REMARK    3  A    between atoms: C_6  and  C_7
REMARK    4  A    between atoms: C_16  and  C_17
REMARK                            x       y       z     vdW  Elec       q    Type
REMARK                         _______ _______ _______ _____ _____    ______ ____
ROOT
ATOM      1  C   UNL     1       0.106  12.009  18.508  0.00  0.00    +0.000 C 
ATOM      2  C   UNL     1      -1.405  11.989  18.461  0.00  0.00    +0.000 A 
ATOM      3  S   UNL     1      -2.305  11.034  17.286  0.00  0.00    +0.000 S 
ATOM      4  C   UNL     1      -3.811  11.308  18.157  0.00  0.00    +0.000 A 
ATOM      5  O   UNL     1      -4.880  10.773  17.900  0.00  0.00    +0.000 OA
ATOM      6  N   UNL     1      -3.550  12.197  19.166  0.00  0.00    +0.000 N 
ATOM      7  C   UNL     1      -2.243  12.543  19.339  0.00  0.00    +0.000 A 
ATOM      8  S   UNL     1      -1.782  13.479  20.676  0.00  0.00    +0.000 S 
ATOM      9  C   UNL     1      -0.208  14.146  20.056  0.00  0.00    +0.000 C 
ATOM     10  C   UNL     1       0.745  13.152  19.367  0.00  0.00    +0.000 C 
ATOM     11  H   UNL     1      -4.274  12.474  19.809  0.00  0.00    +0.000 HD
ENDROOT
BRANCH   1  15
ATOM     12  C   UNL     1       1.805   8.164  19.579  0.00  0.00    +0.000 A 
ATOM     13  C   UNL     1       0.942   8.831  20.447  0.00  0.00    +0.000 A 
ATOM     14  C   UNL     1       0.313  10.012  20.053  0.00  0.00    +0.000 A 
ATOM     15  C   UNL     1       0.576  10.579  18.795  0.00  0.00    +0.000 A 
ATOM     16  C   UNL     1       1.447   9.898  17.927  0.00  0.00    +0.000 A 
ATOM     17  C   UNL     1       2.042   8.691  18.312  0.00  0.00    +0.000 A 
BRANCH  12  19
ATOM     18  C   UNL     1       2.392   5.894  19.289  0.00  0.00    +0.000 C 
ATOM     19  O   UNL     1       2.409   7.056  20.106  0.00  0.00    +0.000 OA
ENDBRANCH  12  19
ENDBRANCH   1  15
BRANCH  10  20
ATOM     20  C   UNL     1       1.854  12.695  20.304  0.00  0.00    +0.000 C 
ATOM     21  O   UNL     1       2.112  13.215  21.384  0.00  0.00    +0.000 OA
ENDBRANCH  10  20
TORSDOF 3
ENDMDL
